36
Energy: -21201.522212 eV PBE+vdW (tier 2 basis)
C    -0.531130  1.628570  -0.409560
C    -0.252442  1.380496  1.060122
O    0.505072  2.077389  1.717707
H    -0.295740  0.753135  -1.030627
H    -1.583371  1.893570  -0.586411
H    0.094149  2.465966  -0.728871
N    -0.909734  0.319998  1.667302
C    -1.753317  -0.689643  1.051533
C    -2.934624  -0.992931  1.998716
O    -3.070963  -2.111474  2.535887
H    -0.612068  0.167368  2.628878
H    -2.173899  -0.253638  0.131787
C    -0.966721  -1.960083  0.684904
C    -1.806538  -3.057806  -0.001345
C    -1.686685  -4.394905  0.745201
N    -2.753440  -5.351535  0.440489
C    -3.908154  -5.441374  1.115321
N    -4.235104  -4.549467  2.048412
N    -4.746343  -6.461995  0.832451
H    -0.511249  -2.351059  1.606576
H    -0.132333  -1.648897  0.043900
H    -1.500204  -3.187004  -1.048438
H    -2.866082  -2.765130  -0.030061
H    -1.700489  -4.217319  1.827658
H    -0.733889  -4.889429  0.515965
H    -2.661223  -5.921525  -0.393085
H    -5.004062  -4.747621  2.675937
H    -3.738651  -3.645687  2.184854
H    -5.681463  -6.487333  1.216067
H    -4.416269  -7.293762  0.361096
N    -3.805867  0.002296  2.256211
C    -3.798538  1.375035  1.762410
H    -4.510638  -0.242457  2.946705
H    -3.037581  1.987210  2.263089
H    -4.785414  1.810064  1.947765
H    -3.620118  1.402852  0.680867
