36
Energy: -21200.9166719 eV PBE+vdW (tier 2 basis)
C    -0.177802  -0.332450  -0.712569
C    0.418016  0.342939  0.493153
O    1.593661  0.745245  0.492468
H    0.492710  -0.185491  -1.562849
H    -0.271258  -1.410376  -0.517913
H    -1.175583  0.046534  -0.965010
N    -0.346731  0.522227  1.616539
C    -1.742325  0.139785  1.875836
C    -1.888635  -1.409798  1.699264
O    -1.100022  -2.090976  2.348269
H    0.228137  0.666777  2.440500
H    -1.842823  0.214431  2.969653
C    -2.762045  1.128014  1.285283
C    -2.860105  2.512966  1.959310
C    -1.752802  3.552238  1.686814
N    -0.688494  3.572447  2.699875
C    0.596848  3.245876  2.511284
N    1.199089  3.303077  1.314821
N    1.336899  2.832316  3.557892
H    -3.757739  0.677198  1.388212
H    -2.603123  1.264744  0.205674
H    -2.989750  2.393685  3.047745
H    -3.797714  2.967264  1.608747
H    -2.191459  4.558016  1.648128
H    -1.293874  3.365434  0.708954
H    -0.983979  3.750579  3.655424
H    1.713161  2.441316  1.026008
H    0.691426  3.751569  0.560773
H    2.347958  2.855775  3.493520
H    0.923959  2.621332  4.457363
N    -2.843872  -1.996881  0.925004
C    -3.787191  -1.481395  -0.058661
H    -2.805944  -3.008675  1.022294
H    -4.123238  -2.324273  -0.671159
H    -3.324603  -0.754183  -0.736097
H    -4.677648  -1.029687  0.400770
