36
Energy: -21201.8441128 eV PBE+vdW (tier 2 basis)
C    0.782380  -0.820132  1.952337
C    0.393830  0.394392  2.769641
O    1.155574  0.957195  3.537590
H    1.851319  -0.996360  2.094875
H    0.576584  -0.687238  0.881141
H    0.234043  -1.711697  2.290563
N    -0.902873  0.882101  2.602727
C    -1.993733  0.258473  1.873808
C    -1.956067  0.552546  0.358688
O    -2.573333  -0.184466  -0.445505
H    -1.134794  1.613289  3.271874
H    -1.910583  -0.837028  1.954750
C    -3.323747  0.709265  2.528730
C    -4.661373  0.250591  1.927052
C    -4.924296  -1.260345  1.886908
N    -4.213709  -1.873677  0.765296
C    -4.392580  -3.104339  0.317863
N    -3.808209  -3.475099  -0.842306
N    -5.150196  -4.000588  0.979887
H    -3.330808  1.810659  2.545046
H    -3.274244  0.384235  3.579509
H    -4.805359  0.663256  0.917838
H    -5.451989  0.696917  2.545632
H    -6.006706  -1.428725  1.768173
H    -4.614737  -1.723457  2.840440
H    -3.539573  -1.241477  0.238328
H    -3.685773  -4.452207  -1.072947
H    -3.230163  -2.806245  -1.337630
H    -5.445216  -4.860733  0.536974
H    -5.605620  -3.748539  1.846302
N    -1.248920  1.619542  -0.019661
C    -1.102128  2.066159  -1.396397
H    -0.735377  2.093709  0.720606
H    -1.346388  3.132272  -1.473042
H    -1.786675  1.490140  -2.025256
H    -0.073310  1.911421  -1.747032
