36
Energy: -21201.8091635 eV PBE+vdW (tier 2 basis)
C    2.239124  1.104326  2.049280
C    1.333144  0.709784  3.190393
O    1.735540  0.676864  4.365105
H    2.631557  2.110580  2.244150
H    1.750364  1.095874  1.068600
H    3.099425  0.423140  2.022619
N    0.050583  0.406916  2.868608
C    -1.010000  0.027303  3.814676
C    -1.186718  1.032269  4.991020
O    -1.501497  0.632512  6.106988
H    -0.197258  0.434699  1.885720
H    -1.936111  0.125769  3.226423
C    -0.990906  -1.434438  4.303486
C    0.058173  -1.856815  5.348407
C    1.341535  -2.449814  4.758794
N    2.302545  -2.844903  5.797068
C    3.228225  -2.050853  6.353365
N    4.045481  -2.572848  7.293943
N    3.375770  -0.780769  5.985701
H    -0.940106  -2.086207  3.416608
H    -1.981583  -1.602171  4.743464
H    -0.397464  -2.620315  5.996440
H    0.293333  -1.008161  6.000658
H    1.847536  -1.753253  4.080963
H    1.124613  -3.355260  4.175403
H    2.115639  -3.719434  6.275748
H    4.070813  -3.566215  7.478438
H    4.637215  -1.979342  7.858737
H    4.179068  -0.261061  6.315145
H    2.715398  -0.271747  5.365904
N    -1.068531  2.341978  4.657239
C    -1.242494  3.415599  5.621877
H    -0.777520  2.578619  3.716508
H    -1.896572  4.194407  5.211360
H    -0.279111  3.865942  5.899928
H    -1.705780  2.991991  6.518146
