36
Energy: -21202.010906 eV PBE+vdW (tier 2 basis)
C    -1.201210  -0.884553  0.172579
C    -1.206761  0.001993  1.392600
O    -1.347160  1.230363  1.309158
H    -1.152270  -1.955519  0.399504
H    -2.100553  -0.678899  -0.419820
H    -0.336774  -0.614197  -0.448034
N    -1.052895  -0.625592  2.595761
C    -0.844806  0.023803  3.897604
C    -2.080196  0.761720  4.453424
O    -2.353364  0.645362  5.675859
H    -0.984307  -1.636370  2.588329
H    -0.698457  -0.806975  4.599751
C    0.446789  0.902656  3.919891
C    1.274676  0.883813  5.225634
C    1.039953  2.003452  6.243663
N    -0.294491  1.918502  6.835744
C    -0.921020  2.884216  7.501335
N    -0.246196  3.916102  8.039669
N    -2.261178  2.825562  7.599391
H    0.212320  1.932098  3.615948
H    1.086182  0.499730  3.124280
H    2.335620  0.958099  4.950183
H    1.172928  -0.090109  5.730515
H    1.164487  2.985881  5.758496
H    1.806266  1.919460  7.031289
H    -0.933265  1.176060  6.490048
H    -0.732872  4.703162  8.446858
H    0.760864  3.891804  8.124110
H    -2.756275  3.302332  8.341353
H    -2.737480  2.092432  7.065906
N    -2.773726  1.528877  3.616045
C    -3.948314  2.283147  4.023386
H    -2.391071  1.617680  2.656384
H    -4.491347  2.596605  3.127012
H    -3.673003  3.180358  4.597471
H    -4.605093  1.659944  4.641674
