36
Energy: -21201.5339913 eV PBE+vdW (tier 2 basis)
C    1.738309  0.151121  2.146201
C    1.545093  -1.323255  1.918699
O    2.437088  -2.040513  1.425816
H    2.776695  0.313848  2.454975
H    1.057744  0.567580  2.896235
H    1.599715  0.698944  1.202449
N    0.348522  -1.889455  2.265548
C    -0.986425  -1.291397  2.121801
C    -1.781939  -1.146668  3.445141
O    -2.959565  -0.808212  3.397642
H    0.356289  -2.901178  2.141695
H    -0.866250  -0.261951  1.751611
C    -1.798080  -2.115369  1.104999
C    -1.552455  -1.841047  -0.387654
C    -0.110751  -1.803777  -0.929830
N    0.761256  -2.936920  -0.598011
C    0.865693  -4.074530  -1.272712
N    1.906201  -4.893036  -1.022443
N    -0.036674  -4.433021  -2.203432
H    -2.858171  -1.918343  1.312514
H    -1.639229  -3.184035  1.327906
H    -1.987494  -0.864061  -0.649743
H    -2.144997  -2.578642  -0.952929
H    0.413743  -0.917260  -0.551695
H    -0.137244  -1.680677  -2.023566
H    1.475615  -2.760382  0.142614
H    1.890103  -5.865080  -1.301517
H    2.638462  -4.599630  -0.386496
H    0.158517  -5.178244  -2.859022
H    -0.867406  -3.879124  -2.360942
N    -1.080137  -1.378072  4.580538
C    -1.661357  -1.237885  5.906511
H    -0.111564  -1.662888  4.487074
H    -1.622177  -2.188964  6.453042
H    -2.706645  -0.937402  5.783877
H    -1.132613  -0.470257  6.486289
