36
Energy: -21201.60796 eV PBE+vdW (tier 2 basis)
C    -0.597411  0.445242  0.065094
C    -0.205115  0.358395  1.525284
O    0.905116  0.694504  1.928260
H    -1.663810  0.275680  -0.126165
H    -0.018335  -0.300305  -0.495820
H    -0.312048  1.431513  -0.318151
N    -1.191883  -0.117289  2.361777
C    -1.081891  -0.492045  3.771044
C    -1.690331  0.509261  4.777452
O    -2.338217  0.040487  5.742621
H    -2.075240  -0.353704  1.924928
H    -1.752675  -1.355354  3.890187
C    0.326124  -0.983993  4.190801
C    0.336255  -1.784685  5.505181
C    0.544007  -0.924815  6.762178
N    0.312222  -1.664169  8.007025
C    -0.885958  -1.832059  8.588247
N    -0.947793  -2.535131  9.741283
N    -1.994250  -1.330787  8.052740
H    1.039973  -0.152237  4.225530
H    0.679345  -1.634210  3.380554
H    1.147532  -2.525517  5.460266
H    -0.596982  -2.359414  5.605069
H    -0.109218  -0.044551  6.771844
H    1.573907  -0.547381  6.803053
H    1.068890  -2.246204  8.349111
H    -1.837673  -2.732611  10.178547
H    -0.118174  -2.698904  10.295898
H    -2.849980  -1.331906  8.593555
H    -2.039708  -0.869999  7.116490
N    -1.543609  1.839467  4.661744
C    -0.820702  2.646983  3.683831
H    -2.054827  2.343090  5.383388
H    -0.527236  3.583485  4.169836
H    -1.451555  2.887105  2.816733
H    0.083185  2.137638  3.334793
