36
Energy: -21201.5327814 eV PBE+vdW (tier 2 basis)
C    0.238845  1.768599  0.064801
C    0.157003  0.646048  1.080659
O    0.975128  -0.258464  1.138521
H    0.343971  2.751104  0.546426
H    -0.649659  1.803705  -0.581428
H    1.118713  1.590121  -0.558140
N    -0.894730  0.679028  1.986731
C    -2.050941  1.567335  1.988243
C    -2.363166  1.859982  3.471453
O    -3.330682  1.334812  4.063739
H    -0.933455  -0.145933  2.582264
H    -1.741708  2.509821  1.512047
C    -3.233477  0.969382  1.198986
C    -4.337052  1.927291  0.719563
C    -5.178478  2.607364  1.811862
N    -5.654766  1.672372  2.827568
C    -6.829338  1.067608  2.880142
N    -7.136230  0.312109  3.956319
N    -7.749293  1.187781  1.902475
H    -3.665435  0.142711  1.782197
H    -2.796774  0.504002  0.305225
H    -5.003606  1.353379  0.057494
H    -3.903481  2.722937  0.093677
H    -6.023448  3.156355  1.373368
H    -4.584259  3.359634  2.349134
H    -4.879442  1.371503  3.464182
H    -7.856734  -0.396000  3.900114
H    -6.473274  0.235727  4.717907
H    -8.721749  0.974600  2.083348
H    -7.541767  1.710658  1.062987
N    -1.517341  2.668221  4.138694
C    -0.290526  3.292494  3.656730
H    -1.728788  2.749481  5.129986
H    0.056302  3.996509  4.418722
H    -0.469302  3.861713  2.735594
H    0.497891  2.551191  3.472429
