36
Energy: -21202.1073793 eV PBE+vdW (tier 2 basis)
C    -0.573580  1.618635  -0.288804
C    -0.439912  1.512514  1.205023
O    0.554355  1.998497  1.797332
H    -1.500857  1.180212  -0.671977
H    0.281359  1.111135  -0.754297
H    -0.522898  2.674583  -0.581656
N    -1.428985  0.882843  1.863747
C    -1.383063  0.480120  3.262442
C    -1.963843  -0.955024  3.283778
O    -2.761086  -1.292212  2.408761
H    -2.153690  0.381775  1.341936
H    -0.333805  0.484913  3.587927
C    -2.262921  1.367423  4.178865
C    -1.927979  2.862960  4.275314
C    -0.656517  3.245806  5.045620
N    0.535707  3.048625  4.225570
C    1.707405  3.646642  4.385712
N    2.597735  3.597986  3.374287
N    2.026036  4.303735  5.517774
H    -2.259607  0.930691  5.189546
H    -3.296433  1.273255  3.814495
H    -2.767819  3.346257  4.793667
H    -1.896477  3.320388  3.274490
H    -0.587176  2.653318  5.974538
H    -0.724038  4.307073  5.333750
H    0.437067  2.535255  3.308970
H    3.582664  3.756087  3.539985
H    2.326275  3.116001  2.519517
H    2.823699  4.924453  5.551424
H    1.385126  4.327704  6.298707
N    -1.599185  -1.772079  4.301034
C    -0.606517  -1.528959  5.337598
H    -2.054573  -2.680131  4.277377
H    -0.922185  -0.748165  6.045061
H    0.369625  -1.255359  4.913647
H    -0.470905  -2.453959  5.905842
