36
Energy: -21201.3184179 eV PBE+vdW (tier 2 basis)
C    -0.794377  -2.051641  1.034079
C    -0.765731  -0.813758  1.902227
O    -0.095573  -0.734760  2.929251
H    0.234982  -2.362227  0.821402
H    -1.266196  -2.865550  1.600185
H    -1.335912  -1.918439  0.089809
N    -1.553606  0.231976  1.475978
C    -1.708772  1.444337  2.267186
C    -3.200225  1.828940  2.381205
O    -3.629460  2.863177  1.868938
H    -2.122662  0.117912  0.644223
H    -1.314585  1.181611  3.262496
C    -0.903506  2.626961  1.715497
C    0.606670  2.386543  1.749894
C    1.418960  3.562641  1.211890
N    1.246084  4.749001  2.068145
C    1.356333  6.019973  1.687409
N    0.932453  7.007112  2.497283
N    1.884985  6.333346  0.495097
H    -1.181843  3.513865  2.304391
H    -1.236048  2.843610  0.688818
H    0.944520  2.137551  2.769474
H    0.869443  1.509863  1.141538
H    1.073524  3.823994  0.200094
H    2.487284  3.301316  1.161030
H    1.033382  4.573740  3.045818
H    0.323331  6.815172  3.282123
H    1.219353  7.966359  2.351808
H    1.771356  7.257174  0.098459
H    2.378567  5.642499  -0.054599
N    -4.006242  0.973732  3.067639
C    -3.664738  -0.276565  3.730179
H    -4.982133  1.257090  3.065096
H    -2.654507  -0.240135  4.153665
H    -3.722051  -1.138912  3.049094
H    -4.365556  -0.441038  4.556016
