36
Energy: -21201.4157116 eV PBE+vdW (tier 2 basis)
C    -0.524489  -1.331713  -0.617606
C    -0.103017  -0.648434  0.667535
O    1.072977  -0.492332  0.964532
H    -1.433897  -1.938070  -0.535170
H    0.306638  -1.960199  -0.949229
H    -0.695597  -0.565709  -1.387724
N    -1.082019  -0.152331  1.515627
C    -2.535718  -0.261845  1.465519
C    -3.016409  -1.731723  1.395393
O    -3.769724  -2.138686  0.486340
H    -0.678780  0.329189  2.314172
H    -2.883290  0.118584  2.440866
C    -3.178870  0.603728  0.369530
C    -4.685678  0.800932  0.559526
C    -5.404417  1.406061  -0.648410
N    -5.134619  0.784886  -1.965606
C    -5.435182  -0.463039  -2.369401
N    -5.448758  -1.489637  -1.522047
N    -5.717919  -0.658991  -3.674323
H    -2.972980  0.148513  -0.609003
H    -2.664075  1.574719  0.375254
H    -5.169196  -0.144269  0.836161
H    -4.874080  1.484370  1.401937
H    -5.100473  2.452439  -0.776182
H    -6.490311  1.402003  -0.472254
H    -4.918241  1.434873  -2.712648
H    -5.830468  -2.371411  -1.845196
H    -4.809365  -1.553084  -0.694182
H    -5.666808  -1.582292  -4.085736
H    -6.026521  0.101112  -4.266765
N    -2.598475  -2.581714  2.351155
C    -1.744958  -2.327711  3.506936
H    -2.932778  -3.532602  2.217672
H    -2.021208  -1.390950  4.006241
H    -0.682780  -2.287318  3.233524
H    -1.895290  -3.140634  4.224224
