36
Energy: -21201.7606202 eV PBE+vdW (tier 2 basis)
C    -1.232839  3.342390  0.869562
C    -0.801559  1.999631  1.405348
O    0.361137  1.578051  1.229139
H    -1.103226  3.339591  -0.220397
H    -0.572742  4.120400  1.273366
H    -2.271911  3.600617  1.101903
N    -1.736560  1.298582  2.086295
C    -1.620116  -0.082877  2.595891
C    -2.953753  -0.381096  3.322334
O    -3.042585  -0.266805  4.540962
H    -2.637628  1.748551  2.211190
H    -1.509088  -0.749598  1.726249
C    -0.424099  -0.357293  3.529438
C    -0.115607  0.708852  4.600057
C    1.386005  0.965515  4.749660
N    1.904554  1.445902  3.467367
C    3.066793  2.030326  3.227378
N    4.030255  2.106790  4.163208
N    3.270552  2.581007  2.010508
H    0.450367  -0.522984  2.887132
H    -0.624664  -1.320019  4.017125
H    -0.527909  0.406325  5.568458
H    -0.606411  1.661236  4.352644
H    1.907946  0.038892  5.043410
H    1.563705  1.720899  5.531117
H    1.274472  1.362131  2.643215
H    4.832227  2.709796  4.038561
H    3.901232  1.683085  5.071842
H    4.210347  2.736952  1.669689
H    2.531795  2.475580  1.317376
N    -4.016967  -0.715155  2.538094
C    -4.027449  -1.035615  1.114973
H    -4.859888  -0.912280  3.071544
H    -5.067600  -1.057483  0.774375
H    -3.579020  -2.017616  0.903110
H    -3.506764  -0.271280  0.524878
