36
Energy: -21201.2767379 eV PBE+vdW (tier 2 basis)
C    0.069395  0.272389  0.694193
C    -0.263833  0.512489  2.142497
O    0.569597  0.861339  2.968161
H    -0.145921  -0.769262  0.425667
H    1.134567  0.472022  0.553375
H    -0.506153  0.923044  0.022536
N    -1.604335  0.420720  2.583812
C    -2.762799  -0.143356  1.881843
C    -2.539624  -1.651183  1.539810
O    -1.524078  -2.228076  1.909985
H    -1.587919  0.175426  3.573489
H    -3.562756  -0.137516  2.639474
C    -3.250274  0.713562  0.684026
C    -3.082274  2.230266  0.854431
C    -3.768567  2.816116  2.100517
N    -3.244125  4.129670  2.487909
C    -2.091440  4.312121  3.153498
N    -1.700600  5.564510  3.460890
N    -1.346831  3.267698  3.507961
H    -4.312738  0.485724  0.507963
H    -2.726480  0.413669  -0.233382
H    -3.470756  2.733423  -0.042437
H    -2.011421  2.474081  0.890578
H    -3.664038  2.150562  2.968090
H    -4.846306  2.939064  1.938336
H    -3.699667  4.952911  2.111669
H    -0.827385  5.729375  3.944180
H    -2.342632  6.343721  3.398836
H    -0.482383  3.385128  4.022820
H    -1.524471  2.319997  3.137881
N    -3.548338  -2.247491  0.853886
C    -3.534451  -3.661848  0.502700
H    -4.362484  -1.702445  0.596723
H    -4.368696  -4.191182  0.980951
H    -2.591325  -4.086314  0.858881
H    -3.601304  -3.793767  -0.584752
