36
Energy: -21201.6408416 eV PBE+vdW (tier 2 basis)
C    0.159656  -0.866437  0.109761
C    -0.269390  -0.354689  1.461267
O    0.367571  0.554603  2.041215
H    0.165804  -0.027318  -0.597709
H    -0.479346  -1.662890  -0.287068
H    1.190304  -1.237219  0.178766
N    -1.369035  -0.919358  2.002370
C    -2.040842  -0.576180  3.266211
C    -3.015736  0.629996  3.164696
O    -4.115032  0.558024  3.701052
H    -1.856540  -1.598417  1.427962
H    -2.695984  -1.429664  3.479580
C    -1.106628  -0.363726  4.475725
C    0.009047  -1.397078  4.608658
C    0.971702  -1.131057  5.770796
N    1.439061  0.263055  5.945546
C    2.296743  0.948947  5.172954
N    2.407280  0.711632  3.863514
N    3.067037  1.892154  5.752353
H    -1.755502  -0.380655  5.364216
H    -0.676660  0.644312  4.424900
H    0.581105  -1.465174  3.674610
H    -0.408818  -2.402196  4.772156
H    1.852194  -1.783510  5.682307
H    0.483113  -1.372846  6.722474
H    1.244444  0.679798  6.848760
H    1.583608  0.483254  3.268429
H    3.179063  1.144641  3.368479
H    3.493135  2.627653  5.202767
H    3.246049  1.887845  6.748517
N    -2.541005  1.717330  2.501908
C    -3.317576  2.938371  2.354921
H    -1.575310  1.706987  2.184473
H    -3.316430  3.270609  1.309422
H    -2.920842  3.745957  2.986375
H    -4.345017  2.725253  2.665682
