36
Energy: -21201.3343327 eV PBE+vdW (tier 2 basis)
C    -2.343830  -0.120728  0.433304
C    -1.720482  -0.290634  1.802210
O    -0.657256  -0.908028  1.964104
H    -3.388601  0.210872  0.456905
H    -2.272010  -1.064992  -0.118246
H    -1.756727  0.621705  -0.124923
N    -2.408037  0.273203  2.836280
C    -1.945317  0.455142  4.222657
C    -0.877174  1.575122  4.394236
O    -1.057369  2.451741  5.233174
H    -3.203796  0.848194  2.580823
H    -2.817181  0.851503  4.757928
C    -1.471059  -0.807918  4.969222
C    -2.425105  -2.013801  4.983200
C    -2.253074  -2.908176  3.757874
N    -2.938233  -4.197339  3.935355
C    -2.960795  -5.154982  3.008238
N    -2.286718  -4.985738  1.861837
N    -3.666860  -6.282935  3.204682
H    -1.313678  -0.477780  6.005253
H    -0.489948  -1.125147  4.592838
H    -3.472729  -1.686171  5.070317
H    -2.199144  -2.610521  5.881840
H    -1.178558  -3.082966  3.590478
H    -2.659367  -2.421387  2.861974
H    -3.337558  -4.399441  4.846264
H    -2.368348  -5.645429  1.099598
H    -1.670821  -4.191063  1.734250
H    -3.564776  -7.081906  2.592869
H    -4.261629  -6.395108  4.015041
N    0.216594  1.467531  3.597416
C    1.316979  2.416423  3.651816
H    0.283646  0.660351  2.978581
H    1.032347  3.228426  4.328017
H    1.522062  2.829886  2.655937
H    2.231260  1.941479  4.033678
