36
Energy: -21201.6509385 eV PBE+vdW (tier 2 basis)
C    1.711250  0.779249  1.412453
C    1.034458  -0.044506  2.482057
O    1.664321  -0.359390  3.515310
H    1.076981  0.996576  0.545968
H    2.039958  1.727180  1.857757
H    2.611055  0.251814  1.072050
N    -0.253032  -0.378717  2.234193
C    -1.285811  -1.079396  3.023617
C    -2.430485  -0.154884  3.529696
O    -3.583052  -0.536773  3.354226
H    -0.606895  -0.037408  1.346070
H    -1.819210  -1.708494  2.296875
C    -0.799524  -1.998564  4.152229
C    -0.016126  -3.230662  3.655681
C    1.020154  -3.724354  4.665975
N    2.026488  -2.674357  4.819918
C    3.193618  -2.765582  5.434489
N    3.527239  -3.843175  6.168248
N    4.077133  -1.752704  5.302668
H    -1.704638  -2.332547  4.677978
H    -0.218599  -1.423681  4.883409
H    0.508125  -3.006466  2.714226
H    -0.710847  -4.050268  3.431255
H    1.492752  -4.650805  4.303025
H    0.539586  -3.940891  5.635393
H    1.821316  -1.771718  4.331519
H    2.875645  -4.605959  6.291525
H    4.476836  -3.986676  6.484611
H    3.797698  -0.939022  4.762604
H    4.830364  -1.633946  5.967278
N    -2.147789  1.013225  4.170038
C    -0.874841  1.616046  4.531204
H    -2.991487  1.517117  4.430262
H    -1.031947  2.262348  5.401722
H    -0.457384  2.233569  3.720785
H    -0.131656  0.861908  4.811672
