36
Energy: -21201.029444 eV PBE+vdW (tier 2 basis)
C    -0.608582  -2.243340  -0.369930
C    -0.004991  -1.179690  0.526097
O    1.194639  -0.935813  0.524261
H    -1.462193  -2.776334  0.064157
H    0.182419  -2.955091  -0.622092
H    -0.940343  -1.769449  -1.306005
N    -0.843814  -0.436365  1.339696
C    -2.276958  -0.544630  1.589508
C    -2.717255  -1.959827  2.067824
O    -3.557772  -2.604787  1.433393
H    -0.330129  0.261347  1.870057
H    -2.474054  0.149006  2.422721
C    -3.149949  -0.120477  0.395228
C    -4.568427  0.291588  0.802199
C    -5.577473  0.282785  -0.345437
N    -5.249718  1.203343  -1.449289
C    -4.748886  0.880756  -2.643580
N    -4.236992  -0.334124  -2.881345
N    -4.763601  1.787101  -3.638993
H    -3.203537  -0.993837  -0.273306
H    -2.635482  0.694464  -0.132495
H    -4.960103  -0.414059  1.548635
H    -4.555778  1.284502  1.279270
H    -6.573198  0.571799  0.016859
H    -5.680772  -0.727443  -0.763729
H    -5.414485  2.191076  -1.281554
H    -4.089585  -0.661229  -3.827471
H    -3.997275  -0.956956  -2.118783
H    -4.168408  1.682440  -4.450696
H    -5.345320  2.613486  -3.589410
N    -2.145159  -2.443325  3.196887
C    -1.150023  -1.823693  4.062126
H    -2.451331  -3.384002  3.429219
H    -1.389966  -0.770250  4.256473
H    -0.136338  -1.884874  3.643239
H    -1.162313  -2.342643  5.025983
