36
Energy: -21201.4289594 eV PBE+vdW (tier 2 basis)
C    -1.374856  -0.689898  2.092508
C    -2.457011  -1.477026  2.786245
O    -2.376951  -1.762301  3.993308
H    -1.759241  0.095609  1.430091
H    -0.716790  -0.257923  2.850851
H    -0.779658  -1.365146  1.461886
N    -3.528517  -1.925885  2.054960
C    -4.127564  -1.318058  0.853432
C    -3.141215  -1.215014  -0.344328
O    -3.001909  -0.162133  -0.958349
H    -4.143617  -2.514853  2.611631
H    -4.912235  -2.023952  0.536789
C    -4.782553  0.041793  1.152016
C    -5.950580  -0.067579  2.144367
C    -6.206018  1.183622  2.998969
N    -5.024124  1.693973  3.723967
C    -4.145253  0.964364  4.426720
N    -2.899840  1.433328  4.615256
N    -4.464875  -0.217753  4.966344
H    -5.110322  0.486931  0.204792
H    -4.003604  0.717319  1.534944
H    -5.804166  -0.932032  2.807438
H    -6.887994  -0.272296  1.607501
H    -7.028938  1.001498  3.706701
H    -6.528222  2.016727  2.362358
H    -4.782694  2.666966  3.572414
H    -2.274648  0.952175  5.251303
H    -2.507265  2.144804  4.012642
H    -3.743898  -0.960812  4.946419
H    -5.435033  -0.503386  4.988457
N    -2.498765  -2.371557  -0.641946
C    -1.560122  -2.495216  -1.747019
H    -2.672766  -3.181840  -0.057342
H    -1.912797  -3.233981  -2.478133
H    -0.567565  -2.796771  -1.387066
H    -1.485159  -1.518717  -2.234862
