36
Energy: -21200.8849282 eV PBE+vdW (tier 2 basis)
C    -0.377537  -0.766312  0.204551
C    -0.338892  -0.618799  1.709383
O    0.695651  -0.732414  2.355267
H    0.643072  -0.648161  -0.168732
H    -1.040832  -0.054757  -0.299858
H    -0.724523  -1.775611  -0.059819
N    -1.526394  -0.390274  2.389609
C    -2.879565  -0.148636  1.901989
C    -3.367316  -1.193054  0.859201
O    -3.789226  -0.833792  -0.239457
H    -1.376535  -0.352192  3.393585
H    -3.526046  -0.285370  2.786728
C    -3.069008  1.282293  1.357121
C    -4.526625  1.750849  1.237881
C    -5.190277  2.165874  2.550307
N    -4.569054  3.396069  3.073184
C    -4.742960  3.902493  4.293208
N    -3.995280  4.939370  4.710926
N    -5.651513  3.369995  5.123849
H    -2.615713  1.334631  0.360148
H    -2.485771  1.955065  2.005357
H    -5.131622  0.957045  0.780998
H    -4.590254  2.595636  0.533050
H    -5.085416  1.378361  3.313185
H    -6.264737  2.341703  2.381808
H    -4.011613  3.934985  2.417185
H    -4.255500  5.482456  5.524103
H    -3.190137  5.251435  4.183332
H    -5.689171  3.633135  6.100085
H    -6.347921  2.718722  4.785948
N    -3.333714  -2.503608  1.220701
C    -2.876920  -3.113042  2.461777
H    -3.645990  -3.123992  0.479003
H    -3.298599  -4.121847  2.523912
H    -3.233711  -2.554829  3.337183
H    -1.782184  -3.186392  2.518569
