36
Energy: -21202.1267214 eV PBE+vdW (tier 2 basis)
C    0.041645  2.577319  1.547330
C    -0.263404  1.128059  1.823246
O    0.338501  0.206431  1.227989
H    -0.549928  3.269380  2.156036
H    -0.149329  2.779814  0.485650
H    1.108171  2.762951  1.726901
N    -1.218784  0.872377  2.734208
C    -1.745809  -0.450395  3.025939
C    -3.239839  -0.222873  3.362908
O    -3.608055  0.872853  3.785733
H    -1.793652  1.622167  3.128279
H    -1.638356  -1.067282  2.121192
C    -1.047642  -1.120503  4.235719
C    0.470581  -1.302990  4.115545
C    0.887669  -2.335656  3.062478
N    2.341901  -2.493765  2.966708
C    3.147554  -1.939103  2.047922
N    4.445341  -2.320650  2.030042
N    2.709528  -1.038700  1.174648
H    -1.529306  -2.094257  4.417956
H    -1.256392  -0.506055  5.123298
H    0.856308  -1.617075  5.097660
H    0.948888  -0.338479  3.892241
H    0.513578  -2.056592  2.070771
H    0.472018  -3.324404  3.304899
H    2.801570  -2.981410  3.728381
H    4.740082  -3.191768  2.450627
H    5.120925  -1.828835  1.461097
H    3.294858  -0.798852  0.384214
H    1.786530  -0.547549  1.241968
N    -4.049447  -1.293827  3.200129
C    -5.469561  -1.272864  3.523737
H    -3.661577  -2.134659  2.788201
H    -5.713797  -2.061882  4.246137
H    -6.078550  -1.410047  2.620867
H    -5.699218  -0.297877  3.963337
