36
Energy: -21201.3845535 eV PBE+vdW (tier 2 basis)
C    -0.782352  0.802509  0.173228
C    -0.412046  0.592756  1.623960
O    0.755522  0.687070  2.022664
H    -0.169350  0.137041  -0.446706
H    -0.525326  1.831527  -0.108933
H    -1.841275  0.626265  -0.048587
N    -1.445666  0.301984  2.469270
C    -1.345810  0.042689  3.908501
C    -1.026464  1.247314  4.836947
O    -1.574515  1.290456  5.939060
H    -2.382497  0.345487  2.086627
H    -2.356967  -0.248117  4.222682
C    -0.382173  -1.106766  4.264072
C    -0.769456  -2.455838  3.658550
C    0.141201  -3.594819  4.115842
N    0.011895  -3.806006  5.567864
C    0.971186  -4.206897  6.400889
N    0.803415  -4.083061  7.729553
N    2.111908  -4.732530  5.930630
H    -0.379418  -1.161522  5.363340
H    0.634998  -0.835959  3.948270
H    -0.713180  -2.414715  2.561694
H    -1.817178  -2.709526  3.896491
H    1.189121  -3.337473  3.902199
H    -0.103725  -4.528255  3.586778
H    -0.897498  -3.606763  5.974803
H    1.379983  -4.597842  8.382669
H    0.083255  -3.483989  8.113207
H    2.926732  -4.828918  6.522847
H    2.195599  -5.021737  4.964932
N    -0.125160  2.142778  4.376815
C    0.294318  3.292463  5.160624
H    0.383626  1.898728  3.523906
H    0.392500  4.171097  4.512253
H    1.257746  3.112852  5.660379
H    -0.462654  3.487243  5.926666
