36
Energy: -21201.8656114 eV PBE+vdW (tier 2 basis)
C    -2.125463  2.917215  1.851406
C    -1.999314  1.415094  1.917561
O    -1.185869  0.819797  1.197531
H    -1.254370  3.357205  2.356248
H    -2.091170  3.231730  0.802940
H    -3.035600  3.308068  2.320623
N    -2.835403  0.799664  2.801947
C    -2.855327  -0.601044  3.220914
C    -1.524266  -0.996434  3.911655
O    -0.525882  -0.270189  3.866856
H    -3.411818  1.423781  3.353261
H    -3.595564  -0.617035  4.036940
C    -3.457099  -1.585123  2.172510
C    -2.857216  -1.784082  0.770084
C    -1.536506  -2.551391  0.657895
N    -0.434934  -1.743357  1.167800
C    0.762410  -2.189772  1.518223
N    1.533669  -1.416959  2.298890
N    1.188423  -3.414523  1.133607
H    -4.488979  -1.236232  2.022398
H    -3.552708  -2.568026  2.654914
H    -2.762347  -0.824550  0.245798
H    -3.599677  -2.362992  0.201793
H    -1.374689  -2.803964  -0.403864
H    -1.586151  -3.498991  1.219543
H    -0.643560  -0.716299  1.273946
H    2.518895  -1.604506  2.423402
H    1.064131  -0.727645  2.896210
H    0.800096  -3.851996  0.308042
H    2.065080  -3.782908  1.477854
N    -1.501417  -2.158260  4.618099
C    -2.589385  -3.049270  5.004912
H    -0.605602  -2.309230  5.074057
H    -2.736706  -3.867746  4.286288
H    -3.534553  -2.505110  5.117903
H    -2.348833  -3.490117  5.978259
