36
Energy: -21202.1068744 eV PBE+vdW (tier 2 basis)
C    -0.252106  2.934272  0.630347
C    -0.324786  2.391491  2.036140
O    0.238642  2.955836  2.983001
H    -0.889747  2.404304  -0.086438
H    0.789742  2.872430  0.288978
H    -0.525034  3.995745  0.645388
N    -1.053095  1.245218  2.200168
C    -1.120895  0.407302  3.404907
C    -1.847999  1.032917  4.618455
O    -2.643496  0.312231  5.276268
H    -1.511491  0.873477  1.377082
H    -1.772104  -0.427520  3.115680
C    0.275113  -0.154978  3.781285
C    0.366338  -1.046940  5.030091
C    -0.383984  -2.386006  4.995670
N    -1.818333  -2.197411  5.215616
C    -2.689015  -3.149843  5.499823
N    -3.941030  -2.802318  5.871415
N    -2.366333  -4.457494  5.439716
H    0.956561  0.694387  3.920871
H    0.642781  -0.710850  2.905038
H    0.065602  -0.492126  5.932218
H    1.429192  -1.285156  5.173759
H    0.020659  -3.035771  5.788592
H    -0.208328  -2.889320  4.028558
H    -2.186581  -1.197753  5.223822
H    -4.701180  -3.466594  5.808559
H    -4.187130  -1.818472  5.889076
H    -2.961623  -5.157092  5.863191
H    -1.429104  -4.741729  5.189706
N    -1.550868  2.287365  4.940149
C    -2.132641  2.990133  6.073104
H    -0.838139  2.749753  4.345708
H    -2.899296  3.702191  5.738588
H    -1.347080  3.543473  6.600080
H    -2.593212  2.266845  6.752388
