36
Energy: -21201.6362082 eV PBE+vdW (tier 2 basis)
C    -0.619083  0.980763  -1.107613
C    0.013134  0.712787  0.234181
O    1.255216  0.627054  0.346954
H    -0.965376  0.042944  -1.565978
H    -1.474301  1.664248  -1.046620
H    0.146333  1.407785  -1.761594
N    -0.774429  0.537286  1.318750
C    -2.187044  0.208032  1.379978
C    -2.743629  0.952209  2.615076
O    -2.018239  1.073820  3.602977
H    -0.324658  0.551166  2.235988
H    -2.671381  0.523983  0.448403
C    -2.410064  -1.306882  1.617782
C    -1.772602  -2.295018  0.627352
C    -0.247105  -2.507200  0.674903
N    0.247792  -2.748752  2.034432
C    1.383832  -2.287771  2.587927
N    1.835302  -2.909162  3.700822
N    2.059976  -1.255319  2.095198
H    -3.495103  -1.487984  1.622265
H    -2.067955  -1.529178  2.640628
H    -2.028591  -2.030914  -0.409894
H    -2.251992  -3.272016  0.797564
H    0.306835  -1.663392  0.259735
H    0.002070  -3.378515  0.049364
H    -0.247937  -3.451443  2.573769
H    1.513724  -3.831659  3.960991
H    2.531595  -2.474805  4.291599
H    1.696634  -0.537959  1.403364
H    2.979843  -1.064992  2.474941
N    -4.025228  1.385408  2.577225
C    -4.948221  1.352352  1.449704
H    -4.331991  1.836501  3.434728
H    -5.130444  0.328590  1.094676
H    -4.599333  1.969581  0.609515
H    -5.908457  1.757939  1.781908
