36
Energy: -21201.3419138 eV PBE+vdW (tier 2 basis)
C    -0.054638  -1.779520  1.088894
C    0.146531  -0.383410  1.641406
O    1.086885  0.317822  1.294702
H    0.922219  -2.273570  1.052714
H    -0.405806  -1.686210  0.051971
H    -0.761119  -2.413667  1.635039
N    -0.765918  0.119011  2.556949
C    -1.912407  -0.521892  3.187862
C    -1.550856  -1.832388  3.924024
O    -2.286459  -2.840279  3.865493
H    -0.553668  1.077487  2.818265
H    -2.206898  0.165929  4.000470
C    -3.094065  -0.606710  2.184332
C    -4.399528  -1.317467  2.573616
C    -4.940222  -0.985232  3.969487
N    -6.033908  -1.873514  4.377830
C    -5.861461  -3.102583  4.887732
N    -4.647879  -3.637099  5.006613
N    -6.946785  -3.790442  5.300558
H    -2.726797  -1.081759  1.265875
H    -3.305136  0.437443  1.910538
H    -4.251323  -2.400171  2.498452
H    -5.164108  -1.053787  1.827238
H    -5.327841  0.040588  4.019456
H    -4.160702  -1.063003  4.739047
H    -6.975372  -1.619259  4.100460
H    -4.533140  -4.491589  5.536983
H    -3.797761  -3.263140  4.534838
H    -6.882472  -4.769741  5.543293
H    -7.833982  -3.330214  5.454186
N    -0.433788  -1.866561  4.679421
C    0.529346  -0.819981  5.017059
H    -0.283761  -2.778795  5.102533
H    1.256597  -0.646251  4.214683
H    1.067039  -1.142044  5.914873
H    0.026393  0.125165  5.251966
