36
Energy: -21201.7079568 eV PBE+vdW (tier 2 basis)
C    -1.357840  0.353442  0.013465
C    -0.392636  0.406418  1.179286
O    0.583149  1.145305  1.203060
H    -2.389109  0.562481  0.331615
H    -1.354938  -0.628973  -0.478496
H    -1.051222  1.108843  -0.714199
N    -0.648665  -0.414590  2.263142
C    -1.686105  -1.415846  2.440542
C    -1.839398  -1.630752  3.951341
O    -0.840038  -1.690271  4.693751
H    -0.044613  -0.242821  3.063192
H    -2.635507  -1.030226  2.035854
C    -1.414263  -2.776349  1.729673
C    -0.305523  -3.662897  2.313906
C    1.110317  -3.085082  2.155362
N    2.115879  -3.783563  2.959564
C    2.470184  -3.436733  4.205043
N    3.557334  -4.019685  4.754105
N    1.777241  -2.532966  4.895179
H    -1.205612  -2.559528  0.671727
H    -2.353052  -3.349764  1.739362
H    -0.347002  -4.643462  1.816669
H    -0.503168  -3.856116  3.378083
H    1.148759  -2.025686  2.428320
H    1.436738  -3.140357  1.108576
H    2.532622  -4.626736  2.580456
H    3.759756  -3.916145  5.739418
H    4.269607  -4.445409  4.175578
H    2.171348  -2.152309  5.746573
H    0.806287  -2.241446  4.664579
N    -3.094638  -1.786008  4.403654
C    -3.434607  -2.043091  5.796818
H    -3.853158  -1.659258  3.742298
H    -4.089740  -2.919287  5.871194
H    -3.942743  -1.176104  6.238189
H    -2.508972  -2.230730  6.347423
