36
Energy: -21201.9469054 eV PBE+vdW (tier 2 basis)
C    -1.339910  1.603705  0.717658
C    -1.585998  0.421057  1.621510
O    -1.358455  -0.733419  1.230593
H    -1.849767  1.429668  -0.237353
H    -0.264391  1.662759  0.506424
H    -1.672611  2.560834  1.134856
N    -2.085270  0.712553  2.853671
C    -2.373936  -0.224006  3.935962
C    -1.066250  -0.670084  4.636113
O    0.005511  -0.813904  4.042908
H    -2.189550  1.695746  3.073659
H    -2.911742  0.384074  4.676153
C    -3.360025  -1.374462  3.508466
C    -3.037954  -2.836463  3.891946
C    -2.400487  -3.691284  2.784988
N    -1.113422  -3.160146  2.356689
C    0.077672  -3.725361  2.501951
N    1.157342  -2.930562  2.539116
N    0.219133  -5.065108  2.625516
H    -3.497024  -1.305508  2.422725
H    -4.333248  -1.116490  3.942675
H    -3.979986  -3.334881  4.161281
H    -2.407593  -2.884450  4.791698
H    -3.070853  -3.737121  1.913431
H    -2.274239  -4.717081  3.153995
H    -1.130995  -2.171453  2.005257
H    2.089521  -3.291455  2.390185
H    1.023274  -1.969842  2.864037
H    1.115077  -5.462726  2.873387
H    -0.472593  -5.690929  2.234643
N    -1.186219  -0.876166  5.968201
C    -0.066112  -1.312322  6.792214
H    -2.072304  -0.684227  6.420167
H    -0.382947  -1.326142  7.838899
H    0.783050  -0.627005  6.680985
H    0.264518  -2.319521  6.505662
