36
Energy: -21201.6709493 eV PBE+vdW (tier 2 basis)
C    1.578586  0.628553  -0.072996
C    0.909450  0.113288  1.180949
O    1.020800  -1.031016  1.588354
H    2.482615  0.045611  -0.273313
H    1.816376  1.699485  -0.026642
H    0.892475  0.482358  -0.920220
N    0.163896  1.072480  1.888380
C    -0.903475  0.596022  2.779605
C    -2.182663  1.336921  2.336383
O    -2.091597  2.399948  1.712992
H    -0.184166  1.871758  1.340121
H    -0.995219  -0.487878  2.612644
C    -0.623062  0.805886  4.287294
C    -0.804729  2.228181  4.836340
C    0.241951  3.275929  4.440690
N    1.557957  3.048887  5.056248
C    2.649503  2.551641  4.463842
N    2.591010  2.034588  3.237047
N    3.825810  2.590467  5.122680
H    0.382864  0.414121  4.503958
H    -1.308096  0.148517  4.842049
H    -1.783946  2.625442  4.530194
H    -0.840051  2.177058  5.935676
H    -0.092045  4.268250  4.772069
H    0.371692  3.344608  3.354907
H    1.634703  3.252959  6.047220
H    3.444887  1.781072  2.756704
H    1.691430  1.751326  2.799841
H    4.622280  2.056777  4.801289
H    3.956142  3.177530  5.935839
N    -3.350116  0.776041  2.717928
C    -4.652320  1.354871  2.414113
H    -3.321822  -0.139457  3.153392
H    -5.194658  0.738831  1.685007
H    -4.489977  2.348585  1.986848
H    -5.254752  1.443480  3.326495
