36
Energy: -21202.0912332 eV PBE+vdW (tier 2 basis)
C    -2.315673  -1.926388  0.194781
C    -1.792646  -0.979187  1.245116
O    -0.647203  -1.060071  1.701249
H    -2.197352  -2.956020  0.552922
H    -1.696866  -1.823665  -0.705794
H    -3.364479  -1.754004  -0.073546
N    -2.656107  -0.004220  1.671939
C    -2.229750  1.039290  2.603949
C    -2.306070  0.504399  4.054392
O    -3.209412  0.822121  4.858814
H    -3.610718  0.001611  1.330575
H    -1.165326  1.214937  2.382039
C    -3.007906  2.333476  2.350001
C    -2.416554  3.590632  3.016990
C    -2.940288  3.960176  4.409970
N    -4.348340  4.378350  4.405445
C    -5.393401  3.701736  4.906218
N    -6.574148  4.351956  5.025394
N    -5.292442  2.425525  5.256681
H    -4.066783  2.204462  2.625066
H    -2.995372  2.487175  1.262119
H    -2.582518  4.452529  2.353334
H    -1.322723  3.493021  3.093466
H    -2.356389  4.803301  4.804832
H    -2.832032  3.133899  5.119966
H    -4.558026  5.269793  3.968477
H    -7.417455  3.847399  5.263207
H    -6.610607  5.361476  5.075510
H    -6.026689  2.006633  5.813619
H    -4.459139  1.826523  5.015322
N    -1.325700  -0.349124  4.366572
C    -1.256041  -1.053239  5.637779
H    -0.726063  -0.644486  3.583882
H    -1.534422  -0.376643  6.452528
H    -0.231168  -1.404497  5.790902
H    -1.936194  -1.916875  5.657285
