36
Energy: -21202.0044004 eV PBE+vdW (tier 2 basis)
C    1.637566  0.868834  2.058923
C    0.806931  1.098994  0.825220
O    1.287626  1.616222  -0.193310
H    1.050643  0.852380  2.984356
H    2.391326  1.660446  2.115059
H    2.171825  -0.087170  1.961426
N    -0.518205  0.744885  0.852147
C    -1.104790  -0.336665  1.634256
C    -0.223996  -1.602582  1.543976
O    0.343003  -1.902986  0.480811
H    -0.992266  0.958727  -0.020666
H    -1.188870  -0.019456  2.686286
C    -2.538930  -0.656566  1.128816
C    -2.716059  -1.634697  -0.052690
C    -2.419943  -1.154065  -1.479210
N    -1.012912  -0.797929  -1.679523
C    -0.546395  -0.117004  -2.731989
N    -1.284440  -0.028850  -3.858271
N    0.637760  0.497959  -2.644981
H    -3.040518  0.301632  0.918749
H    -3.081659  -1.091622  1.978633
H    -3.775449  -1.928305  -0.060268
H    -2.158770  -2.563408  0.137400
H    -3.043762  -0.278298  -1.721400
H    -2.716006  -1.966998  -2.163801
H    -0.338537  -1.132543  -0.957363
H    -2.002376  -0.710788  -4.065069
H    -1.021438  0.608044  -4.598675
H    1.075719  0.863767  -3.481486
H    0.958752  0.875228  -1.725958
N    -0.158745  -2.350717  2.659676
C    0.570185  -3.609479  2.750359
H    -0.612157  -1.997845  3.495860
H    -0.096900  -4.415119  3.080550
H    1.404548  -3.523139  3.457997
H    0.965032  -3.846950  1.758603
