36
Energy: -21202.0508793 eV PBE+vdW (tier 2 basis)
C    1.905261  0.111808  2.561482
C    0.816706  -0.198333  3.556652
O    1.078870  -0.561816  4.725742
H    2.502559  -0.795662  2.403884
H    2.577193  0.871397  2.981507
H    1.525997  0.461540  1.595380
N    -0.450438  -0.052222  3.133207
C    -1.627538  -0.488742  3.869996
C    -2.640861  -0.895846  2.769102
O    -2.534165  -0.424353  1.636180
H    -0.665318  0.144753  2.150094
H    -1.346335  -1.359525  4.482784
C    -2.254500  0.592063  4.781930
C    -1.462755  0.942681  6.054462
C    -0.411806  2.044277  5.864535
N    0.328443  2.337927  7.095796
C    1.493576  1.789708  7.475833
N    2.054817  2.230595  8.625529
N    2.096797  0.844901  6.763127
H    -3.242038  0.221184  5.090298
H    -2.449768  1.492061  4.177960
H    -0.977023  0.039575  6.450712
H    -2.172448  1.283719  6.823555
H    -0.892113  2.981560  5.551770
H    0.314176  1.790321  5.086209
H    -0.154531  2.889879  7.796416
H    2.883904  1.787486  8.997417
H    1.791025  3.120762  9.026551
H    3.038722  0.571563  7.014472
H    1.660944  0.323607  5.961553
N    -3.619164  -1.744385  3.155825
C    -4.681570  -2.192156  2.265452
H    -3.583963  -2.127895  4.093510
H    -4.561399  -1.672527  1.310466
H    -5.666118  -1.952494  2.686475
H    -4.617141  -3.274410  2.094135
