36
Energy: -21201.7067467 eV PBE+vdW (tier 2 basis)
C    -0.316568  -0.882198  2.843494
C    -1.314498  -1.458949  3.814840
O    -0.958254  -2.055905  4.837880
H    -0.372586  -1.377089  1.863987
H    -0.488516  0.191035  2.682581
H    0.685863  -1.029036  3.252949
N    -2.661732  -1.365431  3.532554
C    -3.306339  -0.771600  2.364751
C    -4.357118  0.214162  2.931812
O    -4.799069  0.009247  4.064425
H    -3.286984  -1.331199  4.350869
H    -2.554901  -0.256900  1.754183
C    -4.044589  -1.831053  1.501241
C    -3.196432  -3.018458  0.983481
C    -3.342938  -4.339208  1.754436
N    -2.865218  -4.192440  3.126418
C    -2.410502  -5.139095  3.947919
N    -1.760995  -4.768907  5.057052
N    -2.584310  -6.442551  3.655641
H    -4.477519  -1.305610  0.639419
H    -4.903670  -2.203711  2.081315
H    -2.130837  -2.748142  0.933476
H    -3.494735  -3.236270  -0.050652
H    -2.756259  -5.119154  1.246152
H    -4.400432  -4.653928  1.747258
H    -2.807127  -3.220163  3.459828
H    -1.565078  -5.431117  5.795600
H    -1.468412  -3.783492  5.170987
H    -3.251733  -6.734350  2.954931
H    -2.152049  -7.163757  4.217089
N    -4.780731  1.237354  2.155241
C    -4.375759  1.589591  0.802447
H    -5.518718  1.789729  2.585204
H    -4.977432  1.074924  0.038486
H    -3.317863  1.358476  0.633717
H    -4.498916  2.669194  0.665546
