36
Energy: -21201.6631719 eV PBE+vdW (tier 2 basis)
C    -0.184612  0.957531  2.412860
C    -1.014206  -0.142987  3.043882
O    -0.690668  -0.679455  4.090607
H    0.260147  1.550698  3.217655
H    -0.730414  1.616703  1.728997
H    0.637787  0.494105  1.849776
N    -2.137098  -0.606691  2.353970
C    -2.898576  0.080339  1.312374
C    -2.116919  0.150854  -0.018919
O    -2.320882  1.050103  -0.857594
H    -2.646631  -1.292903  2.906510
H    -3.734311  -0.602823  1.084454
C    -3.531002  1.425519  1.763035
C    -4.967763  1.679212  1.272401
C    -5.138452  2.365640  -0.086940
N    -4.777687  3.789932  -0.052952
C    -3.742374  4.383158  -0.663705
N    -3.721235  5.733077  -0.724211
N    -2.746687  3.676673  -1.188278
H    -2.876624  2.270821  1.505680
H    -3.554491  1.390947  2.859541
H    -5.497448  2.281931  2.026377
H    -5.518388  0.726364  1.230396
H    -6.191422  2.309138  -0.396743
H    -4.543686  1.875392  -0.864931
H    -5.380941  4.394921  0.494851
H    -2.885857  6.226512  -1.008604
H    -4.563490  6.278267  -0.597962
H    -2.090968  4.128339  -1.812851
H    -2.620668  2.655869  -1.000743
N    -1.267102  -0.861956  -0.232170
C    -0.478485  -1.030704  -1.441626
H    -1.150483  -1.515750  0.538378
H    -0.578606  -2.057187  -1.813503
H    0.583400  -0.825184  -1.249615
H    -0.846613  -0.333642  -2.199612
