36
Energy: -21201.6603469 eV PBE+vdW (tier 2 basis)
C    -0.169788  -0.439344  -0.230791
C    -0.075209  0.167372  1.150616
O    1.008550  0.586856  1.591241
H    0.464480  -1.334456  -0.268682
H    -1.186990  -0.714721  -0.531778
H    0.238485  0.274572  -0.956899
N    -1.239150  0.219521  1.852504
C    -1.497548  0.758755  3.196059
C    -1.966817  2.239887  3.232188
O    -2.292134  2.721078  4.312621
H    -2.048282  -0.178200  1.387829
H    -2.362544  0.188912  3.569143
C    -0.355938  0.602149  4.214871
C    0.207041  -0.811080  4.326805
C    1.338617  -0.946116  5.353763
N    2.351652  0.131399  5.374319
C    3.309089  0.375501  4.467100
N    3.161506  0.029787  3.185940
N    4.447992  0.969697  4.878076
H    -0.777542  0.932541  5.174256
H    0.440588  1.313388  3.964247
H    0.559213  -1.167722  3.350378
H    -0.579293  -1.517246  4.635544
H    1.857589  -1.905446  5.216719
H    0.922148  -0.944139  6.368229
H    2.427535  0.652218  6.240348
H    3.972627  0.091959  2.580946
H    2.246113  0.108436  2.698951
H    4.721866  0.966473  5.852282
H    5.052343  1.447778  4.221990
N    -1.990983  2.904049  2.051679
C    -2.407384  4.293355  1.942934
H    -1.673449  2.419578  1.221320
H    -3.217751  4.398842  1.210635
H    -1.568192  4.935498  1.643516
H    -2.766946  4.612463  2.926140
