36
Energy: -21202.0772964 eV PBE+vdW (tier 2 basis)
C    -2.529424  0.855026  0.377950
C    -2.113093  1.056411  1.814327
O    -1.138533  1.757472  2.118162
H    -2.631903  1.835268  -0.102091
H    -3.462185  0.292218  0.258003
H    -1.724670  0.321206  -0.144418
N    -2.877739  0.424395  2.755011
C    -2.593759  0.310871  4.190422
C    -2.675963  1.616367  5.011756
O    -3.234211  1.595126  6.133208
H    -3.683974  -0.089424  2.420681
H    -3.422259  -0.288306  4.587758
C    -1.256815  -0.432215  4.452800
C    -0.869801  -0.548575  5.932054
C    -1.846971  -1.398329  6.757883
N    -1.620356  -1.309655  8.201429
C    -2.245969  -0.457223  9.029419
N    -2.031953  -0.585577  10.358262
N    -3.060136  0.485903  8.569385
H    -0.456145  0.095713  3.919728
H    -1.336192  -1.430507  3.995851
H    -0.793867  0.453627  6.379216
H    0.135713  -0.989004  5.998823
H    -1.767459  -2.458303  6.480268
H    -2.888032  -1.103714  6.577732
H    -0.848995  -1.840978  8.590084
H    -2.372016  0.112203  11.006002
H    -1.687376  -1.451895  10.750217
H    -3.637352  0.998551  9.224595
H    -3.090744  0.809620  7.571482
N    -2.102539  2.704899  4.501891
C    -2.093521  3.985751  5.191348
H    -1.609769  2.583731  3.599557
H    -1.790743  4.761585  4.482196
H    -1.389516  3.981927  6.035640
H    -3.092732  4.216835  5.578367
