36
Energy: -21201.4941901 eV PBE+vdW (tier 2 basis)
C    0.254682  1.192355  0.988701
C    -0.388130  -0.127744  1.331553
O    -0.234442  -1.126600  0.609265
H    0.096265  1.969238  1.745104
H    -0.150151  1.540219  0.029469
H    1.331941  1.041627  0.849810
N    -1.137943  -0.156989  2.469989
C    -1.961925  -1.309259  2.832949
C    -3.205063  -0.916522  3.653132
O    -4.293513  -1.410837  3.384424
H    -1.342380  0.733068  2.912215
H    -2.371569  -1.721423  1.900753
C    -1.157273  -2.428666  3.540293
C    -1.893930  -3.778799  3.472741
C    -1.014758  -5.037045  3.435505
N    0.136395  -5.016562  2.504612
C    0.293246  -4.278668  1.396223
N    1.538126  -3.974363  0.984648
N    -0.732621  -3.839578  0.656219
H    -0.949325  -2.151262  4.583908
H    -0.179852  -2.482946  3.044630
H    -2.589302  -3.771548  2.621235
H    -2.553188  -3.900934  4.343031
H    -1.644393  -5.912442  3.218772
H    -0.568485  -5.206545  4.424485
H    0.958554  -5.521350  2.819001
H    1.666450  -3.542743  0.077084
H    2.318646  -3.962983  1.628133
H    -1.654925  -4.207310  0.852119
H    -0.681003  -2.845031  0.363831
N    -3.004312  -0.029222  4.670686
C    -4.089780  0.379158  5.555589
H    -2.056056  0.177966  4.965968
H    -3.899506  1.392569  5.924611
H    -4.198634  -0.303527  6.410303
H    -5.023696  0.367659  4.985618
