36
Energy: -21202.0457511 eV PBE+vdW (tier 2 basis)
C    1.957634  -0.083338  2.606776
C    0.822410  -0.321724  3.569067
O    1.026756  -0.684457  4.749876
H    2.656239  0.643827  3.040419
H    1.629102  0.274421  1.625166
H    2.509121  -1.023819  2.478430
N    -0.420594  -0.112332  3.102835
C    -1.642995  -0.476772  3.803920
C    -2.638437  -0.838361  2.671586
O    -2.464759  -0.398477  1.533757
H    -0.592782  0.080529  2.110153
H    -1.431239  -1.356196  4.432065
C    -2.239167  0.645063  4.686491
C    -1.471149  0.963850  5.981870
C    -0.357694  2.006736  5.818515
N    0.357966  2.270959  7.070822
C    1.482878  1.669150  7.489057
N    2.031525  2.091341  8.651782
N    2.059215  0.689955  6.800959
H    -3.255149  0.331731  4.964914
H    -2.365013  1.548871  4.069838
H    -1.046847  0.039692  6.399449
H    -2.185937  1.348348  6.725301
H    -0.777479  2.965464  5.484338
H    0.377922  1.708212  5.065476
H    -0.117541  2.851821  7.752913
H    2.824753  1.609420  9.052465
H    1.800606  2.996606  9.039075
H    2.978810  0.372839  7.081908
H    1.620662  0.182580  5.991787
N    -3.683467  -1.618253  3.018790
C    -4.718371  -1.993528  2.061276
H    -3.735190  -1.986495  3.960696
H    -5.323260  -1.123715  1.773920
H    -5.366112  -2.745816  2.520540
H    -4.264170  -2.410818  1.154715
