36
Energy: -21201.5553272 eV PBE+vdW (tier 2 basis)
C    0.130040  0.692074  1.562180
C    0.201544  -0.071926  2.868713
O    1.120375  0.103716  3.652772
H    -0.728879  0.460394  0.925972
H    1.043733  0.463600  0.998364
H    0.155562  1.766480  1.780034
N    -0.744999  -1.062470  3.141212
C    -2.126634  -1.218714  2.685257
C    -2.260581  -1.515578  1.173189
O    -3.280902  -1.209584  0.523374
H    -0.550196  -1.475658  4.051984
H    -2.441831  -2.182533  3.122465
C    -3.141183  -0.209734  3.274784
C    -3.010811  1.301472  3.027995
C    -3.313050  1.801105  1.604156
N    -4.455737  1.130212  0.991318
C    -5.706518  1.552606  0.935258
N    -6.611316  0.850249  0.219330
N    -6.120493  2.674592  1.557995
H    -3.092880  -0.353120  4.363584
H    -4.146781  -0.548831  2.985126
H    -2.011554  1.661717  3.311476
H    -3.705456  1.788832  3.729365
H    -2.465224  1.609817  0.935747
H    -3.458736  2.890134  1.595007
H    -4.214483  0.147644  0.715202
H    -7.601522  0.949301  0.401727
H    -6.315010  0.023953  -0.285189
H    -6.969458  3.140224  1.263957
H    -5.479536  3.208419  2.128807
N    -1.248389  -2.221491  0.648380
C    -1.202482  -2.693309  -0.726190
H    -0.460653  -2.405452  1.264612
H    -0.366147  -2.230786  -1.266535
H    -2.142031  -2.424517  -1.216676
H    -1.081573  -3.783360  -0.751209
