36
Energy: -21201.4119305 eV PBE+vdW (tier 2 basis)
C    0.326731  1.264608  0.771703
C    -0.301444  -0.091017  1.002119
O    -0.098434  -1.055513  0.270204
H    1.410415  1.140710  0.662160
H    -0.048592  1.668013  -0.177784
H    0.124077  1.989214  1.569494
N    -1.137168  -0.184561  2.095246
C    -1.879228  -1.402588  2.376289
C    -3.353891  -1.081291  2.707012
O    -3.805021  -1.285199  3.838008
H    -1.317007  0.640959  2.656189
H    -1.815873  -1.994043  1.448689
C    -1.286270  -2.225050  3.524978
C    0.150362  -2.695510  3.320333
C    0.705630  -3.427739  4.544216
N    0.042201  -4.711833  4.844888
C    -0.915167  -4.934734  5.750633
N    -1.623893  -3.927527  6.278793
N    -1.156476  -6.194661  6.160158
H    -1.958445  -3.086742  3.658162
H    -1.357193  -1.609965  4.439679
H    0.230702  -3.334137  2.427973
H    0.811275  -1.836229  3.134203
H    0.635349  -2.802354  5.445433
H    1.768557  -3.662122  4.402348
H    0.365543  -5.521959  4.325846
H    -1.761732  -3.063593  5.760598
H    -2.218974  -4.087403  7.082002
H    -2.030407  -6.441049  6.607044
H    -0.482301  -6.934334  6.010452
N    -4.114146  -0.566173  1.707562
C    -3.735584  -0.270752  0.332599
H    -5.058955  -0.331831  1.999790
H    -2.992753  -0.986397  -0.037375
H    -3.322987  0.743195  0.224594
H    -4.623817  -0.353758  -0.302962
