36
Energy: -21201.5962468 eV PBE+vdW (tier 2 basis)
C    0.361787  1.384988  0.816153
C    -0.157425  0.062857  1.325399
O    0.572060  -0.925190  1.468503
H    0.835638  1.228716  -0.160534
H    1.141563  1.740798  1.501351
H    -0.410313  2.157703  0.723881
N    -1.489522  0.011577  1.632292
C    -2.108493  -1.183889  2.203448
C    -2.485606  -2.194705  1.079751
O    -3.662797  -2.436133  0.780164
H    -2.081095  0.804327  1.408513
H    -1.326352  -1.651902  2.823587
C    -3.303849  -0.782638  3.074030
C    -3.770218  -1.822201  4.106890
C    -4.366296  -3.084272  3.488106
N    -5.032615  -3.915724  4.502971
C    -5.806341  -4.957423  4.197885
N    -6.451077  -5.638768  5.163014
N    -5.951323  -5.328257  2.917715
H    -4.149463  -0.512144  2.423595
H    -3.015655  0.119300  3.631619
H    -4.537702  -1.344198  4.735472
H    -2.932498  -2.091092  4.770929
H    -3.588092  -3.681888  2.992117
H    -5.100233  -2.800633  2.721694
H    -4.810789  -3.752594  5.479817
H    -6.898061  -6.525475  4.971098
H    -6.435602  -5.326860  6.124837
H    -6.667749  -5.986937  2.641672
H    -5.447721  -4.847339  2.180571
N    -1.407829  -2.761928  0.498491
C    -1.493316  -3.640013  -0.655161
H    -0.492306  -2.404772  0.799034
H    -1.004828  -3.185470  -1.527579
H    -2.549376  -3.807954  -0.888238
H    -1.008372  -4.603093  -0.447661
