36
Energy: -21201.4936123 eV PBE+vdW (tier 2 basis)
C    0.179923  1.726121  -0.129623
C    0.063644  0.485587  0.708909
O    0.945268  -0.383028  0.751702
H    -0.672066  1.838316  -0.815136
H    1.104300  1.679284  -0.709818
H    0.195372  2.613051  0.519509
N    -1.096695  0.282529  1.429365
C    -2.340865  1.040466  1.374423
C    -2.193440  2.405697  2.101143
O    -1.442060  2.509070  3.062927
H    -0.961608  -0.323533  2.235540
H    -2.580108  1.203980  0.310925
C    -3.500375  0.249179  2.039637
C    -3.555842  -1.289698  1.906964
C    -3.480264  -1.931244  0.508969
N    -2.098287  -2.000824  0.010110
C    -1.327151  -3.094985  -0.077460
N    -1.873724  -4.302997  -0.315082
N    -0.005157  -2.971844  0.076342
H    -4.437884  0.678469  1.659398
H    -3.483487  0.469582  3.117308
H    -4.514739  -1.595268  2.350521
H    -2.788766  -1.761290  2.540857
H    -4.091309  -1.378962  -0.219739
H    -3.887310  -2.948084  0.564462
H    -1.570705  -1.145646  0.212909
H    -1.306610  -5.140029  -0.289655
H    -2.801360  -4.382512  -0.709313
H    0.620688  -3.694961  -0.256528
H    0.413557  -2.077123  0.398216
N    -2.969478  3.403654  1.607411
C    -3.031668  4.728748  2.209452
H    -3.537981  3.221008  0.788286
H    -2.705483  5.497137  1.496977
H    -2.360889  4.734064  3.073905
H    -4.051576  4.958591  2.543434
