36
Energy: -21201.2448691 eV PBE+vdW (tier 2 basis)
C    -0.473411  0.646206  0.151623
C    -0.142900  0.601957  1.630482
O    0.961607  0.885963  2.071528
H    -0.646490  -0.363377  -0.248971
H    0.383966  1.080453  -0.368518
H    -1.367446  1.248591  -0.059287
N    -1.162017  0.243556  2.503477
C    -2.460389  -0.325475  2.194099
C    -3.678595  0.546703  2.608567
O    -4.811188  0.061103  2.581711
H    -0.838410  0.180738  3.467522
H    -2.538452  -0.391524  1.098453
C    -2.637510  -1.736099  2.774213
C    -1.840047  -2.809764  2.034453
C    -2.130979  -4.224793  2.535100
N    -3.551218  -4.554346  2.325069
C    -4.294565  -5.370372  3.071168
N    -3.718343  -6.227969  3.926545
N    -5.634965  -5.333636  2.974384
H    -3.716954  -1.941586  2.740068
H    -2.358186  -1.725831  3.841260
H    -0.758498  -2.638042  2.134564
H    -2.050591  -2.763144  0.951970
H    -1.922860  -4.293729  3.613309
H    -1.499044  -4.958118  2.011474
H    -4.022568  -4.068918  1.567244
H    -4.259588  -6.698357  4.640542
H    -2.731273  -6.441903  3.867669
H    -6.209274  -6.091058  3.321676
H    -6.107227  -4.541771  2.555686
N    -3.388770  1.822772  2.940369
C    -4.400885  2.804967  3.289943
H    -2.410472  2.093808  2.917465
H    -5.374993  2.306217  3.274036
H    -4.409580  3.632216  2.568048
H    -4.218854  3.211122  4.293232
