36
Energy: -21201.1777354 eV PBE+vdW (tier 2 basis)
C    -0.822211  -1.136858  1.394130
C    -1.180548  -0.653333  2.785155
O    -0.404469  -0.758126  3.724469
H    -0.275323  -2.079856  1.500753
H    -0.128738  -0.417216  0.936903
H    -1.672720  -1.285973  0.720634
N    -2.437846  -0.096565  2.998492
C    -3.431810  0.361293  2.034441
C    -4.162998  -0.763211  1.244253
O    -4.719260  -0.504223  0.176588
H    -2.543155  0.219522  3.959020
H    -4.233579  0.809682  2.645124
C    -2.940568  1.447556  1.060988
C    -2.622231  2.772963  1.752106
C    -2.081819  3.841856  0.801762
N    -3.051053  4.112849  -0.270910
C    -3.057084  5.177596  -1.071078
N    -4.081556  5.378974  -1.919117
N    -2.056356  6.069534  -1.029175
H    -3.747036  1.538178  0.315260
H    -2.059145  1.085502  0.511631
H    -1.857841  2.620632  2.528361
H    -3.515495  3.163962  2.265089
H    -1.128291  3.506598  0.360039
H    -1.902215  4.776133  1.353357
H    -3.702680  3.360783  -0.480572
H    -4.004949  6.030255  -2.689691
H    -4.914191  4.805215  -1.877805
H    -2.136382  6.970205  -1.483190
H    -1.208179  5.879264  -0.512215
N    -4.181667  -1.968967  1.853211
C    -4.867619  -3.126933  1.305425
H    -3.665487  -2.058028  2.722500
H    -5.620337  -3.502050  2.010721
H    -4.157431  -3.933911  1.081176
H    -5.364348  -2.819143  0.380160
