36
Energy: -21201.9534098 eV PBE+vdW (tier 2 basis)
C    2.041411  -2.511642  1.439327
C    0.857992  -2.387698  2.365957
O    0.482391  -3.316710  3.089817
H    2.222728  -1.618247  0.830478
H    1.888960  -3.374825  0.780428
H    2.934983  -2.718381  2.042151
N    0.212446  -1.180546  2.372591
C    -0.867466  -0.881162  3.310916
C    -2.219182  -1.460567  2.809997
O    -3.169595  -0.739933  2.432984
H    0.502578  -0.459864  1.721226
H    -0.616291  -1.410410  4.244441
C    -0.949611  0.622400  3.565996
C    -1.915726  0.970700  4.702523
C    -2.284946  2.451668  4.796822
N    -2.739309  3.108114  3.549204
C    -3.852597  2.847909  2.835772
N    -4.356561  1.621290  2.744568
N    -4.445700  3.876830  2.192750
H    -1.262919  1.123273  2.636252
H    0.058926  0.991477  3.804189
H    -1.468732  0.700790  5.671246
H    -2.831042  0.371051  4.625378
H    -1.408919  3.035532  5.106122
H    -3.055535  2.588359  5.569999
H    -2.315404  4.009026  3.359677
H    -3.762341  0.748079  2.748915
H    -5.273347  1.515365  2.324472
H    -5.097573  3.710972  1.436563
H    -4.308452  4.833995  2.490836
N    -2.276477  -2.794461  2.811585
C    -3.427299  -3.540789  2.326815
H    -1.403828  -3.283658  3.058081
H    -3.517646  -3.473078  1.233655
H    -4.349176  -3.149183  2.772434
H    -3.307137  -4.590161  2.610625
