36
Energy: -21201.9919644 eV PBE+vdW (tier 2 basis)
C    -1.107630  -1.684207  0.740588
C    -1.256829  -0.446565  1.589898
O    -1.542590  0.654802  1.102651
H    -2.005421  -1.800661  0.122228
H    -0.261631  -1.535134  0.056739
H    -0.940065  -2.602371  1.315020
N    -1.061309  -0.608201  2.933165
C    -0.972163  0.462914  3.931736
C    -2.276583  1.231399  4.220681
O    -2.500324  1.601128  5.403008
H    -0.873868  -1.546032  3.266897
H    -0.771612  -0.066867  4.871925
C    0.214431  1.451540  3.668892
C    1.243877  1.566006  4.810430
C    0.968428  2.597230  5.911738
N    -0.266586  2.330733  6.641233
C    -0.546255  2.692217  7.884445
N    0.323373  3.368982  8.658272
N    -1.748173  2.344495  8.396356
H    -0.170359  2.443638  3.392449
H    0.737492  1.085912  2.777747
H    2.208564  1.857251  4.370960
H    1.407686  0.578144  5.268777
H    0.928437  3.608544  5.472009
H    1.818016  2.575445  6.611310
H    -1.105737  1.978769  6.102000
H    0.173399  3.453873  9.654825
H    1.229155  3.639749  8.301810
H    -2.113005  2.828678  9.206335
H    -2.430117  1.937580  7.761439
N    -3.083492  1.518029  3.205464
C    -4.309728  2.286033  3.367431
H    -2.716890  1.301070  2.262987
H    -4.915321  1.869838  4.180582
H    -4.876655  2.235782  2.433556
H    -4.094515  3.338260  3.600414
