36
Energy: -21201.5735251 eV PBE+vdW (tier 2 basis)
C    -1.381061  -1.203804  -1.185572
C    -0.543331  -0.857447  0.011080
O    0.653068  -1.191387  0.084953
H    -2.445180  -0.979904  -1.058294
H    -0.998867  -0.669305  -2.063374
H    -1.262565  -2.278653  -1.372300
N    -1.115070  -0.234690  1.087774
C    -2.126478  0.814548  1.110405
C    -2.200237  1.572592  -0.235115
O    -1.191829  1.881103  -0.871908
H    -0.463508  -0.203515  1.866421
H    -3.117537  0.383771  1.329067
C    -1.785187  1.828142  2.253427
C    -0.297539  2.008933  2.614551
C    0.639226  2.448673  1.477761
N    2.046295  2.398613  1.880933
C    2.986696  1.542986  1.448296
N    4.274717  1.826350  1.756215
N    2.711982  0.446315  0.750078
H    -2.302940  1.506438  3.167170
H    -2.223354  2.799105  1.983050
H    0.106896  1.088637  3.067886
H    -0.254981  2.750776  3.426976
H    0.412455  3.479304  1.170203
H    0.508759  1.844534  0.573487
H    2.353187  3.074163  2.573292
H    5.002193  1.139046  1.612006
H    4.565580  2.772515  1.963758
H    3.479554  -0.037178  0.298751
H    1.787520  -0.036534  0.644386
N    -3.450851  1.911743  -0.620428
C    -3.703645  2.705537  -1.816510
H    -4.239626  1.593360  -0.070523
H    -4.783342  2.839386  -1.928453
H    -3.308119  2.200694  -2.706868
H    -3.224136  3.689659  -1.740099
