36
Energy: -21201.5703359 eV PBE+vdW (tier 2 basis)
C    0.975522  -0.789340  1.924170
C    0.332534  -0.430589  3.238905
O    0.852819  -0.735134  4.327626
H    2.047034  -0.929561  2.093223
H    0.819711  -0.029679  1.149490
H    0.565464  -1.738784  1.549394
N    -0.847955  0.255005  3.222728
C    -1.892656  0.110770  2.201618
C    -2.898772  1.291105  2.259625
O    -4.082483  1.111384  1.994218
H    -1.179510  0.469876  4.162545
H    -1.408120  0.181438  1.215241
C    -2.619050  -1.246569  2.270882
C    -3.289396  -1.596475  3.610565
C    -2.404306  -2.159988  4.728589
N    -1.825057  -3.464874  4.361976
C    -0.688221  -4.000495  4.837101
N    -0.554243  -5.343272  4.818254
N    0.300266  -3.242662  5.310160
H    -1.911400  -2.038520  1.979478
H    -3.396573  -1.220387  1.497653
H    -4.094522  -2.322891  3.415390
H    -3.810779  -0.714990  4.011289
H    -3.011571  -2.290352  5.638040
H    -1.581310  -1.488107  4.988708
H    -2.455909  -4.109567  3.894360
H    0.351844  -5.778369  4.933509
H    -1.359691  -5.952667  4.760845
H    1.081069  -3.688304  5.776206
H    0.436341  -2.252133  5.022119
N    -2.357391  2.491206  2.593014
C    -3.131214  3.723991  2.605978
H    -1.354610  2.541666  2.736879
H    -2.948064  4.280783  3.532829
H    -4.190829  3.457979  2.544038
H    -2.876959  4.361763  1.748423
