36
Energy: -21201.3778491 eV PBE+vdW (tier 2 basis)
C    0.761271  1.530865  2.410596
C    0.181405  0.207002  1.999053
O    0.886912  -0.820378  1.919131
H    1.665929  1.342700  2.995997
H    0.060654  2.148101  2.984047
H    1.059996  2.100707  1.517313
N    -1.141441  0.139472  1.694222
C    -1.997817  1.239191  1.250950
C    -2.934689  1.869147  2.313254
O    -3.053070  3.090510  2.308699
H    -1.471837  -0.801156  1.493986
H    -1.350874  2.084680  0.984701
C    -2.770852  0.814865  -0.011580
C    -1.930375  0.727838  -1.298031
C    -0.787268  -0.292023  -1.371641
N    -1.276343  -1.676725  -1.225663
C    -0.548825  -2.750316  -0.848230
N    -0.907887  -3.957484  -1.336248
N    0.467816  -2.647814  0.000266
H    -3.560892  1.558640  -0.182763
H    -3.292074  -0.138045  0.180219
H    -1.484138  1.712438  -1.503562
H    -2.616038  0.543854  -2.141395
H    -0.025346  -0.109437  -0.609472
H    -0.289650  -0.194326  -2.349411
H    -2.115041  -1.893275  -1.757159
H    -0.556909  -4.810579  -0.919877
H    -1.427270  -4.043042  -2.200466
H    1.063749  -3.457064  0.133549
H    0.582007  -1.872675  0.718428
N    -3.613795  1.080579  3.192163
C    -3.647562  -0.367133  3.328509
H    -4.182484  1.623334  3.836231
H    -4.499305  -0.630138  3.964181
H    -2.738081  -0.769630  3.796896
H    -3.809276  -0.866482  2.362760
