36
Energy: -21201.5449517 eV PBE+vdW (tier 2 basis)
C    0.654772  -0.480197  1.401547
C    0.336711  0.807089  2.107287
O    1.141699  1.761662  2.136398
H    -0.150093  -0.813582  0.734477
H    1.585316  -0.358376  0.841687
H    0.791103  -1.282500  2.140759
N    -0.855179  0.944466  2.761287
C    -2.147079  0.308067  2.451772
C    -2.093271  -1.241479  2.518891
O    -2.245016  -1.921497  1.507670
H    -0.901778  1.813358  3.289375
H    -2.823385  0.643605  3.253046
C    -2.713918  0.770460  1.098901
C    -2.907931  2.299846  0.970899
C    -2.127567  2.967972  -0.165813
N    -0.685047  2.961228  0.093246
C    0.292262  3.006374  -0.819106
N    1.547354  2.747163  -0.435697
N    0.011924  3.282659  -2.105210
H    -3.670561  0.255936  0.947595
H    -2.061966  0.389966  0.300073
H    -2.665225  2.821445  1.911149
H    -3.967540  2.523456  0.791664
H    -2.480071  4.004348  -0.292133
H    -2.316415  2.428261  -1.106648
H    -0.363087  2.887186  1.058321
H    2.334134  2.986830  -1.023994
H    1.708276  2.381176  0.517633
H    0.719832  3.194321  -2.821815
H    -0.880524  3.673436  -2.374490
N    -1.869644  -1.791382  3.741989
C    -1.757162  -1.123060  5.031834
H    -1.867019  -2.807390  3.729734
H    -2.641819  -0.509508  5.256662
H    -0.860115  -0.492691  5.092481
H    -1.684876  -1.889408  5.809233
