36
Energy: -21201.790075 eV PBE+vdW (tier 2 basis)
C    -1.310304  -0.877314  -0.751888
C    -0.849430  -0.575546  0.656081
O    0.110053  -1.144421  1.178329
H    -0.455802  -1.259502  -1.317745
H    -1.727622  -0.001553  -1.264229
H    -2.079554  -1.662916  -0.742743
N    -1.530673  0.387368  1.362845
C    -2.849969  0.954765  1.153020
C    -3.052036  1.996438  2.267980
O    -2.652258  1.789977  3.431422
H    -1.129417  0.577714  2.277196
H    -2.874705  1.487419  0.188528
C    -4.043442  -0.069298  1.130801
C    -3.903823  -1.413717  1.864463
C    -3.877641  -1.418910  3.403629
N    -2.659651  -0.872501  3.997500
C    -1.490089  -1.504656  4.059942
N    -0.416329  -0.851595  4.554873
N    -1.350692  -2.792454  3.709193
H    -4.236080  -0.308357  0.076294
H    -4.947247  0.452211  1.482213
H    -3.025976  -1.953678  1.478694
H    -4.772525  -2.020436  1.567408
H    -4.031336  -2.441192  3.778569
H    -4.709679  -0.823797  3.802850
H    -2.612395  0.167818  3.984360
H    -0.533744  0.095076  4.896517
H    0.507314  -1.099488  4.218283
H    -2.030127  -3.240604  3.110515
H    -0.444452  -3.237704  3.778577
N    -3.707928  3.111243  1.911311
C    -4.054773  4.183686  2.835917
H    -3.945757  3.229165  0.932195
H    -3.494193  5.095875  2.595503
H    -5.128969  4.397279  2.781102
H    -3.797091  3.862442  3.848544
