36
Energy: -21201.1553933 eV PBE+vdW (tier 2 basis)
C    0.268430  -0.159463  0.096777
C    0.040953  -0.370890  1.581338
O    0.949317  -0.646869  2.353813
H    1.336277  -0.288204  -0.096305
H    -0.028471  0.848848  -0.222655
H    -0.289727  -0.879906  -0.516254
N    -1.248211  -0.225891  2.063980
C    -2.492472  -0.033320  1.335788
C    -3.362049  1.012654  2.086439
O    -4.346748  0.653470  2.738336
H    -1.311836  -0.363929  3.070804
H    -2.245767  0.344715  0.334235
C    -3.318847  -1.323990  1.224972
C    -2.649709  -2.511092  0.541874
C    -3.526713  -3.767947  0.579460
N    -3.737029  -4.318736  1.930992
C    -4.814043  -4.165737  2.709344
N    -5.013700  -5.015448  3.733440
N    -5.713372  -3.200007  2.473381
H    -4.257908  -1.071971  0.703156
H    -3.584664  -1.581918  2.261387
H    -1.676949  -2.730939  1.007210
H    -2.448306  -2.293343  -0.518170
H    -3.069719  -4.572246  -0.011639
H    -4.516453  -3.576136  0.142336
H    -2.996120  -4.905369  2.301906
H    -5.628303  -4.774568  4.500767
H    -4.530083  -5.903222  3.782752
H    -6.598049  -3.197877  2.965990
H    -5.432707  -2.332720  2.024003
N    -2.974237  2.309272  2.016994
C    -1.825557  2.874247  1.322597
H    -3.549600  2.935017  2.573382
H    -1.896412  3.964812  1.374241
H    -1.820133  2.597485  0.259365
H    -0.874152  2.568018  1.778529
