36
Energy: -21201.5811731 eV PBE+vdW (tier 2 basis)
C    -1.645770  1.399612  -0.464746
C    -2.153297  1.755542  0.912822
O    -2.857762  2.774617  1.068916
H    -1.038608  2.230403  -0.845626
H    -2.505763  1.289800  -1.137762
H    -1.048119  0.481921  -0.498602
N    -1.811279  0.897131  1.899421
C    -2.067097  0.888660  3.351185
C    -3.110948  -0.131870  3.880751
O    -2.988045  -0.467682  5.055357
H    -1.244483  0.114062  1.591604
H    -1.136247  0.489204  3.775688
C    -2.286719  2.265024  4.018936
C    -3.754345  2.701806  4.201426
C    -3.930019  4.219383  4.170696
N    -3.631436  4.665076  2.809868
C    -3.801211  5.875295  2.307550
N    -4.134756  6.923866  3.083035
N    -3.651132  6.056864  0.977367
H    -1.710146  3.011406  3.456307
H    -1.820765  2.206428  5.010264
H    -4.139388  2.315599  5.153176
H    -4.395943  2.278503  3.415232
H    -3.250922  4.703097  4.893635
H    -4.964267  4.488319  4.438040
H    -3.308857  3.913201  2.159513
H    -4.442498  7.796890  2.676173
H    -4.258565  6.807372  4.079500
H    -3.483170  6.979280  0.597814
H    -3.368105  5.262158  0.412596
N    -4.109848  -0.629429  3.098874
C    -4.563613  -0.280592  1.758533
H    -4.670422  -1.306557  3.609864
H    -5.586249  -0.654745  1.642821
H    -3.948377  -0.739089  0.971244
H    -4.593164  0.804800  1.602321
