36
Energy: -21201.5382317 eV PBE+vdW (tier 2 basis)
C    -0.501810  -0.438993  -0.414615
C    -0.461714  0.474679  0.790354
O    0.111934  1.551555  0.772997
H    -1.500636  -0.856530  -0.602339
H    -0.186424  0.143713  -1.284086
H    0.201734  -1.273161  -0.286646
N    -1.080040  0.065054  1.977960
C    -2.095162  -0.972878  2.167056
C    -2.729837  -0.845849  3.557943
O    -3.926829  -1.137970  3.740643
H    -1.171645  0.876701  2.586922
H    -2.933151  -0.831388  1.463895
C    -1.518048  -2.407890  2.016201
C    -2.500191  -3.542318  2.338766
C    -3.699460  -3.594932  1.379201
N    -4.776396  -4.475998  1.833394
C    -5.839283  -4.079819  2.551615
N    -5.913794  -2.851144  3.054832
N    -6.847723  -4.956808  2.744408
H    -0.640629  -2.491227  2.672848
H    -1.145266  -2.528031  0.990866
H    -2.867129  -3.448010  3.370653
H    -1.959366  -4.498631  2.291683
H    -3.386622  -3.947443  0.387033
H    -4.140514  -2.601514  1.232016
H    -4.673373  -5.472280  1.674953
H    -6.793220  -2.530458  3.441073
H    -5.090274  -2.221359  3.188283
H    -7.583006  -4.763993  3.411191
H    -6.963346  -5.763409  2.145188
N    -1.917204  -0.453777  4.554748
C    -2.339464  -0.313137  5.941373
H    -0.941112  -0.286952  4.325242
H    -1.980709  -1.154061  6.550179
H    -3.432296  -0.292280  5.971594
H    -1.945209  0.621248  6.356276
