36
Energy: -21200.5055985 eV PBE+vdW (tier 2 basis)
C    -0.111988  -0.034450  -0.151699
C    0.130957  0.049202  1.341253
O    1.256186  0.038430  1.819023
H    -0.568355  -0.999050  -0.413694
H    -0.767472  0.765788  -0.520619
H    0.855686  0.042032  -0.653807
N    -0.965384  0.144883  2.186627
C    -2.392340  0.051938  1.889430
C    -2.736192  -1.306443  1.199041
O    -2.424363  -2.319675  1.813360
H    -0.693343  -0.009939  3.152726
H    -2.862852  -0.111059  2.871528
C    -2.968612  1.385732  1.366164
C    -2.682299  2.526245  2.348778
C    -3.177903  3.899152  1.889329
N    -4.644412  4.030137  1.816546
C    -5.442641  4.401718  2.819930
N    -4.969331  4.521625  4.068125
N    -6.738858  4.670718  2.583005
H    -4.053935  1.264906  1.223278
H    -2.540802  1.648079  0.388368
H    -3.105744  2.278326  3.337778
H    -1.595401  2.603571  2.497312
H    -2.800654  4.126990  0.883604
H    -2.803101  4.700030  2.542516
H    -5.095548  3.763966  0.948087
H    -5.493133  5.013458  4.780923
H    -4.057809  4.162844  4.320655
H    -7.081663  4.821470  1.642960
H    -7.407838  4.740204  3.339196
N    -3.399533  -1.402497  0.004616
C    -3.733394  -0.431124  -1.025488
H    -3.560666  -2.378829  -0.229206
H    -2.874410  0.187919  -1.313947
H    -4.569645  0.223240  -0.738381
H    -4.045693  -0.984788  -1.916770
