36
Energy: -21201.6325511 eV PBE+vdW (tier 2 basis)
C    1.526619  -0.934143  0.787129
C    0.748580  -0.706843  2.059329
O    1.238060  -0.973923  3.169970
H    2.383826  -0.248116  0.775069
H    0.941411  -0.781207  -0.126610
H    1.925550  -1.955371  0.794323
N    -0.512038  -0.231897  1.907204
C    -1.452427  0.129088  2.962524
C    -1.114497  1.527349  3.533536
O    0.007147  2.019640  3.450056
H    -0.796686  -0.009072  0.960848
H    -2.407986  0.246630  2.433205
C    -1.669422  -1.021710  4.006637
C    -1.501053  -0.788743  5.518434
C    -0.081182  -0.660401  6.096403
N    0.371332  0.728907  6.232471
C    1.549475  1.248332  5.865837
N    1.925940  2.435714  6.391507
N    2.366947  0.603141  5.039134
H    -1.013958  -1.849067  3.712763
H    -2.693712  -1.390610  3.860588
H    -1.946726  -1.671481  5.999017
H    -2.112637  0.058428  5.866667
H    0.637766  -1.206228  5.479666
H    -0.065828  -1.109346  7.100836
H    -0.270547  1.363617  6.694777
H    2.550364  3.040720  5.874119
H    1.418973  2.847080  7.163471
H    3.295906  0.975188  4.889455
H    1.977220  -0.036334  4.315328
N    -2.146105  2.191868  4.138630
C    -3.570056  1.874549  4.074731
H    -1.901006  3.147999  4.382277
H    -3.775790  0.856137  4.425656
H    -3.983347  1.992448  3.061414
H    -4.106700  2.559547  4.738909
