36
Energy: -21201.2272933 eV PBE+vdW (tier 2 basis)
C    -0.006523  1.413064  -0.503709
C    0.284572  0.503874  0.672563
O    1.415000  0.143406  0.970768
H    -0.574559  0.890155  -1.286247
H    -0.584923  2.299197  -0.208176
H    0.949792  1.734427  -0.923762
N    -0.792531  0.102976  1.453011
C    -2.204884  0.148539  1.107831
C    -3.096844  0.388691  2.356220
O    -4.225602  -0.098482  2.428345
H    -0.505673  -0.549771  2.180139
H    -2.356798  1.032528  0.470070
C    -2.708189  -1.070694  0.312247
C    -2.556288  -2.402279  1.053986
C    -3.262971  -3.530597  0.309864
N    -3.132398  -4.793131  1.055436
C    -3.429230  -6.004963  0.586841
N    -3.121917  -7.102823  1.300461
N    -4.022119  -6.142824  -0.607638
H    -2.165726  -1.107771  -0.644342
H    -3.769867  -0.896750  0.088972
H    -3.006805  -2.303148  2.054262
H    -1.492180  -2.658932  1.174145
H    -2.820113  -3.669518  -0.688651
H    -4.329976  -3.279639  0.190938
H    -2.874153  -4.717333  2.034572
H    -2.525474  -7.048012  2.115847
H    -3.529440  -8.002914  1.082576
H    -4.405261  -5.343392  -1.094918
H    -4.087694  -7.044883  -1.061101
N    -2.540764  1.181365  3.303177
C    -3.244450  1.599178  4.503841
H    -1.598802  1.519473  3.132858
H    -2.679424  1.322567  5.403306
H    -4.216260  1.095937  4.517477
H    -3.406113  2.685421  4.506520
