36
Energy: -21201.6958388 eV PBE+vdW (tier 2 basis)
C    0.002890  -0.474053  0.151735
C    -0.102264  -0.312752  1.647736
O    0.907816  -0.384751  2.383443
H    0.730316  0.248129  -0.239858
H    0.395193  -1.476522  -0.063056
H    -0.951138  -0.346995  -0.371051
N    -1.334324  -0.091744  2.138459
C    -1.689781  0.070351  3.540506
C    -3.182316  0.468114  3.519461
O    -3.672599  0.967127  2.504664
H    -2.113283  0.119942  1.509921
H    -1.568071  -0.896385  4.053370
C    -0.837287  1.118090  4.312549
C    -0.465641  2.353089  3.495189
C    0.512655  3.297131  4.198404
N    1.690639  2.679849  4.852358
C    2.768299  2.126507  4.267047
N    3.955831  2.227146  4.900783
N    2.690110  1.496552  3.095055
H    0.072601  0.612846  4.658088
H    -1.392754  1.419804  5.213007
H    -1.360170  2.945103  3.250412
H    -0.042424  2.054801  2.528885
H    0.002838  3.830106  5.010612
H    0.867652  4.056035  3.486295
H    1.808907  2.905257  5.833265
H    4.718102  1.598775  4.680237
H    4.126790  2.947936  5.590224
H    3.562104  1.244560  2.642189
H    1.875382  0.889288  2.828593
N    -3.899674  0.275435  4.654267
C    -3.518984  -0.478341  5.842824
H    -4.870093  0.563205  4.567052
H    -4.372703  -0.488999  6.526935
H    -2.675371  -0.018679  6.375163
H    -3.264279  -1.521480  5.607298
