36
Energy: -21201.5070227 eV PBE+vdW (tier 2 basis)
C    -0.265917  -2.876247  0.998590
C    0.015723  -1.431781  1.361432
O    1.130063  -0.946044  1.227115
H    0.387589  -3.141628  0.162066
H    -1.304845  -3.105039  0.742739
H    0.014635  -3.513435  1.849258
N    -0.992029  -0.655669  1.916755
C    -2.424069  -0.875381  2.082775
C    -2.773845  -2.278179  2.606989
O    -3.598079  -3.019452  2.034260
H    -0.655595  0.281074  2.128210
H    -2.717499  -0.213652  2.917337
C    -3.270034  -0.393653  0.875107
C    -2.850150  -0.852245  -0.530010
C    -3.460361  -2.152148  -1.062994
N    -4.889071  -2.025667  -1.385045
C    -5.918740  -2.593440  -0.742090
N    -5.765963  -3.160948  0.450037
N    -7.135810  -2.567115  -1.328981
H    -3.197648  0.702843  0.895276
H    -4.329572  -0.616115  1.071335
H    -1.756164  -0.944896  -0.583283
H    -3.093022  -0.049879  -1.243407
H    -3.342607  -2.980347  -0.356632
H    -2.948431  -2.442909  -1.991035
H    -5.123757  -1.437464  -2.178031
H    -6.499209  -3.753950  0.817180
H    -4.904000  -3.037636  1.027067
H    -7.236510  -2.410049  -2.322838
H    -7.967146  -2.816558  -0.810479
N    -2.195233  -2.684790  3.752826
C    -1.257144  -1.982776  4.622192
H    -2.479386  -3.620222  4.032215
H    -1.310621  -2.438001  5.616259
H    -1.525247  -0.924812  4.722564
H    -0.224165  -2.049654  4.256945
