36
Energy: -21201.7162918 eV PBE+vdW (tier 2 basis)
C    0.423263  0.998058  0.313557
C    -0.103164  0.171914  1.465165
O    0.360205  -0.920246  1.780192
H    1.513492  1.072432  0.397865
H    -0.007922  2.004785  0.257675
H    0.206501  0.469132  -0.623745
N    -1.154879  0.717577  2.165644
C    -1.817336  -0.056928  3.195565
C    -3.215209  0.509651  3.391105
O    -3.420533  1.743821  3.337278
H    -1.585364  1.591246  1.880905
H    -1.872509  -1.092263  2.833032
C    -1.052939  -0.113715  4.567923
C    -0.107726  1.054140  4.858670
C    -0.734061  2.427359  5.102222
N    -1.486385  2.485445  6.367908
C    -2.680825  3.056807  6.577452
N    -3.010835  3.415511  7.837436
N    -3.543484  3.258452  5.583101
H    -0.447290  -1.027792  4.554077
H    -1.784807  -0.232849  5.382780
H    0.514632  0.783962  5.727151
H    0.597496  1.165891  4.024013
H    -1.409103  2.707018  4.287997
H    0.059695  3.188413  5.147728
H    -0.974886  2.209264  7.200807
H    -3.968064  3.630011  8.083607
H    -2.302633  3.566027  8.543781
H    -3.490089  2.729322  4.685373
H    -4.350147  3.849604  5.737788
N    -4.213201  -0.350052  3.658933
C    -4.155000  -1.810786  3.697684
H    -5.121222  0.090614  3.780114
H    -3.440117  -2.167931  4.449034
H    -3.890635  -2.231866  2.719064
H    -5.146763  -2.182028  3.971871
