36
Energy: -21201.5593839 eV PBE+vdW (tier 2 basis)
C    -1.059729  1.082330  -1.288833
C    -0.709849  1.460695  0.123376
O    0.152955  2.326918  0.367778
H    -0.277331  0.398630  -1.650837
H    -1.030602  1.974333  -1.923226
H    -2.021143  0.573520  -1.400628
N    -1.320315  0.812821  1.168262
C    -2.746380  0.429433  1.220014
C    -3.087790  -0.844333  0.388898
O    -4.202633  -0.985611  -0.100815
H    -0.898319  1.056648  2.061991
H    -2.921435  0.124771  2.264723
C    -3.689110  1.595093  0.873879
C    -3.971718  2.625402  1.977141
C    -2.782324  3.348455  2.640605
N    -1.768755  3.891051  1.730793
C    -1.900127  4.917638  0.891370
N    -2.905237  5.800482  1.013880
N    -1.006670  5.044760  -0.104867
H    -4.644545  1.144887  0.573302
H    -3.310285  2.103821  -0.025682
H    -4.532178  2.148320  2.796349
H    -4.656950  3.374045  1.551992
H    -2.234964  2.670379  3.307460
H    -3.155689  4.146206  3.301416
H    -0.936390  3.313974  1.542676
H    -3.038199  6.540449  0.337845
H    -3.495116  5.805517  1.834755
H    -0.872485  5.926553  -0.582106
H    -0.304673  4.311884  -0.223932
N    -2.091514  -1.760970  0.321047
C    -2.246641  -3.047955  -0.339209
H    -1.201942  -1.528827  0.748512
H    -2.081815  -3.870619  0.368397
H    -1.541302  -3.149256  -1.174604
H    -3.269120  -3.107160  -0.724498
