36
Energy: -21201.1504656 eV PBE+vdW (tier 2 basis)
C    -0.021449  -0.548486  -0.461436
C    0.181117  0.298261  0.766418
O    1.146185  1.084686  0.846942
H    -1.069030  -0.656245  -0.766012
H    0.564492  -0.117172  -1.277805
H    0.348004  -1.561663  -0.250581
N    -0.675454  0.215318  1.827576
C    -2.023976  -0.334457  1.985602
C    -2.177678  -1.715692  1.294613
O    -1.295388  -2.553779  1.423913
H    -0.327805  0.747667  2.621713
H    -2.100134  -0.609210  3.050182
C    -3.086255  0.771617  1.748664
C    -3.045505  1.469024  0.376465
C    -3.244279  2.994413  0.425450
N    -2.304984  3.704243  1.313406
C    -0.964267  3.620292  1.265202
N    -0.310508  3.283317  0.150066
N    -0.244016  3.895216  2.365283
H    -2.912224  1.520437  2.537405
H    -4.090171  0.377226  1.966881
H    -2.093180  1.248886  -0.120884
H    -3.819434  1.075470  -0.296989
H    -4.242770  3.240412  0.807277
H    -3.197261  3.417804  -0.589356
H    -2.702863  4.221322  2.088887
H    -0.828925  3.216229  -0.716981
H    0.507960  2.650063  0.252904
H    0.761154  4.003466  2.296701
H    -0.667744  3.947592  3.282013
N    -3.334012  -1.928476  0.610046
C    -3.666731  -3.226244  0.037021
H    -4.050866  -1.214575  0.616288
H    -2.756992  -3.833843  0.030256
H    -4.033172  -3.105388  -0.989361
H    -4.431148  -3.742350  0.633631
