36
Energy: -21200.7436925 eV PBE+vdW (tier 2 basis)
C    -0.435207  0.787856  -0.025401
C    -0.737231  0.604424  1.441788
O    0.104987  0.713649  2.326354
H    0.646879  0.881317  -0.144222
H    -0.917464  1.693485  -0.418655
H    -0.798912  -0.056603  -0.627017
N    -2.051548  0.329541  1.803040
C    -3.184017  0.003345  0.942652
C    -3.715574  1.085046  -0.033304
O    -4.317935  0.678875  -1.022630
H    -2.086090  -0.021358  2.756000
H    -2.916235  -0.813244  0.253085
C    -4.367128  -0.526598  1.781649
C    -5.122084  0.483132  2.663652
C    -4.338919  0.975497  3.882315
N    -5.169357  1.861452  4.709354
C    -4.705235  2.756746  5.584175
N    -5.549457  3.613632  6.185331
N    -3.395881  2.823843  5.860690
H    -4.010594  -1.372536  2.391744
H    -5.087266  -0.946762  1.068764
H    -5.441143  1.346244  2.060156
H    -6.041987  -0.010910  3.016503
H    -3.456669  1.543731  3.560695
H    -4.001261  0.117059  4.488044
H    -6.174011  1.715431  4.675018
H    -5.267860  4.144552  6.999492
H    -6.513756  3.695215  5.890019
H    -3.007734  3.605089  6.373843
H    -2.751210  2.114202  5.536563
N    -3.549895  2.431191  0.165945
C    -3.076784  3.217989  1.293938
H    -3.987200  2.953005  -0.590930
H    -2.661247  4.160289  0.917760
H    -2.287529  2.695992  1.838847
H    -3.890991  3.471349  1.996145
