36
Energy: -21201.9350655 eV PBE+vdW (tier 2 basis)
C    2.175045  2.050327  1.644497
C    0.983120  1.702117  2.502250
O    1.116689  1.044832  3.562108
H    1.926712  2.678168  0.782087
H    2.624174  1.115993  1.282601
H    2.933247  2.556951  2.255460
N    -0.206254  2.165658  2.076789
C    -1.538212  1.821179  2.564324
C    -2.494814  2.598631  1.619885
O    -2.057079  3.506338  0.908969
H    -0.261167  2.784226  1.260749
H    -1.690514  0.738290  2.417835
C    -1.843790  2.108396  4.054225
C    -1.772387  3.555740  4.567494
C    -0.387399  4.217841  4.609114
N    0.612247  3.278966  5.130013
C    1.858500  3.561361  5.516168
N    2.783721  2.595408  5.402113
N    2.193128  4.770657  5.997316
H    -1.221420  1.440239  4.664982
H    -2.870747  1.758597  4.233700
H    -2.187486  3.552416  5.585354
H    -2.425747  4.206454  3.968446
H    -0.446621  5.107297  5.251304
H    -0.083937  4.552748  3.605083
H    0.533958  2.320393  4.754416
H    3.651257  2.620798  5.921322
H    2.536495  1.756601  4.866141
H    3.152450  4.997052  6.221941
H    1.482527  5.447132  6.240471
N    -3.791621  2.225959  1.663467
C    -4.827441  2.851655  0.851677
H    -4.046270  1.419080  2.222201
H    -5.196753  2.158103  0.084941
H    -4.390732  3.724947  0.358994
H    -5.666880  3.170450  1.481562
