36
Energy: -21201.974802 eV PBE+vdW (tier 2 basis)
C    -2.004300  0.791876  0.179443
C    -2.054888  0.959035  1.677250
O    -2.628022  1.910705  2.217884
H    -3.030101  0.667377  -0.190997
H    -1.401810  -0.062260  -0.151492
H    -1.607846  1.710452  -0.269038
N    -1.424519  -0.004909  2.419973
C    -1.558768  -0.091650  3.873055
C    -0.611742  0.888812  4.628268
O    0.241798  0.531760  5.474966
H    -0.976812  -0.769117  1.929128
H    -2.567054  0.293228  4.099776
C    -1.518519  -1.549958  4.369550
C    -0.497302  -2.538884  3.772774
C    0.990341  -2.183975  3.920827
N    1.343228  -1.816086  5.285082
C    1.914249  -2.567786  6.206395
N    2.274868  -2.005960  7.382309
N    2.170209  -3.881431  6.027165
H    -2.512212  -1.979758  4.184128
H    -1.406796  -1.519878  5.462132
H    -0.694946  -2.711598  2.702370
H    -0.684557  -3.511705  4.252530
H    1.245024  -1.313275  3.298496
H    1.624306  -3.006168  3.560092
H    0.947516  -0.859701  5.532444
H    2.393409  -2.579327  8.207619
H    2.092737  -1.020557  7.531161
H    2.866213  -4.346415  6.595979
H    1.909395  -4.338142  5.164240
N    -0.827992  2.172325  4.340567
C    -0.070935  3.258483  4.944472
H    -1.572321  2.369679  3.653658
H    -0.257115  3.314637  6.025210
H    -0.381780  4.197971  4.479137
H    1.006044  3.117204  4.788445
