36
Energy: -21202.0067301 eV PBE+vdW (tier 2 basis)
C    0.114663  -0.598734  -2.034499
C    -0.202900  -1.325008  -0.747693
O    0.347520  -2.373233  -0.419239
H    1.200938  -0.469638  -2.108682
H    -0.373099  0.378502  -2.128393
H    -0.192522  -1.230566  -2.877991
N    -1.143588  -0.724124  0.061922
C    -1.647296  -1.321513  1.299633
C    -0.494680  -1.845013  2.191203
O    -0.577242  -2.911953  2.832348
H    -1.619727  0.101018  -0.284898
H    -2.068297  -0.481417  1.877057
C    -2.808099  -2.316932  1.108112
C    -2.536604  -3.584972  0.258721
C    -2.901017  -4.887964  0.972099
N    -2.058365  -5.015787  2.158427
C    -2.016669  -6.038044  2.991847
N    -2.709779  -7.170689  2.764127
N    -1.267318  -5.938134  4.113711
H    -3.634457  -1.748916  0.659223
H    -3.161384  -2.590772  2.113776
H    -1.479259  -3.635020  -0.031379
H    -3.111932  -3.543431  -0.674275
H    -2.726178  -5.734532  0.288383
H    -3.966815  -4.895588  1.261011
H    -1.473314  -4.170981  2.400079
H    -2.789146  -7.886263  3.473707
H    -3.312625  -7.249131  1.956865
H    -0.981194  -6.770230  4.612740
H    -0.683687  -5.115438  4.225409
N    0.544767  -1.012811  2.343366
C    1.726783  -1.363421  3.116995
H    0.586448  -0.201839  1.736176
H    2.302291  -2.156799  2.619979
H    1.433520  -1.711358  4.113603
H    2.355263  -0.474268  3.221529
