36
Energy: -21201.3481478 eV PBE+vdW (tier 2 basis)
C    0.349967  -0.212867  -0.712108
C    0.603357  0.944834  0.232084
O    1.517593  1.737778  0.058041
H    0.656069  0.101264  -1.714362
H    -0.684788  -0.572572  -0.742022
H    0.991171  -1.057112  -0.420303
N    -0.194012  1.070580  1.360574
C    -1.371445  0.312078  1.762100
C    -1.125608  -1.211430  1.813797
O    -1.964629  -2.026370  1.377176
H    0.057789  1.881850  1.918350
H    -1.536852  0.586083  2.819735
C    -2.609929  0.781111  0.949985
C    -3.962352  0.068278  1.103175
C    -4.391369  -0.227290  2.545298
N    -5.552600  -1.120749  2.617390
C    -5.488480  -2.456816  2.511886
N    -4.335463  -3.076085  2.267440
N    -6.619045  -3.174648  2.678741
H    -2.346108  0.756706  -0.115251
H    -2.721720  1.847262  1.197256
H    -3.935115  -0.871261  0.540695
H    -4.731591  0.695664  0.627897
H    -4.662411  0.690846  3.082544
H    -3.586493  -0.701498  3.122535
H    -6.473847  -0.699929  2.570830
H    -4.287633  -4.083680  2.351695
H    -3.475166  -2.594676  1.930949
H    -6.650962  -4.158771  2.449483
H    -7.444072  -2.767236  3.098090
N    0.005782  -1.664621  2.392658
C    1.091670  -0.950532  3.060289
H    0.074323  -2.678609  2.363110
H    1.614002  -1.666136  3.703875
H    0.708334  -0.145335  3.696818
H    1.810800  -0.525565  2.349039
