36
Energy: -21201.4521915 eV PBE+vdW (tier 2 basis)
C    -0.415469  -0.645694  0.450170
C    -0.576046  -0.050033  1.829479
O    0.081281  0.954229  2.163771
H    0.634282  -0.930938  0.306598
H    -0.644621  0.128030  -0.293568
H    -1.049728  -1.519265  0.262276
N    -1.473779  -0.668690  2.633361
C    -1.927872  -0.378913  4.003590
C    -3.395673  0.124014  4.102960
O    -4.107645  -0.374012  4.969949
H    -1.941462  -1.467208  2.216757
H    -1.995998  -1.358856  4.497431
C    -1.014534  0.500893  4.870661
C    0.380017  -0.087130  5.083468
C    1.290318  0.755887  5.981553
N    1.339574  2.209657  5.707933
C    1.945465  2.823236  4.678750
N    2.427654  4.068891  4.865909
N    2.081592  2.222154  3.495989
H    -1.532362  0.589730  5.838215
H    -0.947878  1.512455  4.452148
H    0.873467  -0.262815  4.119922
H    0.302226  -1.074276  5.564796
H    2.316238  0.362229  5.945360
H    0.952782  0.686892  7.022986
H    1.061899  2.813628  6.472902
H    2.623954  4.675590  4.079978
H    2.631862  4.420946  5.792483
H    2.680904  2.657404  2.803962
H    1.343182  1.595056  3.114978
N    -3.850857  1.103895  3.273647
C    -3.168618  1.871434  2.243402
H    -4.831309  1.315408  3.438891
H    -3.186575  1.369082  1.264019
H    -2.125657  2.073930  2.510438
H    -3.676597  2.836462  2.137478
