36
Energy: -21201.8443665 eV PBE+vdW (tier 2 basis)
C    -0.065945  -0.620430  -0.166262
C    -0.017969  -0.515857  1.335717
O    1.073763  -0.617680  1.950588
H    0.373746  -1.577402  -0.474766
H    0.558746  0.175651  -0.592374
H    -1.075009  -0.540436  -0.584857
N    -1.191182  -0.306200  1.966090
C    -1.455840  -0.026182  3.391617
C    -1.192488  1.451617  3.800091
O    -2.036484  2.048734  4.456238
H    -1.996412  -0.184192  1.361053
H    -2.541706  -0.138191  3.498277
C    -0.766909  -0.964172  4.402213
C    -0.938339  -2.472946  4.129472
C    0.330473  -3.272977  4.436064
N    1.401900  -2.785065  3.566801
C    2.572494  -3.354777  3.325166
N    3.346000  -2.840781  2.345272
N    2.991582  -4.433797  4.009016
H    -1.189174  -0.707822  5.383052
H    0.296372  -0.699086  4.463521
H    -1.206231  -2.648749  3.076710
H    -1.761993  -2.882667  4.727486
H    0.156041  -4.344355  4.250401
H    0.615086  -3.149574  5.494792
H    1.220770  -1.902866  3.043929
H    4.339965  -3.027644  2.320670
H    3.011472  -2.008891  1.863718
H    3.804522  -4.957995  3.714427
H    2.445015  -4.809007  4.772004
N    0.005567  1.966165  3.416126
C    0.415810  3.319843  3.758456
H    0.669571  1.356272  2.946755
H    0.768250  3.851868  2.866117
H    1.215286  3.316858  4.512358
H    -0.452656  3.842071  4.171295
