36
Energy: -21201.9221177 eV PBE+vdW (tier 2 basis)
C    -1.549793  -1.448529  0.605769
C    -1.042770  -0.674445  1.799493
O    0.149378  -0.498538  2.027213
H    -1.242702  -0.923935  -0.307959
H    -2.638199  -1.580712  0.592022
H    -1.066062  -2.432435  0.590561
N    -2.015179  -0.174492  2.645799
C    -1.660793  0.684984  3.763729
C    -2.281776  0.122321  5.055061
O    -3.218684  0.705600  5.652299
H    -2.992625  -0.283466  2.398288
H    -0.562640  0.603603  3.824745
C    -2.027642  2.152867  3.499354
C    -1.429063  3.151856  4.518673
C    -2.453502  4.125540  5.104177
N    -3.469580  3.357370  5.821230
C    -4.500620  3.846808  6.486085
N    -5.415592  2.993998  6.998803
N    -4.671048  5.171962  6.654370
H    -3.123629  2.246120  3.458160
H    -1.662188  2.388401  2.492313
H    -0.632406  3.740095  4.047172
H    -0.950272  2.616610  5.353211
H    -2.922599  4.717940  4.299578
H    -1.947240  4.822810  5.791441
H    -3.390063  2.308645  5.740184
H    -6.057748  3.299859  7.717973
H    -5.232761  1.998012  6.942117
H    -5.526144  5.544827  7.044073
H    -4.024581  5.829997  6.241433
N    -1.808822  -1.042040  5.529365
C    -0.783649  -1.915480  4.969103
H    -2.306890  -1.376580  6.351011
H    -0.270365  -2.424642  5.791639
H    -0.043590  -1.345350  4.398661
H    -1.224117  -2.670606  4.303164
