36
Energy: -21201.2383804 eV PBE+vdW (tier 2 basis)
C    -2.354377  -0.633064  0.455629
C    -1.525906  0.492267  1.012485
O    -0.717967  1.123256  0.310166
H    -2.097018  -1.573885  0.961335
H    -3.429940  -0.483666  0.621079
H    -2.146776  -0.728995  -0.612933
N    -1.625254  0.791568  2.354230
C    -2.899222  0.943303  3.087576
C    -3.655466  -0.397433  3.272469
O    -4.725973  -0.601688  2.702435
H    -0.926962  1.488947  2.606881
H    -2.609303  1.300553  4.087364
C    -3.813040  1.982819  2.411805
C    -3.102497  3.306353  2.108003
C    -3.751230  4.143805  1.004476
N    -3.958516  3.456792  -0.289730
C    -3.073593  3.355549  -1.294679
N    -3.533964  3.313700  -2.559564
N    -1.755218  3.323621  -1.060226
H    -4.695826  2.148760  3.044338
H    -4.199142  1.527560  1.488357
H    -2.055781  3.132156  1.823961
H    -3.060237  3.941354  3.005973
H    -3.147949  5.042047  0.814957
H    -4.749999  4.479447  1.311711
H    -4.916682  3.222902  -0.525376
H    -4.457881  3.652986  -2.797188
H    -2.963816  2.941692  -3.309099
H    -1.372548  2.722205  -0.308600
H    -1.136571  3.417109  -1.859243
N    -3.073483  -1.319877  4.081346
C    -1.867709  -1.181527  4.888136
H    -3.625652  -2.165964  4.188986
H    -1.984693  -0.431191  5.684591
H    -0.999233  -0.919627  4.271238
H    -1.663518  -2.143958  5.366781
