36
Energy: -21200.4342951 eV PBE+vdW (tier 2 basis)
C    0.851456  -0.131753  2.507976
C    -0.176769  -0.816690  3.384233
O    0.146129  -1.515233  4.334714
H    0.681677  0.950811  2.435922
H    1.835309  -0.303973  2.951449
H    0.844374  -0.557901  1.495354
N    -1.520148  -0.639047  3.099152
C    -2.203234  0.027637  1.993549
C    -1.892809  -0.658681  0.625847
O    -2.307690  -1.802483  0.479819
H    -2.095958  -1.254659  3.665981
H    -3.252005  -0.278030  2.122632
C    -2.204667  1.565425  2.122503
C    -3.325524  2.210070  1.298765
C    -3.326293  3.730695  1.428790
N    -4.443242  4.310245  0.665729
C    -4.918439  5.549866  0.800336
N    -6.054103  5.909690  0.178031
N    -4.275019  6.443806  1.563970
H    -1.232993  2.004796  1.864565
H    -2.365213  1.783960  3.188751
H    -4.296997  1.819076  1.640628
H    -3.229512  1.935199  0.235436
H    -2.371640  4.142670  1.061098
H    -3.442606  4.015886  2.485644
H    -4.853436  3.727341  -0.057484
H    -6.661538  5.221339  -0.247642
H    -6.323620  6.881513  0.094089
H    -4.708789  7.319801  1.826019
H    -3.346408  6.257631  1.919263
N    -1.230033  -0.040517  -0.407856
C    -0.502974  1.214256  -0.528155
H    -1.161575  -0.673722  -1.200688
H    0.209239  1.370964  0.289575
H    -1.166899  2.090796  -0.597578
H    0.075439  1.176491  -1.457086
