36
Energy: -21201.1375727 eV PBE+vdW (tier 2 basis)
C    -0.710454  -1.179642  2.309915
C    -1.222276  0.241959  2.420557
O    -0.584668  1.116753  2.993933
H    -1.479132  -1.929618  2.096558
H    -0.210610  -1.427397  3.252356
H    0.054195  -1.224670  1.521526
N    -2.461537  0.548141  1.871794
C    -3.237572  -0.185300  0.872220
C    -3.923110  -1.480013  1.393508
O    -4.225336  -2.377545  0.610858
H    -2.679599  1.534432  1.988427
H    -4.079216  0.482993  0.625452
C    -2.487312  -0.483944  -0.438790
C    -1.887078  0.768457  -1.077947
C    -1.156320  0.432670  -2.375176
N    -0.501493  1.632285  -2.920570
C    -0.019469  1.760369  -4.157266
N    0.426202  2.952759  -4.590769
N    0.011917  0.707160  -4.985834
H    -3.201495  -0.971627  -1.115470
H    -1.697166  -1.225753  -0.252578
H    -1.178102  1.241243  -0.377793
H    -2.676555  1.508078  -1.287674
H    -1.869053  0.053472  -3.123184
H    -0.400770  -0.348497  -2.187733
H    -0.329078  2.391060  -2.267870
H    0.992023  3.030381  -5.426040
H    0.275495  3.796302  -4.052790
H    0.195244  0.821602  -5.974349
H    -0.183659  -0.227202  -4.651135
N    -4.192074  -1.486080  2.720733
C    -4.879536  -2.580891  3.383606
H    -3.860687  -0.698203  3.267378
H    -5.790470  -2.224213  3.881552
H    -4.231056  -3.059855  4.129515
H    -5.152622  -3.317386  2.621386
