36
Energy: -21201.8536954 eV PBE+vdW (tier 2 basis)
C    -1.410994  0.032427  0.124372
C    -0.629689  0.064213  1.416560
O    0.540913  0.409450  1.486618
H    -1.570259  1.064729  -0.214557
H    -2.384188  -0.466725  0.207103
H    -0.809471  -0.469191  -0.642090
N    -1.326363  -0.345594  2.550610
C    -0.734011  -0.173894  3.865710
C    -0.688361  -1.481432  4.678299
O    -0.635577  -1.485942  5.928028
H    -2.327696  -0.486809  2.468918
H    0.328726  0.034593  3.634503
C    -1.237549  1.068096  4.628025
C    -2.744012  1.228823  4.888760
C    -3.389464  0.174251  5.803028
N    -2.605366  -0.093239  7.006588
C    -2.654801  0.558282  8.157803
N    -1.666227  0.370782  9.057845
N    -3.652863  1.409026  8.460024
H    -0.910716  1.937245  4.041089
H    -0.683355  1.127037  5.575280
H    -3.306599  1.242164  3.942008
H    -2.893595  2.225205  5.331277
H    -3.475572  -0.792940  5.288655
H    -4.419718  0.457845  6.060582
H    -1.749679  -0.664101  6.782333
H    -1.784357  0.636735  10.026535
H    -0.927607  -0.290878  8.851230
H    -3.657836  1.929870  9.326069
H    -4.430375  1.543197  7.829657
N    -0.624894  -2.607259  3.950893
C    -0.425702  -3.933450  4.513410
H    -0.637978  -2.493467  2.941254
H    -0.561792  -3.874676  5.596940
H    0.588440  -4.298114  4.302209
H    -1.152414  -4.637260  4.090431
