36
Energy: -21201.5644033 eV PBE+vdW (tier 2 basis)
C    1.383861  2.775966  1.024106
C    0.904652  2.581568  2.447432
O    1.297137  3.265563  3.380008
H    1.421101  3.846821  0.790336
H    0.787437  2.232903  0.278217
H    2.414804  2.402178  0.953594
N    -0.068917  1.592497  2.613779
C    -0.248954  0.981572  3.938445
C    -0.100441  -0.538937  3.701091
O    -0.251440  -0.984113  2.557687
H    -0.111124  0.844017  1.903999
H    0.548911  1.373035  4.586177
C    -1.616152  1.291266  4.585399
C    -1.882197  2.792993  4.841374
C    -2.860644  3.448207  3.865487
N    -2.344072  3.389435  2.494843
C    -2.811806  4.078135  1.464724
N    -2.132807  4.093813  0.298644
N    -3.950887  4.786189  1.558167
H    -1.662994  0.756162  5.542437
H    -2.411948  0.850356  3.963622
H    -0.936686  3.354958  4.841122
H    -2.315638  2.921181  5.841803
H    -3.008878  4.501749  4.148673
H    -3.837273  2.936667  3.917200
H    -1.548542  2.736920  2.343420
H    -2.591476  4.348237  -0.566382
H    -1.234344  3.633675  0.228592
H    -4.197595  5.474550  0.859350
H    -4.525617  4.736601  2.388307
N    0.166238  -1.339234  4.757012
C    0.424766  -0.975918  6.142611
H    0.193307  -2.326857  4.516030
H    -0.484062  -1.023313  6.760649
H    0.847066  0.032371  6.210320
H    1.162024  -1.669424  6.562080
