36
Energy: -21201.717738 eV PBE+vdW (tier 2 basis)
C    -1.406197  -0.299149  0.060670
C    -0.851442  0.081396  1.411391
O    0.362191  0.070933  1.647405
H    -1.138618  -1.344061  -0.143153
H    -0.918443  0.313514  -0.706920
H    -2.493366  -0.188390  -0.024468
N    -1.771948  0.440047  2.360218
C    -1.506017  0.723464  3.776385
C    -0.700291  2.010506  4.086294
O    -1.056949  2.745799  5.038214
H    -2.736148  0.507577  2.059232
H    -2.496999  0.942051  4.189355
C    -0.888642  -0.496521  4.512532
C    -1.877132  -1.612180  4.900342
C    -2.548062  -1.513450  6.281592
N    -3.613251  -0.503740  6.417129
C    -3.425296  0.820851  6.534901
N    -4.424464  1.663012  6.213237
N    -2.267764  1.352959  6.941301
H    -0.349448  -0.144143  5.404089
H    -0.113428  -0.908633  3.854717
H    -1.329200  -2.566007  4.913816
H    -2.648263  -1.730962  4.122470
H    -1.793611  -1.358085  7.067299
H    -3.023931  -2.471519  6.522945
H    -4.568536  -0.833845  6.331014
H    -5.261896  1.350294  5.740312
H    -4.375750  2.628665  6.515082
H    -1.843716  2.095589  6.305826
H    -1.582981  0.703343  7.312367
N    0.375784  2.259549  3.343487
C    1.232130  3.416362  3.568165
H    0.629144  1.543826  2.644880
H    1.957608  3.474387  2.751995
H    1.769119  3.333017  4.522786
H    0.635681  4.335937  3.590773
