36
Energy: -21202.1136875 eV PBE+vdW (tier 2 basis)
C    0.282311  0.413462  0.348074
C    0.211755  0.405495  1.850259
O    1.086618  0.989207  2.538946
H    0.264558  1.451711  -0.007131
H    -0.534987  -0.140545  -0.125259
H    1.240430  -0.021241  0.036445
N    -0.815593  -0.251127  2.410245
C    -1.042816  -0.376797  3.839261
C    -2.103627  -1.491931  3.981985
O    -2.840192  -1.759550  3.034290
H    -1.526234  -0.727909  1.848159
H    -0.101378  -0.699540  4.313120
C    -1.544560  0.959305  4.461953
C    -1.141942  1.233759  5.917397
C    0.376462  1.184535  6.190716
N    1.171994  1.778164  5.120783
C    1.598116  3.034076  5.018252
N    1.964928  3.476812  3.801646
N    1.656848  3.865667  6.075231
H    -2.638958  0.999843  4.376325
H    -1.167167  1.775232  3.831109
H    -1.632843  0.531145  6.607836
H    -1.525104  2.229637  6.182898
H    0.725937  0.147560  6.290649
H    0.600690  1.658213  7.155424
H    1.148857  1.278932  4.199026
H    2.566152  4.283428  3.698422
H    1.867431  2.835138  3.011932
H    1.946023  4.827839  5.964293
H    1.547090  3.518808  7.017603
N    -2.179765  -2.077602  5.199811
C    -3.156893  -3.110503  5.521217
H    -1.464389  -1.864180  5.884737
H    -3.655305  -2.880167  6.470368
H    -2.681195  -4.097605  5.593103
H    -3.899249  -3.134661  4.718298
