36
Energy: -21201.9480448 eV PBE+vdW (tier 2 basis)
C    -0.160910  1.744028  1.006603
C    0.056921  1.177402  2.386815
O    1.201080  0.910653  2.799164
H    0.404783  2.680344  0.917944
H    -1.212004  1.938310  0.766104
H    0.253712  1.047493  0.267339
N    -1.051460  0.995344  3.144887
C    -1.109847  0.526929  4.535987
C    0.025049  1.066998  5.442749
O    0.688873  0.305853  6.146148
H    -1.937918  1.234153  2.714036
H    -2.023315  0.992930  4.943112
C    -1.341131  -0.993699  4.674104
C    -0.436876  -2.006127  3.949527
C    0.936439  -2.322301  4.556160
N    1.935418  -1.341740  4.138452
C    3.058627  -1.063635  4.781802
N    3.695315  0.093311  4.510996
N    3.590806  -1.913242  5.681390
H    -2.363722  -1.174058  4.310418
H    -1.357085  -1.217506  5.749898
H    -0.313941  -1.736802  2.888086
H    -0.991054  -2.954748  3.935168
H    1.249213  -3.322653  4.217835
H    0.862998  -2.328182  5.654898
H    1.602705  -0.577510  3.522664
H    4.684625  0.193827  4.693697
H    3.264796  0.734889  3.852297
H    3.089316  -2.754750  5.932227
H    4.270861  -1.576388  6.350269
N    0.182788  2.415959  5.516751
C    -0.554181  3.480641  4.854883
H    0.913115  2.687913  6.168213
H    -0.456734  4.393422  5.452043
H    -1.624422  3.247766  4.789734
H    -0.175664  3.690711  3.843569
