36
Energy: -21201.782008 eV PBE+vdW (tier 2 basis)
C    -1.613410  0.150081  0.215896
C    -2.074269  0.097985  1.654989
O    -3.233464  -0.121455  1.986983
H    -2.100596  1.001305  -0.276998
H    -1.951890  -0.756950  -0.298340
H    -0.527281  0.248429  0.099993
N    -1.097742  0.307719  2.608115
C    -1.473671  0.412555  4.015670
C    -0.418712  1.269018  4.724082
O    0.714316  0.832659  5.026114
H    -0.164976  0.582981  2.321783
H    -2.434926  0.948434  4.030736
C    -1.728102  -0.948357  4.739596
C    -1.191296  -2.235728  4.096230
C    0.327048  -2.323287  3.871956
N    1.112729  -1.816088  4.994736
C    1.516462  -2.492091  6.057633
N    2.006590  -1.811800  7.118532
N    1.451067  -3.834384  6.123510
H    -2.815500  -1.070134  4.810686
H    -1.363149  -0.866038  5.774314
H    -1.679383  -2.399234  3.125111
H    -1.512260  -3.068504  4.740408
H    0.619639  -1.713821  3.008778
H    0.626608  -3.350834  3.620613
H    1.086563  -0.766977  5.055760
H    2.559005  -2.282073  7.823536
H    2.128736  -0.809086  7.039847
H    1.709868  -4.334338  6.962677
H    1.070200  -4.372100  5.357911
N    -0.786308  2.535660  4.978855
C    0.074070  3.528375  5.606523
H    -1.722284  2.815310  4.705440
H    0.083137  4.447626  5.009064
H    1.087707  3.122427  5.662793
H    -0.277524  3.764718  6.619468
