36
Energy: -21202.0004923 eV PBE+vdW (tier 2 basis)
C    0.025031  1.366588  0.591599
C    -0.171303  0.186540  1.513465
O    0.749018  -0.590176  1.793849
H    -0.874055  1.977524  0.452733
H    0.359925  1.000164  -0.386893
H    0.828093  1.997706  0.992167
N    -1.421122  0.035655  2.035352
C    -1.834070  -1.038498  2.939198
C    -0.697074  -1.476804  3.889567
O    -0.262135  -2.639346  3.904787
H    -2.128694  0.710024  1.765941
H    -2.584821  -0.583994  3.606622
C    -2.580478  -2.200425  2.233965
C    -2.048599  -2.784185  0.909079
C    -1.144384  -4.025907  0.979181
N    0.181777  -3.710467  1.493795
C    1.324638  -3.735945  0.821246
N    1.514883  -4.583811  -0.214041
N    2.305968  -2.896256  1.187899
H    -3.585813  -1.807918  2.024822
H    -2.722868  -2.999681  2.975875
H    -2.924605  -3.087215  0.317460
H    -1.545904  -2.006188  0.315068
H    -1.051241  -4.449420  -0.028907
H    -1.602575  -4.795776  1.617698
H    0.164756  -3.238010  2.426786
H    2.310245  -4.477840  -0.828930
H    0.976195  -5.436472  -0.287312
H    3.260119  -3.039803  0.886115
H    2.033256  -1.999845  1.598816
N    -0.275646  -0.578686  4.805721
C    -0.642748  0.819479  4.963852
H    0.465707  -0.938979  5.400777
H    -1.720285  0.966632  4.821435
H    -0.100753  1.472707  4.264804
H    -0.401485  1.128757  5.985902
