36
Energy: -21201.0015254 eV PBE+vdW (tier 2 basis)
C    -1.326893  -1.545457  1.058857
C    -1.301868  -0.883405  2.419527
O    -0.394683  -1.070965  3.220360
H    -0.296425  -1.786060  0.782966
H    -1.798115  -0.952958  0.266737
H    -1.885894  -2.489679  1.131584
N    -2.366415  -0.074076  2.788557
C    -3.534549  0.362584  2.035215
C    -4.305676  -0.773225  1.307831
O    -4.577086  -0.676804  0.110840
H    -2.277270  0.246523  3.748452
H    -4.233220  0.765301  2.788547
C    -3.221502  1.486884  1.029592
C    -2.699181  2.759333  1.697668
C    -2.150543  3.784728  0.705785
N    -3.176080  4.156592  -0.281691
C    -3.120725  5.201819  -1.105900
N    -4.177122  5.509224  -1.879828
N    -2.023527  5.970808  -1.159218
H    -4.147478  1.661163  0.459097
H    -2.488329  1.112751  0.299573
H    -1.870748  2.508961  2.376348
H    -3.482977  3.228004  2.313613
H    -1.274827  3.363777  0.183429
H    -1.836757  4.693310  1.240249
H    -3.917234  3.476974  -0.431111
H    -4.085310  6.136631  -2.668315
H    -5.063952  5.035674  -1.765110
H    -2.031496  6.865760  -1.631185
H    -1.166054  5.689652  -0.702388
N    -4.683805  -1.848615  2.046722
C    -4.522096  -2.099717  3.472759
H    -5.174548  -2.549061  1.498376
H    -5.256000  -2.855120  3.772731
H    -4.721878  -1.197097  4.064280
H    -3.518611  -2.468971  3.724920
