36
Energy: -21201.6589076 eV PBE+vdW (tier 2 basis)
C    -0.895461  -0.163873  -0.810682
C    -0.114566  0.982141  -0.198575
O    0.838492  1.507616  -0.751873
H    -0.431830  -0.407154  -1.769826
H    -0.880687  -1.059742  -0.174155
H    -1.946233  0.105427  -0.988375
N    -0.530770  1.451739  1.041019
C    -1.526995  0.875852  1.931357
C    -2.286416  2.048840  2.586616
O    -2.107423  2.369258  3.783604
H    0.089076  2.163659  1.422639
H    -2.242343  0.317650  1.309307
C    -0.907351  -0.084701  2.960888
C    -1.926716  -0.849339  3.838428
C    -1.614904  -0.781512  5.335305
N    -1.667126  0.616125  5.760880
C    -1.592880  1.064162  7.002108
N    -1.812241  2.375444  7.241966
N    -1.323610  0.245810  8.036514
H    -0.287747  -0.795447  2.399609
H    -0.206494  0.490525  3.583817
H    -1.960642  -1.906803  3.548237
H    -2.946097  -0.462562  3.683357
H    -0.613300  -1.202805  5.529572
H    -2.351223  -1.375758  5.899807
H    -1.786210  1.322218  4.989752
H    -1.984093  2.992356  6.455791
H    -1.488329  2.803810  8.099227
H    -1.148147  -0.737874  7.885035
H    -1.439835  0.555149  8.992180
N    -3.124801  2.761645  1.814334
C    -3.414913  2.589262  0.395173
H    -3.538096  3.561849  2.285934
H    -3.724596  1.559563  0.175491
H    -2.550038  2.846043  -0.229823
H    -4.247792  3.248769  0.135043
