36
Energy: -21201.5108665 eV PBE+vdW (tier 2 basis)
C    1.125948  0.322713  0.108239
C    0.952111  0.103580  1.597271
O    1.913068  -0.009622  2.353119
H    1.535074  -0.595693  -0.333288
H    1.867994  1.114228  -0.045373
H    0.201874  0.584523  -0.421236
N    -0.362636  0.043844  2.015341
C    -0.920207  -0.298760  3.325874
C    -1.446175  0.904188  4.143753
O    -2.614708  0.824804  4.597665
H    -1.054155  0.184059  1.288338
H    -1.858898  -0.815639  3.087575
C    -0.048816  -1.291353  4.138304
C    -0.306319  -1.426264  5.646426
C    -1.718228  -1.760817  6.158795
N    -2.421436  -2.796946  5.394692
C    -3.592130  -2.643494  4.756866
N    -4.081178  -1.437612  4.479213
N    -4.261819  -3.754765  4.374113
H    1.002191  -1.011051  4.014407
H    -0.153009  -2.269958  3.646921
H    -0.006524  -0.502409  6.164666
H    0.392343  -2.196006  6.006370
H    -2.352587  -0.871124  6.164993
H    -1.646510  -2.103853  7.201039
H    -2.031420  -3.733693  5.406724
H    -3.501545  -0.551324  4.527602
H    -5.044717  -1.356537  4.179027
H    -5.061438  -3.688506  3.758707
H    -4.103244  -4.643167  4.831205
N    -0.712683  1.996755  4.390239
C    0.656485  2.325266  4.011748
H    -1.231279  2.704672  4.906894
H    0.677796  2.948975  3.107136
H    1.247794  1.424017  3.824441
H    1.119514  2.884502  4.832381
