36
Energy: -21201.7555615 eV PBE+vdW (tier 2 basis)
C    0.309588  0.267621  0.373917
C    -0.122708  0.975531  1.640434
O    0.613679  1.700130  2.289144
H    1.304047  0.632442  0.105535
H    -0.380185  0.443780  -0.462968
H    0.370138  -0.818851  0.534156
N    -1.442042  0.786922  2.054602
C    -2.412159  -0.156531  1.522769
C    -3.239866  0.424021  0.354889
O    -3.952204  -0.311111  -0.359539
H    -1.621843  1.188274  2.972660
H    -1.883535  -1.020862  1.091298
C    -3.289313  -0.680428  2.685901
C    -4.171758  -1.903371  2.376878
C    -5.612096  -1.554130  1.969875
N    -6.348381  -2.701586  1.431670
C    -6.279363  -3.118297  0.157117
N    -5.505740  -2.497855  -0.727942
N    -7.008485  -4.194247  -0.211062
H    -3.899861  0.145796  3.086412
H    -2.586852  -0.953957  3.484657
H    -4.211026  -2.548133  3.266306
H    -3.701846  -2.505532  1.585950
H    -5.634895  -0.756240  1.218621
H    -6.180195  -1.190348  2.835673
H    -6.786812  -3.330146  2.095525
H    -4.860672  -1.713377  -0.484461
H    -5.592969  -2.726358  -1.710182
H    -6.945358  -4.565300  -1.149441
H    -7.770234  -4.529345  0.363555
N    -3.130971  1.744732  0.165728
C    -3.806864  2.484467  -0.886819
H    -2.477704  2.224427  0.782085
H    -4.424745  1.786959  -1.459594
H    -3.075258  2.952910  -1.557399
H    -4.444479  3.267327  -0.457106
