36
Energy: -21201.1679972 eV PBE+vdW (tier 2 basis)
C    -0.895472  -1.083709  -0.937475
C    -0.268268  -0.857737  0.409892
O    0.938540  -1.092847  0.613263
H    -1.641735  -0.329939  -1.212510
H    -1.415397  -2.053291  -0.933705
H    -0.101477  -1.125323  -1.687576
N    -1.033926  -0.403213  1.449567
C    -2.401312  0.134253  1.466908
C    -3.421767  -0.817995  0.769487
O    -4.095830  -0.437369  -0.181108
H    -0.548952  -0.455967  2.340264
H    -2.682423  0.158881  2.532459
C    -2.534992  1.557857  0.900059
C    -2.150168  2.745784  1.800981
C    -0.675645  3.183128  1.868031
N    0.128359  2.488916  2.885336
C    1.052537  1.542731  2.682174
N    1.671582  1.355783  1.510611
N    1.378554  0.708297  3.693062
H    -3.592088  1.672753  0.627749
H    -1.995684  1.624271  -0.056851
H    -2.535888  2.601555  2.824076
H    -2.692563  3.621587  1.415773
H    -0.618408  4.254634  2.099929
H    -0.199532  3.055387  0.888253
H    -0.106933  2.699772  3.850586
H    1.499058  2.029885  0.774006
H    1.738056  0.364602  1.185727
H    2.259666  0.208696  3.653030
H    0.914356  0.760548  4.590778
N    -3.526347  -2.080792  1.268535
C    -2.867238  -2.680702  2.418169
H    -4.204053  -2.646944  0.765587
H    -1.847095  -3.021519  2.189577
H    -3.453518  -3.547360  2.740575
H    -2.827062  -1.985065  3.267558
