36
Energy: -21201.9639454 eV PBE+vdW (tier 2 basis)
C    1.667962  0.964201  1.307824
C    0.533669  0.688774  2.260939
O    0.617073  -0.194927  3.144426
H    1.468071  1.793441  0.620935
H    1.861372  0.054809  0.724124
H    2.579805  1.180873  1.879234
N    -0.567470  1.447443  2.127447
C    -1.828247  1.197828  2.810815
C    -2.908060  1.676035  1.809778
O    -2.599300  2.483249  0.930153
H    -0.681368  2.093113  1.338515
H    -1.903621  0.116346  2.996938
C    -1.993044  1.955047  4.149815
C    -1.151645  1.427006  5.325689
C    0.252441  2.037987  5.422542
N    1.030278  1.495305  6.540675
C    1.890529  0.465816  6.489491
N    2.568582  0.151716  7.617609
N    2.088851  -0.236222  5.379372
H    -3.050776  1.890909  4.438279
H    -1.797775  3.024081  3.972097
H    -1.069465  0.332591  5.261797
H    -1.682248  1.650362  6.263752
H    0.186960  3.123654  5.577990
H    0.829548  1.887733  4.505165
H    0.791236  1.831540  7.467284
H    3.154392  -0.671357  7.654979
H    2.665800  0.819510  8.370850
H    2.851751  -0.901385  5.353473
H    1.490760  -0.181856  4.516819
N    -4.170441  1.206564  1.949769
C    -4.692601  0.242439  2.905474
H    -4.824390  1.615680  1.287316
H    -5.504063  -0.323152  2.434296
H    -5.089977  0.724828  3.811371
H    -3.919936  -0.476283  3.199812
