36
Energy: -21201.6055173 eV PBE+vdW (tier 2 basis)
C    -0.440759  0.241193  0.058897
C    -0.381168  0.276827  1.567621
O    0.692979  0.378023  2.180855
H    0.133413  1.082166  -0.347556
H    0.044105  -0.680904  -0.288213
H    -1.461000  0.273996  -0.338961
N    -1.577990  0.197541  2.207982
C    -1.709688  -0.014821  3.637417
C    -2.790088  -1.106467  3.809902
O    -3.658295  -1.240734  2.949940
H    -2.421310  -0.052590  1.688151
H    -0.732288  -0.355941  4.005692
C    -2.184667  1.258522  4.382574
C    -1.273823  2.490239  4.292495
C    -0.091879  2.542548  5.274373
N    0.994747  1.589879  5.025040
C    1.978519  1.760495  4.139257
N    2.998574  0.881303  4.075702
N    2.039651  2.869990  3.389125
H    -2.373501  1.013764  5.440147
H    -3.164774  1.520339  3.958473
H    -1.881802  3.380179  4.513102
H    -0.929450  2.614377  3.253800
H    -0.443359  2.351238  6.297167
H    0.350340  3.548707  5.288660
H    0.884020  0.650774  5.388949
H    3.397594  0.693132  3.161847
H    3.003206  0.092756  4.711325
H    2.844561  3.017702  2.793371
H    1.190263  3.355870  3.132525
N    -2.764227  -1.850639  4.946005
C    -1.741581  -1.870940  5.978967
H    -3.522879  -2.523485  5.010376
H    -1.672711  -0.913439  6.517253
H    -0.752026  -2.133297  5.575235
H    -2.008644  -2.636347  6.713871
