36
Energy: -21201.391335 eV PBE+vdW (tier 2 basis)
C    -2.845063  0.718698  -0.174615
C    -1.438405  0.695550  0.384905
O    -0.483991  1.211739  -0.176519
H    -3.261736  -0.293705  -0.275182
H    -3.526914  1.295885  0.466690
H    -2.809661  1.187885  -1.160774
N    -1.248472  0.040234  1.595566
C    -2.262904  -0.427180  2.512034
C    -3.149507  0.629381  3.211445
O    -4.340106  0.329437  3.440054
H    -0.286386  0.085344  1.921297
H    -3.010545  -0.979221  1.920916
C    -1.638805  -1.393347  3.548920
C    -1.539305  -2.846471  3.042391
C    -2.670344  -3.760480  3.539673
N    -3.991867  -3.149033  3.335982
C    -4.942757  -2.983115  4.270975
N    -5.085584  -3.896849  5.247692
N    -5.720571  -1.902818  4.200826
H    -2.223029  -1.355663  4.479582
H    -0.641014  -1.015603  3.813345
H    -0.598326  -3.308073  3.370257
H    -1.501558  -2.853335  1.942220
H    -2.556364  -3.939196  4.617850
H    -2.619408  -4.734283  3.031962
H    -4.102784  -2.554250  2.520766
H    -5.669126  -3.706998  6.052223
H    -4.749302  -4.843756  5.125619
H    -6.576276  -1.847435  4.739787
H    -5.308377  -1.029627  3.804143
N    -2.670498  1.834604  3.564277
C    -1.315487  2.379832  3.477556
H    -3.378862  2.429623  3.987265
H    -1.044345  2.663216  2.453290
H    -0.572665  1.674963  3.868293
H    -1.278962  3.275211  4.105767
