36
Energy: -21201.2143653 eV PBE+vdW (tier 2 basis)
C    -0.577705  -0.906807  1.222499
C    -1.324925  -0.192845  2.317606
O    -0.760233  0.661415  3.026924
H    -1.101188  -0.880148  0.258809
H    0.406953  -0.443218  1.125194
H    -0.448075  -1.965707  1.484312
N    -2.628972  -0.519929  2.594024
C    -3.723315  -1.026405  1.746481
C    -3.295243  -2.090777  0.711051
O    -3.287860  -1.836707  -0.492264
H    -2.952180  -0.040060  3.432921
H    -4.417453  -1.526585  2.440452
C    -4.507459  0.135389  1.093001
C    -3.676066  1.064958  0.194852
C    -4.056039  2.559448  0.301509
N    -2.874907  3.440961  0.283306
C    -1.907575  3.373690  1.212187
N    -2.168302  2.931801  2.450510
N    -0.658113  3.765612  0.918952
H    -4.948839  0.715485  1.921394
H    -5.354601  -0.291133  0.539877
H    -2.618515  0.979972  0.475872
H    -3.727351  0.727700  -0.845529
H    -4.642704  2.759966  1.211878
H    -4.693168  2.882846  -0.528733
H    -2.686428  3.972437  -0.559498
H    -3.142376  2.782898  2.685237
H    -1.507926  2.258399  2.894370
H    -0.344973  3.877000  -0.036506
H    0.014598  3.907867  1.662747
N    -2.957251  -3.312403  1.199600
C    -3.007306  -3.780264  2.579291
H    -2.738655  -3.989117  0.473484
H    -4.039339  -3.879105  2.947980
H    -2.448875  -3.115594  3.250241
H    -2.541056  -4.769144  2.624233
