36
Energy: -21201.9573983 eV PBE+vdW (tier 2 basis)
C    -0.251149  1.403713  -0.557787
C    -0.085140  0.310995  0.462582
O    1.030328  -0.013417  0.894203
H    0.632347  1.404961  -1.203954
H    -0.284260  2.375031  -0.043936
H    -1.154539  1.296698  -1.168945
N    -1.203096  -0.353083  0.902745
C    -2.548008  0.187180  1.009244
C    -2.533297  1.616511  1.603335
O    -1.706137  1.960455  2.461990
H    -0.975715  -1.093283  1.559865
H    -3.004464  0.244962  0.007006
C    -3.451822  -0.756165  1.855186
C    -2.879833  -1.472297  3.097465
C    -2.304419  -0.642901  4.263284
N    -0.957282  -0.133765  4.004886
C    0.197286  -0.711093  4.351961
N    1.291870  -0.479992  3.621018
N    0.262720  -1.529984  5.425930
H    -3.817842  -1.544872  1.183210
H    -4.338947  -0.177199  2.150286
H    -2.131330  -2.227360  2.805115
H    -3.715178  -2.061038  3.505265
H    -2.300039  -1.269641  5.162601
H    -2.944386  0.221530  4.485987
H    -0.939775  0.681273  3.357783
H    1.220031  -0.249640  2.605376
H    2.206549  -0.704698  3.992816
H    -0.398152  -1.437242  6.185924
H    1.099987  -2.067906  5.605932
N    -3.488766  2.438122  1.129396
C    -3.690626  3.802628  1.599013
H    -4.093737  2.091574  0.392413
H    -4.696044  3.920813  2.022356
H    -3.563797  4.515188  0.774446
H    -2.945058  4.010974  2.371390
