36
Energy: -21202.0170014 eV PBE+vdW (tier 2 basis)
C    -2.524687  1.780118  -0.183772
C    -2.052591  1.108826  1.084934
O    -1.117218  0.321923  1.128195
H    -1.764024  2.506307  -0.500367
H    -3.485112  2.299210  -0.079155
H    -2.602663  1.027578  -0.976432
N    -2.762259  1.429154  2.237327
C    -2.255066  1.012021  3.535045
C    -2.727406  -0.391937  3.953661
O    -2.170980  -0.996888  4.892898
H    -3.411011  2.209063  2.202722
H    -1.164687  0.903928  3.422759
C    -2.593979  2.089914  4.589743
C    -2.093793  1.827559  6.015686
C    -0.564198  1.726655  6.106938
N    -0.085186  1.193623  7.382805
C    0.124963  -0.109660  7.630382
N    0.737170  -0.452449  8.785453
N    -0.249669  -1.042071  6.762125
H    -3.686664  2.220850  4.627974
H    -2.177496  3.040637  4.220877
H    -2.543618  0.905320  6.405393
H    -2.442732  2.644753  6.663784
H    -0.098809  2.712105  5.971504
H    -0.160055  1.080067  5.317830
H    -0.000772  1.831892  8.165822
H    0.780454  -1.418715  9.079943
H    1.304358  0.213192  9.293545
H    0.074579  -1.992665  6.891253
H    -0.954420  -0.886219  5.997933
N    -3.760539  -0.901069  3.272432
C    -4.307519  -2.229546  3.494026
H    -4.075759  -0.356723  2.474160
H    -5.401783  -2.193945  3.445746
H    -3.998115  -2.574754  4.484679
H    -3.938111  -2.937997  2.739944
