36
Energy: -21201.8197236 eV PBE+vdW (tier 2 basis)
C    0.191552  -4.233491  2.091405
C    -0.599970  -3.334401  3.011484
O    -0.194104  -2.966007  4.107813
H    -0.352371  -4.536110  1.188828
H    0.502241  -5.125800  2.647498
H    1.105345  -3.705986  1.788628
N    -1.828150  -2.905466  2.526743
C    -2.713727  -2.175579  3.433472
C    -4.135471  -2.082914  2.882461
O    -5.115340  -2.089884  3.658357
H    -2.259694  -3.495733  1.821504
H    -2.781442  -2.736925  4.377911
C    -2.170883  -0.737122  3.749968
C    -1.919112  -0.438876  5.235039
C    -3.155436  -0.047075  6.055345
N    -4.198260  -1.076926  6.076907
C    -4.275935  -2.118288  6.903179
N    -3.696049  -2.119383  8.114876
N    -4.965059  -3.200251  6.494177
H    -2.847330  0.019324  3.320514
H    -1.222085  -0.634230  3.211919
H    -1.217613  0.405576  5.304304
H    -1.407693  -1.300629  5.688131
H    -3.625379  0.855483  5.640794
H    -2.865130  0.215029  7.081814
H    -4.681715  -1.248177  5.176661
H    -3.631209  -2.967567  8.660901
H    -3.236556  -1.294102  8.473455
H    -5.348295  -3.861362  7.156898
H    -5.322527  -3.199155  5.539453
N    -4.268684  -1.940323  1.551758
C    -5.549522  -1.753525  0.880804
H    -3.419535  -1.836548  1.003767
H    -5.595289  -2.381057  -0.016299
H    -5.691469  -0.703395  0.592275
H    -6.347019  -2.042347  1.570543
