36
Energy: -21201.8552714 eV PBE+vdW (tier 2 basis)
C    1.012113  1.074728  0.896862
C    0.446801  1.039277  2.293796
O    1.144844  1.336072  3.280734
H    0.292671  0.786365  0.122041
H    1.382499  2.085650  0.684809
H    1.877144  0.400834  0.850474
N    -0.852597  0.664843  2.414442
C    -1.554021  0.502045  3.685793
C    -2.305813  -0.862816  3.762078
O    -3.304553  -0.984231  4.460728
H    -1.378540  0.500066  1.561237
H    -0.759212  0.439833  4.446978
C    -2.502988  1.660565  4.048521
C    -1.883006  2.740394  4.943009
C    -0.942278  3.711473  4.216915
N    -0.154700  4.543081  5.135303
C    0.972126  4.149625  5.746395
N    1.580285  3.014397  5.409867
N    1.486120  4.918633  6.730708
H    -3.344687  1.203229  4.585498
H    -2.921393  2.099697  3.129480
H    -1.334777  2.249258  5.762229
H    -2.687012  3.321026  5.418918
H    -1.509136  4.399116  3.576400
H    -0.242705  3.184564  3.558992
H    -0.573839  5.408411  5.455679
H    2.422088  2.737712  5.898532
H    1.293496  2.413374  4.613240
H    2.421731  4.756956  7.078583
H    1.043927  5.786228  7.002386
N    -1.752802  -1.876853  3.046613
C    -2.268234  -3.237402  3.102867
H    -0.870054  -1.712605  2.577348
H    -2.214112  -3.699209  2.110417
H    -3.311914  -3.194675  3.428702
H    -1.704789  -3.853420  3.817973
