36
Energy: -21201.7566302 eV PBE+vdW (tier 2 basis)
C    -1.532572  3.450506  2.194793
C    -1.376592  1.971268  2.476086
O    -0.461759  1.293054  2.021086
H    -2.288085  3.940929  2.821524
H    -1.813709  3.579998  1.141286
H    -0.563877  3.943807  2.333254
N    -2.334053  1.417387  3.294930
C    -2.392410  -0.020075  3.494673
C    -3.772642  -0.371194  4.043473
O    -4.395366  0.406104  4.806425
H    -3.149970  1.956234  3.565050
H    -2.266684  -0.499323  2.512399
C    -1.240307  -0.597344  4.390200
C    -0.656775  0.293381  5.495253
C    -1.524989  0.544282  6.737111
N    -2.634637  1.471531  6.523109
C    -2.574139  2.790670  6.619536
N    -3.643015  3.516969  6.215227
N    -1.485760  3.433217  7.077015
H    -0.416726  -0.831262  3.705563
H    -1.574669  -1.553474  4.822749
H    -0.331955  1.252792  5.066259
H    0.259606  -0.203816  5.846649
H    -0.907365  0.903903  7.573111
H    -1.972406  -0.395483  7.090332
H    -3.420991  1.091714  5.939439
H    -3.698944  4.507183  6.414452
H    -4.522111  3.038363  6.055318
H    -0.644758  2.925471  7.312794
H    -1.491489  4.429452  7.247464
N    -4.302558  -1.555961  3.700713
C    -3.765129  -2.555486  2.779817
H    -5.207370  -1.740532  4.126592
H    -4.485325  -3.376031  2.714551
H    -2.812000  -2.968145  3.133786
H    -3.627288  -2.143043  1.772010
