36
Energy: -21201.9042872 eV PBE+vdW (tier 2 basis)
C    -0.339029  -0.001796  -0.212262
C    -0.335847  -0.374446  1.248142
O    0.697600  -0.709988  1.844332
H    0.297460  0.882270  -0.347199
H    -1.336831  0.215474  -0.610303
H    0.112777  -0.816934  -0.789966
N    -1.536748  -0.318731  1.896035
C    -1.653819  -0.513919  3.342870
C    -1.672095  -2.024254  3.686826
O    -2.686955  -2.576318  4.163716
H    -2.376042  -0.096381  1.371800
H    -0.730915  -0.094939  3.777040
C    -2.880802  0.229003  3.878059
C    -2.857408  0.650552  5.355959
C    -2.953140  -0.437810  6.431492
N    -1.640422  -0.999025  6.813286
C    -1.394364  -2.268810  7.183991
N    -0.400592  -2.505021  8.065313
N    -2.103567  -3.274407  6.673928
H    -3.780531  -0.372583  3.682253
H    -2.976965  1.154923  3.292635
H    -3.724545  1.308003  5.511890
H    -1.978105  1.286932  5.553498
H    -3.596090  -1.256973  6.097848
H    -3.400448  -0.007240  7.340454
H    -0.945802  -0.317872  7.106302
H    -0.012499  -3.432759  8.176701
H    -0.063896  -1.780853  8.686633
H    -2.001396  -4.203545  7.062753
H    -2.491038  -3.165826  5.704668
N    -0.517795  -2.655650  3.433213
C    -0.344470  -4.094489  3.543102
H    0.208244  -2.081830  2.972068
H    0.246667  -4.456447  2.694626
H    -1.324838  -4.583137  3.533749
H    0.182233  -4.367708  4.469272
