36
Energy: -21201.4775837 eV PBE+vdW (tier 2 basis)
C    -0.309547  1.963753  1.121510
C    0.350997  1.102357  2.166753
O    1.553384  1.232712  2.458951
H    0.299908  2.861193  0.983531
H    -1.334911  2.247379  1.387060
H    -0.346524  1.433404  0.158065
N    -0.407516  0.162988  2.810592
C    -1.632785  -0.492440  2.349046
C    -2.847926  -0.336825  3.301046
O    -3.823207  -1.065376  3.155071
H    0.111463  -0.335367  3.532491
H    -1.936386  -0.010163  1.408399
C    -1.359234  -1.983431  2.079316
C    -0.398159  -2.218658  0.901005
C    0.608986  -3.362634  1.094116
N    1.423933  -3.260495  2.323278
C    2.115652  -2.182833  2.719896
N    2.380250  -2.004497  4.030395
N    2.543360  -1.249302  1.864927
H    -2.326041  -2.473491  1.915560
H    -0.955712  -2.419938  3.008523
H    0.148608  -1.292477  0.672782
H    -0.965537  -2.451900  -0.010764
H    1.267032  -3.450889  0.216516
H    0.085018  -4.322417  1.178796
H    1.357928  -4.029668  2.980384
H    3.136509  -1.389238  4.307785
H    1.990680  -2.617348  4.735186
H    2.462302  -0.249411  2.153246
H    2.457468  -1.432273  0.872529
N    -2.744611  0.645810  4.230274
C    -3.825193  0.974621  5.147645
H    -1.897675  1.202706  4.241758
H    -3.475212  0.940994  6.186990
H    -4.619356  0.234397  5.009361
H    -4.229373  1.973969  4.938593
