36
Energy: -21201.8524336 eV PBE+vdW (tier 2 basis)
C    0.337788  0.824910  -0.239536
C    0.168151  0.663578  1.248250
O    1.129547  0.293389  1.956427
H    -0.565541  1.184493  -0.743478
H    0.626279  -0.143823  -0.667213
H    1.162819  1.521811  -0.431319
N    -1.051387  0.945015  1.746115
C    -1.504447  0.712228  3.108349
C    -2.995669  0.316501  2.970980
O    -3.642496  0.703611  1.999502
H    -1.827668  1.155365  1.113288
H    -0.919718  -0.115662  3.536633
C    -1.390339  1.982325  3.985910
C    0.045290  2.495009  4.183384
C    0.738811  2.071486  5.482504
N    0.656672  0.645341  5.871868
C    1.524446  -0.318953  5.506959
N    1.755854  -1.331556  6.371667
N    2.124158  -0.279133  4.324046
H    -1.874401  1.790234  4.956733
H    -1.994423  2.760272  3.498961
H    0.040015  3.594289  4.205147
H    0.665255  2.224304  3.320315
H    0.293963  2.613541  6.327031
H    1.800838  2.351365  5.442659
H    0.101916  0.440781  6.694777
H    2.220083  -2.176426  6.063081
H    1.642913  -1.203529  7.369399
H    2.887249  -0.924123  4.149937
H    1.648466  0.101482  3.457405
N    -3.508382  -0.415281  3.988484
C    -4.907104  -0.818025  4.050617
H    -2.880113  -0.735869  4.715519
H    -5.004435  -1.909734  3.990295
H    -5.422580  -0.367965  3.197101
H    -5.372223  -0.464820  4.979633
