36
Energy: -21202.1071607 eV PBE+vdW (tier 2 basis)
C    0.779532  1.457890  1.673757
C    0.349950  0.232840  2.442499
O    1.132381  -0.383143  3.177938
H    -0.038598  1.967278  1.151821
H    1.263034  2.158459  2.364383
H    1.535293  1.156347  0.936445
N    -0.953477  -0.149945  2.282116
C    -1.571204  -1.398253  2.749219
C    -1.725745  -1.538535  4.281870
O    -2.807432  -1.995656  4.735719
H    -1.531955  0.435030  1.691394
H    -2.606362  -1.336990  2.389539
C    -0.892849  -2.638255  2.109838
C    -1.429942  -4.022851  2.507257
C    -2.875178  -4.357515  2.111530
N    -3.834321  -3.710043  3.007013
C    -5.122060  -3.992263  3.096136
N    -5.739568  -4.809129  2.219145
N    -5.841956  -3.451639  4.104018
H    0.176372  -2.605412  2.356740
H    -0.966233  -2.515326  1.018282
H    -1.305880  -4.197524  3.587158
H    -0.788201  -4.766338  2.014893
H    -3.010506  -5.449936  2.166044
H    -3.058683  -4.049376  1.067065
H    -3.453918  -2.998298  3.702639
H    -6.656232  -5.186241  2.420819
H    -5.216646  -5.246884  1.473061
H    -6.850090  -3.394509  4.045329
H    -5.379389  -2.815816  4.744795
N    -0.683394  -1.222031  5.042389
C    -0.679761  -1.336043  6.492648
H    0.166059  -0.907568  4.537850
H    0.293155  -1.716926  6.822185
H    -1.471057  -2.023061  6.807321
H    -0.852138  -0.358337  6.963147
