36
Energy: -21200.9614051 eV PBE+vdW (tier 2 basis)
C    -0.095485  1.338986  0.429575
C    -0.592536  1.278910  1.864244
O    -0.078604  1.930665  2.761989
H    0.168803  0.345818  0.039549
H    -0.847308  1.780076  -0.240826
H    0.794624  1.972922  0.414798
N    -1.673577  0.460494  2.128673
C    -2.378842  -0.431703  1.220928
C    -3.897806  -0.356569  1.517687
O    -4.506568  -1.323196  1.979720
H    -1.923319  0.424662  3.115001
H    -2.213324  -0.046989  0.202928
C    -1.843373  -1.872716  1.340172
C    -2.483980  -2.938070  0.442030
C    -2.280402  -2.717453  -1.056339
N    -2.976829  -3.782446  -1.795402
C    -2.752955  -4.146424  -3.057109
N    -1.939656  -3.423642  -3.841511
N    -3.332301  -5.253137  -3.555675
H    -1.985912  -2.196173  2.379790
H    -0.755772  -1.834146  1.173311
H    -3.560750  -2.973670  0.666098
H    -2.057259  -3.917008  0.707837
H    -1.209593  -2.757555  -1.310197
H    -2.677648  -1.738714  -1.371642
H    -3.732692  -4.245382  -1.298417
H    -1.600581  -3.787583  -4.722639
H    -1.595842  -2.520516  -3.543751
H    -3.369713  -5.423197  -4.552421
H    -3.819778  -5.905348  -2.954945
N    -4.524585  0.821882  1.250893
C    -3.954375  2.078360  0.785467
H    -5.497815  0.827127  1.543509
H    -3.292113  1.920212  -0.075861
H    -3.388417  2.600420  1.569122
H    -4.772451  2.725492  0.452878
