36
Energy: -21201.7448965 eV PBE+vdW (tier 2 basis)
C    -3.081318  -1.105507  0.903212
C    -2.249377  -0.372570  1.925711
O    -1.392867  0.472441  1.579152
H    -2.408222  -1.683037  0.256331
H    -3.818472  -1.784141  1.345394
H    -3.596839  -0.376910  0.265206
N    -2.467452  -0.690093  3.211890
C    -1.726124  -0.181111  4.353114
C    -2.223411  -1.032008  5.544755
O    -3.252293  -1.701074  5.437358
H    -3.181865  -1.371626  3.489214
H    -0.652894  -0.371360  4.189033
C    -1.934074  1.342985  4.598265
C    -0.739281  2.180777  4.134734
C    -1.026826  3.669513  3.940470
N    -2.183380  4.012538  3.082565
C    -2.225170  3.981625  1.738218
N    -1.514050  3.095641  1.042894
N    -3.006814  4.879586  1.102447
H    -2.143618  1.532094  5.660973
H    -2.844686  1.633881  4.055881
H    -0.341875  1.754530  3.205684
H    0.078070  2.118446  4.869643
H    -0.135213  4.164758  3.529993
H    -1.247298  4.146394  4.904205
H    -2.926668  4.538364  3.527580
H    -1.443564  3.225000  0.039539
H    -1.377998  2.108952  1.374386
H    -3.290436  4.734770  0.141770
H    -3.278998  5.747994  1.545194
N    -1.496660  -0.999410  6.688370
C    -0.249175  -0.300144  6.952860
H    -1.901911  -1.550992  7.439369
H    -0.407779  0.746911  7.253260
H    0.410301  -0.320005  6.076616
H    0.274393  -0.811631  7.767107
