36
Energy: -21201.1124462 eV PBE+vdW (tier 2 basis)
C    -0.847222  -0.502671  -0.171519
C    -0.614478  0.481000  0.958488
O    -0.050731  1.555793  0.795997
H    -1.919730  -0.676300  -0.339271
H    -0.414791  -0.077119  -1.080360
H    -0.378437  -1.477214  0.022531
N    -1.088188  0.135048  2.210284
C    -1.665765  -1.127932  2.648372
C    -2.747828  -0.842067  3.717392
O    -2.578590  -1.146169  4.901175
H    -0.916534  0.851868  2.911144
H    -2.165967  -1.584830  1.782226
C    -0.623859  -2.142267  3.164559
C    0.334819  -1.572454  4.214938
C    1.216732  -2.658763  4.820129
N    2.075929  -2.075168  5.863239
C    3.124007  -2.668085  6.432425
N    3.927446  -1.977680  7.261571
N    3.399442  -3.954549  6.172702
H    -0.050497  -2.512020  2.300556
H    -1.169970  -2.999927  3.584366
H    -0.264994  -1.113443  5.015386
H    0.972320  -0.797322  3.763198
H    1.861326  -3.112569  4.050938
H    0.585706  -3.448056  5.261637
H    1.785671  -1.174142  6.231497
H    4.576665  -2.449314  7.877755
H    3.846051  -0.973384  7.353236
H    4.284367  -4.366628  6.438373
H    2.739689  -4.538025  5.675351
N    -3.879456  -0.225620  3.288738
C    -4.237542  0.179560  1.936166
H    -4.539129  -0.028874  4.035729
H    -4.127219  -0.650027  1.224149
H    -3.638029  1.030119  1.584722
H    -5.291589  0.473410  1.933566
