36
Energy: -21200.9514872 eV PBE+vdW (tier 2 basis)
C    0.592766  1.428354  2.583708
C    0.130170  0.171489  1.878819
O    0.870312  -0.773037  1.634769
H    0.369905  2.331481  1.998705
H    0.103460  1.542890  3.561789
H    1.672389  1.355089  2.734795
N    -1.200621  0.116253  1.497728
C    -2.261527  1.022818  1.884568
C    -2.700953  1.028480  3.372022
O    -3.141535  2.085271  3.835179
H    -1.446747  -0.772530  1.069956
H    -1.915954  2.056283  1.732452
C    -3.486180  0.801426  0.971561
C    -4.557556  1.881904  1.138164
C    -5.766545  1.650324  0.236444
N    -6.759681  2.709039  0.478400
C    -7.978819  2.770892  -0.056385
N    -8.344854  1.897518  -1.005533
N    -8.856061  3.700884  0.359188
H    -3.919015  -0.193253  1.171537
H    -3.121182  0.788775  -0.067304
H    -4.117090  2.865067  0.907700
H    -4.882948  1.926113  2.187783
H    -6.228406  0.673734  0.452627
H    -5.461796  1.666278  -0.823556
H    -6.477305  3.459215  1.101958
H    -9.303259  1.835513  -1.323325
H    -7.672597  1.265198  -1.419252
H    -9.704172  3.893467  -0.157807
H    -8.658367  4.288815  1.158644
N    -2.629107  -0.097539  4.130980
C    -2.237812  -1.464798  3.798808
H    -2.926456  0.074600  5.087405
H    -1.155555  -1.576326  3.656279
H    -2.753241  -1.832176  2.901931
H    -2.540726  -2.107951  4.631728
