36
Energy: -21201.9863408 eV PBE+vdW (tier 2 basis)
C    -2.222268  0.212965  0.412245
C    -1.541083  0.185428  1.761308
O    -0.323582  0.072124  1.889455
H    -1.732845  0.967210  -0.215363
H    -3.296995  0.423567  0.458535
H    -2.072605  -0.758106  -0.077149
N    -2.368711  0.325654  2.853198
C    -1.916885  0.206464  4.237759
C    -0.705063  1.119585  4.553158
O    0.171719  0.796316  5.377547
H    -3.369310  0.348734  2.691412
H    -2.723688  0.658524  4.838838
C    -1.804808  -1.242558  4.767324
C    -0.984773  -2.304394  4.014723
C    0.534486  -2.089783  3.931189
N    1.118681  -1.681356  5.207072
C    1.694960  -2.435770  6.122660
N    1.959214  -1.910627  7.344095
N    2.032696  -3.720183  5.894860
H    -2.834253  -1.625117  4.822097
H    -1.466538  -1.174445  5.811599
H    -1.354531  -2.416998  2.985273
H    -1.188096  -3.263723  4.515225
H    0.752814  -1.285463  3.218060
H    1.027588  -2.991864  3.544243
H    0.861785  -0.692478  5.443629
H    2.683788  -2.318815  7.921302
H    1.778091  -0.924585  7.492121
H    2.320436  -4.323587  6.652820
H    1.831972  -4.153377  5.004624
N    -0.742382  2.340420  3.999944
C    0.305328  3.331501  4.193943
H    -1.445111  2.509587  3.288740
H    1.162155  3.139475  3.532568
H    0.649106  3.299362  5.232525
H    -0.099292  4.325314  3.978422
