36
Energy: -21201.0665429 eV PBE+vdW (tier 2 basis)
C    -0.262515  -1.131803  0.228484
C    -0.319793  -0.921416  1.725384
O    0.406636  -1.522626  2.512858
H    -0.608215  -2.149465  0.003917
H    -0.868387  -0.417741  -0.342170
H    0.780777  -1.063097  -0.100268
N    -1.240913  0.008847  2.162933
C    -1.547193  0.110329  3.587724
C    -2.874434  0.823428  3.888030
O    -3.617348  0.356402  4.750653
H    -1.960515  0.292215  1.506835
H    -1.693953  -0.908077  3.978130
C    -0.387294  0.739193  4.400926
C    -0.527467  0.414177  5.889450
C    0.686368  0.863170  6.695624
N    0.507475  0.481503  8.106493
C    1.328149  0.795782  9.107250
N    2.493726  1.409692  8.857026
N    0.988752  0.517526  10.378789
H    -0.343945  1.827099  4.241156
H    0.542657  0.302710  4.013833
H    -0.641560  -0.676875  5.997546
H    -1.438575  0.872894  6.303436
H    0.811737  1.955977  6.638062
H    1.595150  0.383089  6.295824
H    -0.288880  -0.112940  8.315736
H    3.059846  1.790110  9.603961
H    2.832945  1.515070  7.909918
H    1.673935  0.541579  11.122780
H    0.066986  0.170352  10.610168
N    -3.209322  1.964047  3.209025
C    -2.376891  2.884354  2.443108
H    -4.114565  2.320043  3.508997
H    -2.898067  3.195221  1.528120
H    -1.437369  2.407213  2.152423
H    -2.139478  3.786160  3.027698
