36
Energy: -21201.5437687 eV PBE+vdW (tier 2 basis)
C    0.338968  -0.175644  0.432470
C    0.134183  -0.225603  1.929531
O    1.103557  -0.376475  2.700466
H    1.032934  0.642673  0.201969
H    -0.582872  -0.032823  -0.142442
H    0.816850  -1.108157  0.105702
N    -1.144929  -0.086785  2.349160
C    -1.739695  -0.058586  3.698026
C    -2.412563  1.298175  4.045041
O    -3.541295  1.271121  4.525044
H    -1.827722  0.038127  1.608466
H    -2.603317  -0.738071  3.655016
C    -0.840592  -0.514462  4.854487
C    -0.366816  -1.973085  4.742048
C    0.993198  -2.152984  5.426506
N    1.695585  -3.381155  5.045054
C    2.583309  -3.480991  4.045784
N    3.298049  -4.621919  3.931377
N    2.778190  -2.487219  3.179934
H    -1.436215  -0.377850  5.767778
H    0.025808  0.152283  4.940587
H    -0.264952  -2.257345  3.686799
H    -1.109505  -2.656109  5.178989
H    0.892005  -2.164110  6.519808
H    1.649190  -1.309378  5.176369
H    1.438938  -4.241201  5.517289
H    3.841389  -4.814052  3.100707
H    3.399491  -5.257337  4.711670
H    3.594126  -2.514295  2.581274
H    2.122291  -1.687901  3.038501
N    -1.741218  2.466684  3.843208
C    -0.396157  2.718264  3.348000
H    -2.300053  3.275675  4.101218
H    -0.053693  3.678155  3.749900
H    -0.357103  2.776480  2.249353
H    0.312493  1.952678  3.681988
