36
Energy: -21201.763636 eV PBE+vdW (tier 2 basis)
C    1.367926  0.311777  1.954697
C    0.458946  0.361030  3.155172
O    0.902947  0.408430  4.310765
H    2.043467  -0.546379  2.056898
H    0.832623  0.233432  1.001314
H    1.991162  1.214907  1.943274
N    -0.887678  0.345073  2.897868
C    -1.815068  0.471335  4.010301
C    -3.047383  -0.443728  4.040074
O    -3.386998  -0.930316  5.134431
H    -1.190180  0.441673  1.936858
H    -1.217049  0.103902  4.844938
C    -2.185873  1.941023  4.333524
C    -2.667758  2.167181  5.773120
C    -1.687972  1.716449  6.863020
N    -1.712640  0.256517  7.062930
C    -0.669024  -0.522870  7.358374
N    -0.908864  -1.735030  7.893266
N    0.596764  -0.115701  7.152315
H    -2.942446  2.314992  3.627542
H    -1.276456  2.536153  4.163971
H    -2.832730  3.244375  5.913062
H    -3.646919  1.693862  5.943182
H    -1.964807  2.188521  7.817348
H    -0.668744  2.045194  6.624417
H    -2.546289  -0.235312  6.697962
H    -0.236032  -2.485951  7.804429
H    -1.836199  -1.968438  8.226640
H    0.796991  0.362109  6.264157
H    1.351120  -0.678890  7.527376
N    -3.791049  -0.666509  2.934215
C    -3.641560  -0.125788  1.590584
H    -4.580808  -1.284487  3.104171
H    -2.923668  -0.699888  0.985648
H    -3.347982  0.931304  1.614496
H    -4.612700  -0.173128  1.087484
