36
Energy: -21201.4218507 eV PBE+vdW (tier 2 basis)
C    0.417706  0.034483  0.978565
C    -0.059735  0.310451  2.391559
O    0.673911  0.842754  3.213412
H    -0.349962  0.125763  0.203326
H    0.820658  -0.987199  0.927721
H    1.236722  0.728489  0.770382
N    -1.316131  -0.116252  2.797553
C    -2.509135  -0.574046  2.085735
C    -2.199521  -1.479153  0.881996
O    -2.515720  -1.168277  -0.283869
H    -1.463814  0.109839  3.779461
H    -3.030828  -1.236018  2.799315
C    -3.509733  0.555105  1.766521
C    -3.022242  1.651935  0.798528
C    -3.903850  1.726863  -0.456788
N    -3.277918  2.432465  -1.578297
C    -2.484256  1.849356  -2.487133
N    -2.036201  2.582625  -3.527995
N    -2.138224  0.567945  -2.376337
H    -3.788885  1.003889  2.729030
H    -4.428731  0.086984  1.381542
H    -1.984654  1.464618  0.495326
H    -3.010695  2.629910  1.297666
H    -4.850948  2.239018  -0.243808
H    -4.160348  0.716457  -0.799140
H    -3.330695  3.445045  -1.592524
H    -1.334878  2.218378  -4.158393
H    -2.465916  3.465007  -3.771525
H    -1.708481  0.098554  -3.163149
H    -2.329687  -0.008166  -1.532917
N    -1.611834  -2.664376  1.135585
C    -1.191865  -3.220492  2.416854
H    -1.439794  -3.219558  0.301540
H    -1.965007  -3.080975  3.182303
H    -0.258800  -2.766920  2.775823
H    -1.037551  -4.296137  2.289231
