36
Energy: -21201.8159998 eV PBE+vdW (tier 2 basis)
C    2.617757  0.389265  1.995695
C    1.473684  -0.359535  2.641981
O    1.633335  -1.171384  3.548404
H    2.302680  1.146780  1.268519
H    3.271854  -0.334581  1.492834
H    3.213922  0.868941  2.781078
N    0.215198  -0.057140  2.163676
C    -0.998984  -0.743843  2.602008
C    -1.089189  -0.838712  4.144193
O    -1.523274  -1.853331  4.718248
H    0.138183  0.570482  1.371503
H    -1.829173  -0.077928  2.315082
C    -1.272663  -2.094022  1.917130
C    -0.253220  -3.204292  2.190469
C    -0.729628  -4.600578  1.793077
N    -2.041749  -5.041275  2.326257
C    -2.383157  -5.243741  3.612831
N    -1.881320  -4.502541  4.596044
N    -3.271552  -6.223685  3.887243
H    -1.351871  -1.912751  0.834169
H    -2.274082  -2.412507  2.243274
H    0.062760  -3.193318  3.238685
H    0.669737  -3.026503  1.620406
H    0.032070  -5.340566  2.080647
H    -0.847985  -4.663204  0.703571
H    -2.650646  -5.489548  1.651229
H    -1.634834  -3.487971  4.473802
H    -2.051616  -4.797012  5.550929
H    -3.775745  -6.237911  4.764553
H    -3.417024  -6.996048  3.250195
N    -0.794671  0.285616  4.815593
C    -0.782359  0.351688  6.269318
H    -0.365385  1.041297  4.293453
H    0.098784  -0.159601  6.682301
H    -1.683747  -0.125513  6.667736
H    -0.767049  1.401803  6.576306
