36
Energy: -21201.9857435 eV PBE+vdW (tier 2 basis)
C    -0.445258  -1.960961  1.418212
C    -1.003400  -0.708784  2.047196
O    -1.759497  0.054439  1.432847
H    -1.272376  -2.547870  1.001941
H    0.198849  -1.669489  0.578097
H    0.134064  -2.586437  2.106915
N    -0.626928  -0.461267  3.338241
C    -0.893517  0.767073  4.096348
C    -2.367456  0.999391  4.497504
O    -2.622483  1.455487  5.643768
H    -0.043286  -1.152384  3.793754
H    -0.383455  0.603603  5.054035
C    -0.282356  2.044381  3.425407
C    0.756418  2.805824  4.268315
C    0.203247  3.780371  5.320270
N    -0.620469  3.132263  6.338308
C    -0.264176  2.750638  7.559721
N    0.797995  3.269952  8.203383
N    -0.993636  1.783573  8.152495
H    -1.085352  2.724697  3.106512
H    0.202831  1.718149  2.498378
H    1.373551  3.410378  3.587160
H    1.445500  2.094726  4.751810
H    -0.422136  4.543243  4.834847
H    1.034260  4.319624  5.793168
H    -1.476748  2.633270  6.001804
H    1.086619  2.907656  9.101949
H    1.237414  4.120423  7.879752
H    -1.036297  1.709705  9.160830
H    -1.754763  1.378040  7.605461
N    -3.306003  0.759795  3.588778
C    -4.722201  0.992624  3.834450
H    -2.968087  0.509727  2.643207
H    -4.967024  2.062391  3.773641
H    -4.995787  0.633206  4.832271
H    -5.301059  0.451546  3.080224
