36
Energy: -21200.7397026 eV PBE+vdW (tier 2 basis)
C    -0.010835  -0.669067  0.902345
C    -0.217147  -0.144966  2.309042
O    0.669731  -0.230107  3.151761
H    -0.295948  -1.729385  0.894082
H    1.055863  -0.595246  0.668124
H    -0.603239  -0.176611  0.123227
N    -1.437360  0.400399  2.670498
C    -2.596425  0.805707  1.894119
C    -3.046644  -0.289337  0.885005
O    -2.945688  -1.473732  1.167441
H    -1.469900  0.595879  3.667311
H    -3.436527  0.815909  2.608182
C    -2.462466  2.271915  1.394490
C    -1.225822  2.555836  0.539140
C    -1.015942  4.047992  0.293130
N    0.280557  4.259956  -0.369721
C    0.691429  5.393001  -0.941267
N    1.839487  5.420083  -1.639786
N    -0.045720  6.508430  -0.843725
H    -2.413089  2.899697  2.298484
H    -3.382913  2.589096  0.876854
H    -1.282043  2.029105  -0.424953
H    -0.344203  2.168427  1.073986
H    -1.034506  4.590935  1.253114
H    -1.809858  4.454561  -0.352162
H    0.952516  3.501704  -0.294800
H    2.285780  6.294950  -1.883935
H    2.339414  4.568201  -1.860193
H    0.161549  7.325867  -1.403032
H    -0.819282  6.569147  -0.194865
N    -3.589746  0.148375  -0.290256
C    -4.205353  -0.786047  -1.224351
H    -3.802540  1.131421  -0.399197
H    -4.208333  -0.348048  -2.228357
H    -5.236400  -1.036842  -0.935747
H    -3.620585  -1.711237  -1.231580
