36
Energy: -21201.6209238 eV PBE+vdW (tier 2 basis)
C    -2.517611  1.439386  2.716938
C    -1.251761  1.030391  1.991800
O    -0.168686  1.562608  2.184927
H    -2.290397  2.320311  3.322165
H    -2.877201  0.639728  3.380906
H    -3.329854  1.682465  2.017427
N    -1.357789  0.003018  1.065973
C    -2.489586  -0.869252  0.842570
C    -2.838764  -1.829000  2.002899
O    -4.049334  -2.085325  2.218336
H    -0.472649  -0.223483  0.619553
H    -3.391095  -0.244169  0.754413
C    -2.289433  -1.624122  -0.492132
C    -3.384227  -2.604631  -0.942775
C    -4.769323  -2.013422  -1.236512
N    -5.486106  -1.719915  0.004405
C    -6.706730  -1.218020  0.092954
N    -7.193844  -0.895198  1.311586
N    -7.464701  -0.998022  -0.996808
H    -1.343127  -2.184881  -0.437845
H    -2.145473  -0.854640  -1.266087
H    -3.495441  -3.431980  -0.225409
H    -3.033969  -3.068838  -1.874686
H    -5.341170  -2.748391  -1.826313
H    -4.669792  -1.097363  -1.844818
H    -4.961717  -1.877514  0.911377
H    -6.647216  -1.134322  2.131569
H    -8.185936  -0.754495  1.450422
H    -8.356556  -0.526225  -0.932395
H    -7.124168  -1.225765  -1.920519
N    -1.893709  -2.387654  2.773853
C    -0.433889  -2.308464  2.707120
H    -2.286378  -2.975121  3.506021
H    -0.032173  -3.102245  3.344458
H    -0.053417  -1.345138  3.067302
H    -0.067199  -2.485430  1.689924
