36
Energy: -21201.8502396 eV PBE+vdW (tier 2 basis)
C    0.234541  1.669864  -0.733605
C    -0.365871  1.809175  0.644307
O    -0.126342  2.789661  1.368740
H    -0.076356  0.763020  -1.264361
H    1.328661  1.672816  -0.648959
H    -0.046456  2.547239  -1.329763
N    -1.197664  0.816807  1.043618
C    -1.902444  0.769256  2.329470
C    -2.551848  2.120802  2.728889
O    -2.362907  2.608734  3.841195
H    -1.359104  0.054507  0.395441
H    -2.749838  0.084820  2.160623
C    -1.069456  0.134581  3.464577
C    0.351541  0.659954  3.721915
C    0.430294  1.998156  4.465342
N    1.815088  2.446987  4.662135
C    2.443239  3.387659  3.948961
N    1.931255  3.871482  2.818646
N    3.636534  3.845766  4.393522
H    -0.982600  -0.935502  3.226810
H    -1.669425  0.201308  4.382880
H    0.907402  0.731504  2.775391
H    0.878076  -0.101435  4.318494
H    -0.030353  1.915916  5.458367
H    -0.121425  2.783831  3.943550
H    2.363730  1.981358  5.377444
H    2.313273  4.722630  2.427094
H    1.139699  3.432791  2.309549
H    4.217155  4.430459  3.808070
H    3.898453  3.756249  5.366077
N    -3.410367  2.691422  1.841296
C    -3.842925  2.233713  0.531486
H    -3.803453  3.562273  2.186235
H    -3.983715  1.145501  0.512383
H    -3.141626  2.513768  -0.268832
H    -4.814066  2.688231  0.307997
