36
Energy: -21201.7513851 eV PBE+vdW (tier 2 basis)
C    -0.612957  0.406550  -0.262352
C    -0.253862  0.022630  1.157577
O    0.889281  -0.191667  1.526025
H    0.316382  0.574790  -0.811971
H    -1.231290  1.313627  -0.308945
H    -1.168226  -0.402816  -0.758636
N    -1.300725  -0.065705  2.075412
C    -2.727653  -0.003904  1.803983
C    -3.285113  1.434614  1.852146
O    -4.431236  1.707121  1.438615
H    -1.001774  -0.443375  2.972157
H    -2.918340  -0.347327  0.775179
C    -3.463093  -0.973226  2.761249
C    -4.936569  -1.270632  2.428504
C    -5.943417  -0.390467  3.186037
N    -7.308446  -0.504158  2.664492
C    -7.778443  0.182184  1.610388
N    -9.059691  -0.015300  1.230500
N    -7.004566  1.032032  0.943034
H    -3.366204  -0.609967  3.797790
H    -2.900702  -1.915470  2.715665
H    -5.150284  -2.322410  2.665929
H    -5.097814  -1.165104  1.345979
H    -5.656871  0.667030  3.152761
H    -5.983549  -0.674591  4.245445
H    -7.873558  -1.278266  2.995303
H    -9.433199  0.445402  0.411682
H    -9.724768  -0.458876  1.849915
H    -7.422564  1.655755  0.264118
H    -5.987446  1.167412  1.139625
N    -2.467901  2.367378  2.352614
C    -2.825923  3.774768  2.449989
H    -1.533820  2.057684  2.608715
H    -2.009917  4.311387  2.941706
H    -3.744316  3.899801  3.036640
H    -2.992229  4.206076  1.454141
