36
Energy: -21201.8408466 eV PBE+vdW (tier 2 basis)
C    -0.295694  0.133451  0.798200
C    0.281110  -0.158825  2.167145
O    1.429446  -0.550112  2.343836
H    -1.260121  0.656032  0.828665
H    -0.428834  -0.815967  0.262844
H    0.426441  0.727566  0.226987
N    -0.571343  0.049383  3.227996
C    -0.195887  -0.351598  4.573830
C    -1.464040  -0.407298  5.427759
O    -2.374313  0.446916  5.327308
H    -1.548681  0.260361  3.058169
H    0.227371  -1.367807  4.516316
C    0.925772  0.528257  5.226826
C    1.041773  2.004005  4.823142
C    -0.025920  2.970477  5.354931
N    -1.333770  2.832402  4.716962
C    -1.717190  3.426516  3.598389
N    -2.895288  3.055675  3.040553
N    -0.971199  4.359353  2.981838
H    1.874375  0.053678  4.949999
H    0.838713  0.442891  6.321618
H    1.109010  2.085462  3.728165
H    2.008675  2.359728  5.209201
H    0.315625  4.012149  5.265183
H    -0.189412  2.809100  6.429714
H    -1.857041  1.958361  4.978735
H    -3.545507  2.517129  3.601422
H    -3.296658  3.594190  2.283897
H    -0.052578  4.599455  3.327215
H    -1.324709  4.885113  2.194309
N    -1.523956  -1.418851  6.306133
C    -2.609506  -1.613962  7.257966
H    -0.776506  -2.104809  6.284720
H    -2.206068  -1.727405  8.271263
H    -3.192098  -2.508228  7.002112
H    -3.263741  -0.738952  7.220340
