36
Energy: -21202.1069472 eV PBE+vdW (tier 2 basis)
C    -4.065621  2.309573  0.149813
C    -3.390822  0.961726  0.184140
O    -3.871258  -0.033293  -0.371389
H    -5.098240  2.200667  0.501731
H    -3.557016  3.075187  0.747225
H    -4.112941  2.647557  -0.893530
N    -2.206565  0.889547  0.866211
C    -1.349165  -0.296386  0.836744
C    -1.828104  -1.405091  1.817967
O    -1.119420  -1.862890  2.747544
H    -1.868711  1.719535  1.339062
H    -1.476090  -0.733130  -0.167553
C    0.125687  0.086730  0.998324
C    0.501671  0.887313  2.273552
C    1.668632  0.277254  3.055230
N    1.259287  -1.041533  3.526140
C    2.004397  -1.911824  4.183176
N    1.517922  -3.154061  4.400097
N    3.237111  -1.602366  4.629430
H    0.410936  0.663522  0.108865
H    0.709870  -0.842812  0.947935
H    -0.354035  0.962285  2.962569
H    0.777850  1.916615  2.012079
H    1.922411  0.930153  3.906295
H    2.560364  0.196172  2.409487
H    0.291486  -1.354855  3.217529
H    1.910619  -3.741893  5.123635
H    0.566405  -3.354845  4.109944
H    3.630330  -0.686133  4.465139
H    3.855339  -2.313805  4.995319
N    -3.052912  -1.863309  1.564907
C    -3.696215  -2.897581  2.360253
H    -3.546764  -1.427327  0.769152
H    -3.184796  -3.862419  2.241500
H    -4.731207  -3.001115  2.022835
H    -3.688433  -2.631167  3.424643
