36
Energy: -21200.9738536 eV PBE+vdW (tier 2 basis)
C    -0.816896  -0.124388  1.880048
C    -2.004729  -0.345512  2.792042
O    -2.006295  -1.205611  3.665867
H    -0.241725  -1.053996  1.849341
H    -1.076857  0.187612  0.862391
H    -0.169273  0.653217  2.311695
N    -3.111904  0.475379  2.656795
C    -3.390923  1.563507  1.721820
C    -3.294565  1.147754  0.226980
O    -2.534682  1.735150  -0.541694
H    -3.844502  0.223429  3.313558
H    -4.444187  1.829871  1.906692
C    -2.534438  2.821841  1.948914
C    -2.503827  3.268901  3.410447
C    -1.588162  4.475367  3.596401
N    -1.500226  4.840239  5.019937
C    -0.626456  5.698839  5.545896
N    -0.520444  5.827868  6.880089
N    0.160686  6.435248  4.748998
H    -2.927557  3.620793  1.304482
H    -1.515654  2.628657  1.585767
H    -2.145195  2.441923  4.042521
H    -3.520310  3.524764  3.754966
H    -1.967913  5.333514  3.017520
H    -0.576602  4.233379  3.234880
H    -2.183703  4.422203  5.643346
H    -0.964934  5.171224  7.508468
H    -0.017757  6.601003  7.296279
H    0.013632  6.460105  3.748409
H    0.943457  6.957813  5.120305
N    -4.083428  0.119773  -0.184346
C    -5.054553  -0.658512  0.570715
H    -3.948824  -0.115011  -1.163498
H    -5.676810  -0.015118  1.207197
H    -4.581345  -1.426071  1.198800
H    -5.724404  -1.155016  -0.139025
