36
Energy: -21201.6859328 eV PBE+vdW (tier 2 basis)
C    -1.599701  -0.996223  0.463549
C    -1.026941  -0.387897  1.720505
O    0.141364  -0.627965  2.064671
H    -1.090576  -0.547415  -0.399738
H    -2.679776  -0.850392  0.349317
H    -1.375866  -2.069090  0.454073
N    -1.875300  0.391104  2.436092
C    -1.593252  1.191867  3.624432
C    -0.786859  2.459908  3.246012
O    -0.039780  2.482389  2.269511
H    -2.787836  0.540324  2.021922
H    -2.587926  1.516009  3.957781
C    -0.965250  0.412908  4.826857
C    0.542890  0.612660  5.095618
C    1.391084  -0.643731  4.836914
N    2.811496  -0.330901  4.621149
C    3.289005  0.341277  3.561823
N    4.562716  0.799299  3.594656
N    2.529337  0.581555  2.500723
H    -1.196241  -0.651337  4.682629
H    -1.523450  0.711323  5.722491
H    0.696694  0.938890  6.133146
H    0.928654  1.424960  4.467151
H    1.004929  -1.187160  3.965990
H    1.354770  -1.329419  5.691277
H    3.479827  -0.634691  5.318206
H    5.047810  1.008656  2.731979
H    5.128790  0.701948  4.426533
H    2.805570  1.296066  1.838794
H    1.570033  0.188924  2.386488
N    -0.936741  3.540132  4.060994
C    -1.741391  3.677459  5.266662
H    -0.362604  4.331577  3.784167
H    -1.846262  4.742805  5.494628
H    -1.282003  3.187171  6.137951
H    -2.752810  3.275034  5.126622
