36
Energy: -21201.990738 eV PBE+vdW (tier 2 basis)
C    2.102061  -0.356768  2.924618
C    1.097363  -0.661337  4.002853
O    1.465918  -0.828611  5.186422
H    1.646791  -0.186831  1.943229
H    2.683816  0.526892  3.214138
H    2.805295  -1.196573  2.853830
N    -0.196692  -0.727292  3.623637
C    -1.271670  -1.219465  4.465608
C    -2.070260  -2.208295  3.579219
O    -2.070926  -2.062300  2.358191
H    -0.431447  -0.751958  2.628318
H    -0.814451  -1.744254  5.315536
C    -2.244187  -0.116621  4.966827
C    -1.645088  1.219390  5.423064
C    -0.611079  1.206329  6.554739
N    -1.044643  0.471460  7.748528
C    -0.419557  -0.573557  8.309442
N    -0.836217  -0.983231  9.532303
N    0.554022  -1.228161  7.684117
H    -2.852107  -0.555205  5.772991
H    -2.947339  0.112336  4.152679
H    -1.164359  1.722363  4.571484
H    -2.486170  1.869357  5.710724
H    -0.394609  2.241771  6.855383
H    0.335019  0.772982  6.218072
H    -1.872625  0.812555  8.226291
H    -1.305679  -0.340402  10.157123
H    -0.434809  -1.809962  9.954816
H    0.831016  -1.054632  6.681962
H    1.123437  -1.879848  8.209657
N    -2.770219  -3.160149  4.239055
C    -3.629034  -4.124888  3.564890
H    -2.664328  -3.228185  5.244372
H    -3.248181  -5.146204  3.694101
H    -3.635092  -3.880042  2.498730
H    -4.653592  -4.070017  3.953900
