36
Energy: -21200.9483974 eV PBE+vdW (tier 2 basis)
C    0.753798  0.736296  1.055289
C    0.118098  -0.282769  1.992223
O    0.697068  -1.309577  2.316051
H    0.156044  0.859858  0.138301
H    0.869106  1.722507  1.526338
H    1.742010  0.360584  0.778316
N    -1.142510  0.001186  2.470316
C    -1.997779  1.128753  2.129470
C    -2.790962  1.565859  3.389659
O    -4.008991  1.407654  3.452923
H    -1.538927  -0.738405  3.046737
H    -1.335227  1.960725  1.845291
C    -2.960272  0.789325  0.977234
C    -3.735813  1.975689  0.392548
C    -2.889000  3.009443  -0.359150
N    -2.150692  2.469794  -1.515827
C    -2.639859  2.309107  -2.746804
N    -3.941933  2.501581  -2.999404
N    -1.819794  1.970294  -3.757630
H    -3.688807  0.060686  1.355550
H    -2.383371  0.275383  0.192403
H    -4.269273  2.499966  1.198105
H    -4.522156  1.580301  -0.271127
H    -2.129542  3.453624  0.296570
H    -3.505657  3.848018  -0.712824
H    -1.215609  2.114339  -1.345628
H    -4.282924  2.594290  -3.947644
H    -4.616832  2.563976  -2.248130
H    -2.183781  1.614348  -4.632205
H    -0.814090  2.018856  -3.657668
N    -2.077321  2.118665  4.407103
C    -0.638855  2.318325  4.509800
H    -2.642915  2.324331  5.225927
H    -0.236697  2.803229  3.609767
H    -0.093842  1.378784  4.675294
H    -0.443514  2.988569  5.352821
