36
Energy: -21202.0162638 eV PBE+vdW (tier 2 basis)
C    0.367004  -0.158138  0.082369
C    0.224259  0.082228  1.564155
O    1.217168  0.354387  2.255683
H    0.531193  0.811103  -0.408308
H    -0.505684  -0.637952  -0.375045
H    1.256582  -0.771640  -0.095508
N    -1.040759  -0.026958  2.056017
C    -1.531427  0.306410  3.390776
C    -1.261374  1.795946  3.745320
O    -0.696831  2.565783  2.965343
H    -1.758183  -0.203138  1.363217
H    -2.627083  0.260319  3.285544
C    -1.213221  -0.753936  4.483392
C    0.228379  -1.079013  4.910963
C    1.010248  -0.014010  5.688865
N    1.406824  1.076033  4.804271
C    1.793696  2.285527  5.181407
N    1.763037  3.280665  4.280254
N    2.174705  2.528861  6.457244
H    -1.653993  -1.691431  4.114845
H    -1.803061  -0.504428  5.380888
H    0.822936  -1.397151  4.044047
H    0.164527  -1.959208  5.566675
H    1.898568  -0.495839  6.130860
H    0.405290  0.388807  6.518241
H    1.321678  0.877168  3.770506
H    2.215296  4.167111  4.457691
H    1.086590  3.208510  3.513376
H    2.411083  3.469039  6.746369
H    2.535907  1.775168  7.028356
N    -1.750085  2.186436  4.949040
C    -1.703739  3.562893  5.419065
H    -2.238271  1.507044  5.520413
H    -2.682912  3.860457  5.811820
H    -1.446869  4.207001  4.572613
H    -0.951479  3.692489  6.210376
