36
Energy: -21201.1985744 eV PBE+vdW (tier 2 basis)
C    -0.285269  -1.264725  0.593165
C    -0.124332  -0.785075  2.022768
O    0.742878  -1.218577  2.770746
H    0.572771  -1.898376  0.355090
H    -0.333830  -0.434371  -0.123849
H    -1.201214  -1.861573  0.472289
N    -0.988392  0.205476  2.464442
C    -2.250540  0.623012  1.875162
C    -2.341224  2.137746  1.544880
O    -3.432259  2.641153  1.286739
H    -0.834672  0.437346  3.445031
H    -2.341416  0.120654  0.900759
C    -3.456267  0.222264  2.741450
C    -3.614022  -1.292792  2.875669
C    -4.803118  -1.656578  3.760692
N    -4.898514  -3.117267  3.915691
C    -5.696922  -3.754747  4.772568
N    -5.577364  -5.081800  4.951673
N    -6.618154  -3.076045  5.470649
H    -4.346777  0.680356  2.289657
H    -3.342366  0.679302  3.738925
H    -2.699038  -1.733276  3.303191
H    -3.756301  -1.737989  1.876605
H    -5.734251  -1.268929  3.315421
H    -4.680994  -1.206919  4.758395
H    -4.331789  -3.682614  3.291430
H    -6.290194  -5.614867  5.432796
H    -4.785950  -5.592742  4.582391
H    -7.115335  -3.504104  6.240917
H    -6.831834  -2.111250  5.253888
N    -1.158710  2.796154  1.534619
C    -1.039786  4.201349  1.184613
H    -0.326653  2.260955  1.760669
H    -0.576566  4.769106  2.001874
H    -2.047325  4.588687  1.002863
H    -0.437340  4.330338  0.275604
