36
Energy: -21201.8115022 eV PBE+vdW (tier 2 basis)
C    -1.021938  -0.917515  0.333771
C    -0.890247  -1.001152  1.834088
O    -0.247630  -1.928078  2.377067
H    -1.539167  -1.818513  -0.020862
H    -0.022521  -0.918951  -0.118716
H    -1.572177  -0.034337  -0.007968
N    -1.512554  -0.044576  2.542105
C    -1.597215  0.033621  3.990388
C    -2.595452  1.187985  4.257684
O    -2.874611  1.987943  3.364904
H    -2.017046  0.722062  2.085088
H    -2.029662  -0.906462  4.373044
C    -0.223959  0.273562  4.683410
C    0.340576  -1.000446  5.319363
C    1.833537  -0.957805  5.644761
N    2.738157  -0.563450  4.541540
C    3.132203  -1.332408  3.510459
N    2.336567  -2.272356  3.002894
N    4.365338  -1.133374  2.999327
H    -0.321383  1.065147  5.440461
H    0.463974  0.663580  3.919914
H    0.126445  -1.853985  4.664846
H    -0.174677  -1.212867  6.269360
H    2.155664  -1.939991  6.019371
H    2.032107  -0.226887  6.439140
H    3.291793  0.270988  4.697059
H    2.740114  -2.935545  2.350422
H    1.300029  -2.135094  2.912869
H    4.607462  -1.472798  2.077123
H    5.096517  -0.693584  3.543523
N    -3.093069  1.242149  5.514331
C    -4.021402  2.272936  5.958426
H    -2.857615  0.497113  6.160225
H    -3.616181  2.815427  6.822061
H    -4.989899  1.834441  6.231253
H    -4.168112  2.972488  5.130446
