36
Energy: -21201.28768 eV PBE+vdW (tier 2 basis)
C    -0.867123  -1.350950  0.160886
C    -0.923768  -0.570263  1.454668
O    -0.498513  -1.014572  2.521646
H    -1.104024  -0.749153  -0.724314
H    -1.583453  -2.181123  0.223126
H    0.130263  -1.790871  0.049834
N    -1.477660  0.683484  1.366618
C    -1.819119  1.436887  2.555819
C    -3.171411  2.119991  2.284162
O    -3.463991  2.471302  1.141851
H    -1.952730  0.991450  0.519370
H    -1.873760  0.718660  3.387062
C    -0.768995  2.522841  2.899442
C    0.641193  1.948154  3.056657
C    1.716928  2.991918  3.339713
N    1.572874  3.545556  4.698180
C    2.142211  4.663248  5.146974
N    1.839708  5.137353  6.369758
N    3.009823  5.339636  4.380670
H    -1.092355  3.042390  3.816855
H    -0.775505  3.274934  2.094087
H    0.927901  1.439946  2.126353
H    0.666494  1.160221  3.826555
H    1.634270  3.822252  2.620954
H    2.715412  2.537337  3.238774
H    1.092559  2.958884  5.373953
H    2.422244  5.830037  6.822165
H    1.090093  4.734395  6.916427
H    3.296983  6.280533  4.617310
H    3.360795  4.944873  3.518038
N    -3.984732  2.353942  3.348773
C    -3.836019  1.859888  4.709861
H    -4.855613  2.814114  3.099943
H    -4.718783  2.160834  5.282493
H    -2.955644  2.287504  5.212634
H    -3.767506  0.763829  4.749944
