36
Energy: -21201.3081332 eV PBE+vdW (tier 2 basis)
C    0.703667  -0.827933  1.962586
C    -0.145791  0.144023  2.760959
O    0.179876  1.324671  2.890005
H    0.766591  -0.466679  0.928101
H    1.723490  -0.821064  2.365974
H    0.329682  -1.858670  1.955486
N    -1.281566  -0.407468  3.307592
C    -2.351598  0.216966  4.093920
C    -3.675881  0.452741  3.317863
O    -4.690478  0.718755  3.955431
H    -1.397112  -1.403563  3.156839
H    -2.625524  -0.509305  4.875746
C    -1.981540  1.542824  4.776029
C    -0.806590  1.451009  5.759798
C    -0.067677  2.790477  5.800248
N    1.138637  2.788090  6.642304
C    1.182633  3.050904  7.947133
N    0.054151  3.191120  8.658874
N    2.367819  3.191858  8.569959
H    -2.892823  1.874791  5.290670
H    -1.755920  2.283806  3.999691
H    -0.091952  0.680448  5.439769
H    -1.161244  1.152370  6.759912
H    -0.716866  3.614953  6.131269
H    0.263817  3.030947  4.782431
H    2.002143  2.489934  6.199996
H    0.062052  3.631883  9.569452
H    -0.843868  2.948950  8.261060
H    2.438716  3.148542  9.578194
H    3.226920  3.291117  8.045122
N    -3.609154  0.361459  1.967841
C    -4.756128  0.597067  1.106491
H    -2.706766  0.167816  1.549697
H    -5.632216  0.736951  1.747587
H    -4.927060  -0.260497  0.443346
H    -4.613441  1.498709  0.495624
