36
Energy: -21201.4164075 eV PBE+vdW (tier 2 basis)
C    -1.153828  0.456750  -0.511762
C    -0.753688  0.505878  0.944748
O    0.267546  1.062563  1.338698
H    -0.325618  0.032190  -1.091887
H    -2.063243  -0.125519  -0.702441
H    -1.305941  1.482932  -0.869255
N    -1.606770  -0.130488  1.820890
C    -1.372769  -0.095295  3.256537
C    -1.461706  -1.522971  3.830451
O    -2.359895  -1.847135  4.619915
H    -2.460514  -0.551658  1.471718
H    -0.338899  0.278567  3.349645
C    -2.319897  0.900942  3.948506
C    -1.901921  1.394298  5.343065
C    -2.059030  0.354981  6.450057
N    -1.865878  0.967328  7.775749
C    -2.067494  0.317782  8.921040
N    -1.951687  0.953576  10.101798
N    -2.397173  -0.981823  8.899931
H    -3.332957  0.474759  3.991710
H    -2.365289  1.780980  3.293665
H    -0.860605  1.755118  5.313189
H    -2.533717  2.262059  5.590746
H    -1.338165  -0.464160  6.324638
H    -3.066248  -0.083075  6.402743
H    -1.492687  1.910221  7.816422
H    -1.935751  0.442702  10.974460
H    -1.780660  1.949262  10.146286
H    -2.715580  -1.456423  9.734376
H    -2.457533  -1.483980  8.021586
N    -0.511088  -2.409898  3.440418
C    0.582941  -2.228506  2.494981
H    -0.675539  -3.349870  3.790827
H    0.967272  -1.203231  2.523922
H    0.274828  -2.449950  1.462802
H    1.400236  -2.904732  2.769003
