36
Energy: -21201.9135505 eV PBE+vdW (tier 2 basis)
C    0.163135  -0.585144  -0.065060
C    -0.060946  -0.121467  1.352447
O    0.554120  0.832416  1.842405
H    1.231896  -0.781471  -0.211331
H    -0.112315  0.230991  -0.745413
H    -0.410347  -1.479754  -0.334664
N    -0.991980  -0.812688  2.079715
C    -1.417522  -0.387353  3.412889
C    -0.423796  -0.833853  4.521537
O    -0.738433  -1.594256  5.463989
H    -1.423479  -1.630318  1.666020
H    -1.374080  0.713527  3.401566
C    -2.857944  -0.810016  3.708529
C    -3.120492  -2.321050  3.642924
C    -4.418802  -2.765029  4.323941
N    -4.654738  -2.267753  5.696683
C    -3.968356  -2.586793  6.811339
N    -4.636060  -2.607828  7.984085
N    -2.669462  -2.867311  6.768840
H    -3.525996  -0.278666  3.014801
H    -3.100055  -0.436363  4.713540
H    -2.274659  -2.876274  4.065906
H    -3.211095  -2.659882  2.598799
H    -4.470843  -3.863698  4.332198
H    -5.282292  -2.403791  3.751455
H    -5.559057  -1.839115  5.855953
H    -4.140922  -2.558832  8.865413
H    -5.641303  -2.718731  8.017083
H    -2.238252  -3.244563  7.605577
H    -2.008281  -2.388814  6.097890
N    0.799208  -0.313390  4.399117
C    1.884941  -0.616602  5.318749
H    0.956016  0.298325  3.584556
H    2.780920  -0.086558  4.984003
H    2.091540  -1.694602  5.341587
H    1.636720  -0.292998  6.338005
