36
Energy: -21202.0203167 eV PBE+vdW (tier 2 basis)
C    -0.134023  0.514202  -0.032704
C    -0.301510  -0.648668  0.912273
O    0.236945  -1.745386  0.715447
H    -0.725499  1.395442  0.241221
H    -0.406801  0.193611  -1.045092
H    0.927501  0.792763  -0.056004
N    -1.082177  -0.432641  2.013999
C    -1.213997  -1.416065  3.087029
C    -2.248545  -2.519368  2.731731
O    -3.312500  -2.668091  3.372451
H    -1.559405  0.456298  2.115612
H    -0.233946  -1.915799  3.165315
C    -1.537527  -0.710622  4.405566
C    -1.593335  -1.667322  5.616710
C    -2.956921  -1.610034  6.321994
N    -3.224606  -2.758467  7.190189
C    -3.827146  -3.889834  6.794166
N    -4.117444  -4.824015  7.726992
N    -4.136574  -4.101890  5.518056
H    -2.501650  -0.188311  4.300167
H    -0.776087  0.063645  4.565050
H    -0.794389  -1.429976  6.332145
H    -1.409249  -2.700523  5.290479
H    -3.758012  -1.562468  5.574696
H    -3.041730  -0.708777  6.943213
H    -2.822289  -2.755239  8.120976
H    -4.458583  -5.736582  7.457059
H    -4.167824  -4.583428  8.708017
H    -4.752465  -4.869707  5.282071
H    -3.785620  -3.518680  4.723607
N    -1.897613  -3.276646  1.688387
C    -2.741037  -4.322867  1.134899
H    -1.014336  -3.017537  1.220538
H    -2.554372  -4.401622  0.059036
H    -3.795002  -4.076930  1.304269
H    -2.526645  -5.296922  1.597878
