36
Energy: -21201.6089406 eV PBE+vdW (tier 2 basis)
C    0.337456  -0.865115  -0.050351
C    0.290284  -0.390096  1.383932
O    1.312862  -0.368113  2.095207
H    -0.251288  -1.782271  -0.194831
H    1.378113  -1.066655  -0.317203
H    -0.066831  -0.107661  -0.735113
N    -0.901652  0.020567  1.885389
C    -2.246187  -0.249197  1.404027
C    -3.147879  0.799720  2.096646
O    -2.816640  1.256477  3.192190
H    -0.893182  0.501364  2.788938
H    -2.293348  -0.129437  0.312065
C    -2.702576  -1.689901  1.778974
C    -2.757738  -1.932145  3.299854
C    -2.333774  -3.328926  3.778211
N    -1.024300  -3.802335  3.289188
C    0.134438  -3.123875  3.277321
N    1.123963  -3.541576  2.465838
N    0.361545  -2.058791  4.050856
H    -1.995750  -2.385965  1.302809
H    -3.681235  -1.890676  1.320486
H    -3.779899  -1.779824  3.672546
H    -2.166798  -1.163451  3.813285
H    -3.050330  -4.083418  3.430231
H    -2.358854  -3.366521  4.878216
H    -1.002036  -4.731657  2.885060
H    2.016621  -3.061258  2.490036
H    0.929081  -4.121087  1.660128
H    0.919172  -1.288874  3.628308
H    -0.315710  -1.809744  4.760029
N    -4.297036  1.101540  1.453507
C    -5.286816  2.029858  1.985135
H    -4.444381  0.721670  0.525053
H    -6.276816  1.558547  2.018140
H    -5.341116  2.937674  1.370566
H    -4.981378  2.305305  2.998656
