36
Energy: -21201.5029419 eV PBE+vdW (tier 2 basis)
C    -0.846307  -0.714535  0.883796
C    -1.265093  -1.061117  2.298499
O    -0.615039  -1.841637  2.976356
H    0.230949  -0.516015  0.884011
H    -1.373156  0.122711  0.417754
H    -1.007708  -1.606876  0.263569
N    -2.467940  -0.565205  2.807716
C    -3.223584  0.641904  2.473551
C    -3.732814  0.665331  1.015265
O    -3.814299  1.724021  0.362952
H    -2.599775  -0.900493  3.760497
H    -4.151069  0.554852  3.064468
C    -2.590377  1.977430  2.908283
C    -1.330719  2.413826  2.157557
C    -0.934059  3.869901  2.404925
N    -1.996267  4.888591  2.229395
C    -2.677975  5.198788  1.110981
N    -3.076767  6.477679  0.945807
N    -2.972543  4.286924  0.186318
H    -2.376134  1.905711  3.985164
H    -3.371277  2.745874  2.808920
H    -1.440832  2.249035  1.079328
H    -0.466953  1.806389  2.464527
H    -0.082007  4.133849  1.761025
H    -0.606591  3.996506  3.444453
H    -2.039710  5.590477  2.959572
H    -2.620912  7.238964  1.432224
H    -3.820763  6.712634  0.301069
H    -3.159162  3.279264  0.406635
H    -3.347989  4.610724  -0.697945
N    -4.145920  -0.518902  0.540376
C    -4.690316  -0.719624  -0.792756
H    -3.983677  -1.326174  1.136405
H    -5.573061  -1.367009  -0.740448
H    -3.947830  -1.182826  -1.457507
H    -4.977575  0.252342  -1.203491
