36
Energy: -21201.6514897 eV PBE+vdW (tier 2 basis)
C    -0.553543  0.401441  -0.939418
C    -0.228582  0.106431  0.504428
O    0.949173  0.082429  0.891262
H    0.205599  -0.051126  -1.585171
H    -0.505274  1.491076  -1.077225
H    -1.549285  0.059828  -1.245697
N    -1.303735  -0.151602  1.301011
C    -1.393904  -0.078241  2.758407
C    -1.413643  1.414220  3.196068
O    -0.771061  2.253610  2.575918
H    -2.197823  -0.048513  0.833100
H    -2.355986  -0.551337  3.004733
C    -0.295214  -0.816965  3.549914
C    -0.084965  -2.297958  3.168371
C    1.264883  -2.623571  2.519334
N    2.412159  -2.341340  3.392110
C    3.302638  -1.346061  3.258968
N    4.396528  -1.361253  4.055694
N    3.125006  -0.356605  2.391853
H    -0.586867  -0.752355  4.606771
H    0.635874  -0.244862  3.471887
H    -0.862131  -2.628100  2.463558
H    -0.206775  -2.930077  4.060339
H    1.400584  -2.063669  1.588351
H    1.305857  -3.691620  2.264027
H    2.524155  -2.935948  4.206585
H    4.721413  -2.221565  4.476490
H    5.029735  -0.573147  4.073218
H    3.889441  0.277220  2.196079
H    2.228863  -0.192734  1.881155
N    -2.138364  1.719078  4.308861
C    -3.049068  0.867183  5.061856
H    -2.100158  2.704527  4.553095
H    -3.459726  1.452924  5.889962
H    -2.540164  -0.002902  5.500237
H    -3.895067  0.516292  4.452748
