36
Energy: -21201.2504266 eV PBE+vdW (tier 2 basis)
C    0.258270  0.747413  -0.172162
C    0.441399  1.222617  1.244956
O    1.348417  2.012873  1.555924
H    -0.308588  -0.185203  -0.254660
H    1.252672  0.616600  -0.613134
H    -0.250082  1.523447  -0.761760
N    -0.396470  0.753619  2.227359
C    -1.776802  0.250959  2.162370
C    -1.931962  -1.270556  1.884907
O    -3.052985  -1.725944  1.687402
H    -0.089225  1.055894  3.147941
H    -2.147001  0.363424  3.193448
C    -2.733198  1.029767  1.227715
C    -2.632572  2.559880  1.190854
C    -3.067822  3.371868  2.419814
N    -2.255491  3.216949  3.646084
C    -0.930377  3.364499  3.745038
N    -0.191086  3.966257  2.803117
N    -0.279737  2.854861  4.816560
H    -3.750247  0.713329  1.493156
H    -2.590779  0.672112  0.198769
H    -3.299179  2.903610  0.385441
H    -1.628841  2.866597  0.865126
H    -4.084778  3.083919  2.713910
H    -3.118225  4.440142  2.156695
H    -2.759957  2.993301  4.497288
H    -0.683314  4.426286  2.046191
H    0.675267  3.473509  2.504352
H    0.626264  3.238924  5.062144
H    -0.783577  2.368918  5.548528
N    -0.790469  -2.000940  1.916042
C    -0.777080  -3.443829  1.728569
H    0.078250  -1.518023  2.114365
H    -0.111021  -3.721589  0.901938
H    -1.797457  -3.760812  1.491760
H    -0.446583  -3.956387  2.641603
