36
Energy: -21201.2113275 eV PBE+vdW (tier 2 basis)
C    0.181287  -0.192748  1.737816
C    -0.453501  -1.507297  1.328650
O    0.202295  -2.482091  0.992003
H    1.262814  -0.344286  1.778294
H    -0.170604  0.154052  2.719086
H    -0.031472  0.598232  1.003924
N    -1.840257  -1.592855  1.377908
C    -2.798203  -0.506496  1.493298
C    -3.828607  -0.730143  2.634452
O    -4.883151  -0.089363  2.669385
H    -2.179550  -2.475560  0.997621
H    -2.234274  0.392205  1.784815
C    -3.500389  -0.226259  0.143697
C    -4.178212  1.145890  0.065879
C    -4.961626  1.318131  -1.231568
N    -5.682698  2.601389  -1.207573
C    -6.556888  3.017422  -2.122442
N    -7.290894  4.123944  -1.909701
N    -6.717137  2.331322  -3.263374
H    -4.246236  -1.017175  -0.036555
H    -2.739065  -0.317120  -0.645660
H    -3.417159  1.940284  0.141879
H    -4.858924  1.239281  0.924335
H    -5.694965  0.502707  -1.337178
H    -4.282934  1.294784  -2.100944
H    -5.520606  3.196101  -0.400878
H    -7.813089  4.561759  -2.657361
H    -7.289285  4.590122  -1.011880
H    -7.472817  2.540751  -3.902318
H    -6.113478  1.552302  -3.490663
N    -3.455820  -1.633932  3.567036
C    -4.253908  -1.943504  4.740477
H    -2.569414  -2.107085  3.419035
H    -4.525332  -3.006997  4.758275
H    -3.704986  -1.702085  5.660162
H    -5.166069  -1.340219  4.698212
