36
Energy: -21202.039349 eV PBE+vdW (tier 2 basis)
C    -0.758637  2.466505  -0.330697
C    -0.594002  1.626076  0.908602
O    0.503642  1.103163  1.205224
H    -1.768795  2.872638  -0.449186
H    -0.514136  1.851440  -1.206245
H    -0.039251  3.294714  -0.304344
N    -1.684975  1.458112  1.676467
C    -1.749379  0.570016  2.825346
C    -3.193593  0.021142  2.832335
O    -4.092380  0.682388  2.311398
H    -2.606186  1.785840  1.374527
H    -1.015369  -0.233603  2.673936
C    -1.488799  1.307975  4.162626
C    -0.127021  2.002957  4.282321
C    1.057318  1.032606  4.352225
N    2.347799  1.718488  4.466570
C    3.211776  1.966216  3.469962
N    2.913638  1.721506  2.198624
N    4.419003  2.484707  3.792108
H    -1.617723  0.593949  4.990818
H    -2.279688  2.061845  4.284340
H    -0.137233  2.622714  5.192137
H    0.016615  2.695580  3.440542
H    1.093557  0.394047  3.462045
H    0.965514  0.372156  5.226525
H    2.561395  2.147949  5.360539
H    3.655899  1.737821  1.510335
H    1.950458  1.511026  1.844520
H    5.044722  2.822950  3.073703
H    4.791037  2.400812  4.728686
N    -3.419940  -1.160202  3.456351
C    -2.443054  -2.084118  4.014776
H    -4.397261  -1.437875  3.458414
H    -2.963895  -3.003830  4.297398
H    -1.958638  -1.686150  4.918381
H    -1.669414  -2.353557  3.282691
