36
Energy: -21201.197707 eV PBE+vdW (tier 2 basis)
C    0.106757  0.005530  0.242213
C    -0.260918  0.282922  1.675279
O    0.598979  0.240745  2.572545
H    0.974659  -0.660856  0.250446
H    -0.703537  -0.455627  -0.327468
H    0.420044  0.941985  -0.245536
N    -1.529402  0.681521  2.027131
C    -2.779943  0.809313  1.277835
C    -3.330501  -0.582150  0.839608
O    -2.580326  -1.497713  0.525550
H    -1.633824  0.664196  3.038197
H    -3.492613  1.232077  2.005107
C    -2.724904  1.777371  0.076149
C    -2.696937  3.288607  0.368940
C    -1.415367  3.902644  0.964256
N    -1.401605  3.935580  2.433195
C    -0.529436  3.313507  3.236705
N    -0.873971  3.041549  4.509122
N    0.699646  2.954520  2.837849
H    -3.626518  1.589422  -0.525005
H    -1.886284  1.508882  -0.579688
H    -3.558632  3.571875  0.996520
H    -2.864011  3.798840  -0.590745
H    -1.297730  4.933651  0.604384
H    -0.536812  3.341342  0.624601
H    -2.182195  4.409321  2.878106
H    -1.825526  3.136289  4.838514
H    -0.151900  2.839028  5.190234
H    0.979731  1.976323  3.042802
H    1.019881  3.295827  1.938972
N    -4.687097  -0.663199  0.815856
C    -5.399017  -1.851095  0.364102
H    -5.233193  0.130910  1.129010
H    -4.652819  -2.603733  0.092457
H    -6.020245  -1.626232  -0.512558
H    -6.035988  -2.250560  1.163410
