36
Energy: -21201.3882602 eV PBE+vdW (tier 2 basis)
C    0.546556  -0.780279  0.200672
C    -0.349872  0.099323  1.037909
O    -0.642571  1.251493  0.661179
H    0.199475  -0.766111  -0.838969
H    0.606716  -1.816729  0.551777
H    1.556985  -0.348947  0.209793
N    -0.809068  -0.449295  2.192650
C    -1.368527  0.247316  3.370363
C    -1.767593  -0.741632  4.491767
O    -1.612314  -0.372333  5.648980
H    -0.409063  -1.356349  2.417205
H    -0.540687  0.801027  3.839983
C    -2.474405  1.307824  3.169652
C    -3.850258  0.914616  2.612692
C    -3.915134  0.645653  1.100648
N    -3.254828  1.684166  0.310812
C    -3.773036  2.835758  -0.092394
N    -5.095409  3.078566  -0.055228
N    -2.944054  3.795705  -0.550785
H    -2.054939  2.138866  2.589809
H    -2.630367  1.704973  4.182733
H    -4.536949  1.742843  2.845782
H    -4.259054  0.038610  3.136839
H    -4.955894  0.512583  0.771245
H    -3.406094  -0.290674  0.840930
H    -2.211247  1.610801  0.337020
H    -5.474730  3.976260  -0.322933
H    -5.745675  2.368815  0.250654
H    -3.293958  4.580917  -1.083538
H    -1.948922  3.610487  -0.600410
N    -2.213928  -2.009126  4.204584
C    -2.916772  -2.525830  3.035718
H    -2.372280  -2.526260  5.068269
H    -2.637886  -1.968897  2.137939
H    -4.009450  -2.467114  3.157982
H    -2.647153  -3.577683  2.878153
