36
Energy: -21201.9651569 eV PBE+vdW (tier 2 basis)
C    1.383564  1.089740  0.451812
C    0.838004  1.016624  1.855690
O    1.571082  0.991769  2.849941
H    1.934221  2.032935  0.341828
H    0.613500  1.035936  -0.326734
H    2.103746  0.276032  0.305904
N    -0.526236  0.974810  1.978182
C    -1.205278  1.109808  3.265659
C    -1.247712  -0.223067  4.072106
O    -2.303835  -0.772078  4.467826
H    -1.082488  1.010868  1.132800
H    -0.557363  1.762072  3.874794
C    -2.560238  1.831236  3.129380
C    -3.495598  1.498679  1.949861
C    -3.973245  0.043812  1.818444
N    -4.486994  -0.492476  3.072374
C    -5.733771  -0.478869  3.509285
N    -5.972263  -0.771749  4.807749
N    -6.778533  -0.170562  2.717119
H    -2.346531  2.906519  3.061480
H    -3.099050  1.695039  4.077065
H    -3.037527  1.788009  0.989955
H    -4.374235  2.153645  2.049471
H    -3.143276  -0.617437  1.530752
H    -4.713775  -0.044212  1.011250
H    -3.693416  -0.665270  3.758374
H    -6.893903  -1.058619  5.111016
H    -5.194803  -1.052216  5.394106
H    -7.718114  -0.111550  3.084549
H    -6.651160  0.003296  1.730642
N    -0.043122  -0.711006  4.367666
C    0.151626  -1.934338  5.131331
H    0.767139  -0.170457  4.026493
H    1.218154  -2.175914  5.133024
H    -0.406949  -2.765391  4.682995
H    -0.189465  -1.810710  6.167903
