36
Energy: -21201.2275957 eV PBE+vdW (tier 2 basis)
C    -0.555837  -1.586638  0.293859
C    0.005639  -0.903533  1.506360
O    1.184314  -1.058756  1.886935
H    -1.037947  -0.875742  -0.390138
H    -1.322892  -2.313712  0.597235
H    0.247576  -2.112205  -0.227542
N    -0.797024  -0.082474  2.236155
C    -2.147369  0.428138  2.039079
C    -2.315948  1.499341  0.932751
O    -3.443788  1.885826  0.655078
H    -0.378940  0.165191  3.123465
H    -2.827003  -0.388739  1.753546
C    -2.627986  1.003249  3.384239
C    -1.918625  2.265007  3.915200
C    -0.433591  2.204851  4.335463
N    0.498183  2.640782  3.267897
C    1.793670  2.288722  3.113318
N    2.667321  3.248818  2.748614
N    2.211755  1.031088  3.289770
H    -2.580856  0.201723  4.137853
H    -3.688694  1.254198  3.262463
H    -2.474581  2.571669  4.811622
H    -2.052890  3.094280  3.201952
H    -0.126250  1.213924  4.694504
H    -0.284165  2.885998  5.187261
H    0.254164  3.539384  2.859335
H    3.565698  3.008580  2.346648
H    2.487482  4.227263  2.939248
H    3.215691  0.890017  3.350418
H    1.695583  0.192534  2.884050
N    -1.176908  1.974457  0.355954
C    -1.201368  2.921411  -0.748282
H    -0.297077  1.556258  0.632383
H    -2.239278  3.239409  -0.890475
H    -0.840217  2.460187  -1.677324
H    -0.584258  3.802475  -0.527356
