36
Energy: -21201.9363299 eV PBE+vdW (tier 2 basis)
C    0.707797  -2.338628  0.315820
C    0.477732  -2.478233  1.802863
O    1.316079  -2.910797  2.580554
H    -0.207272  -2.146749  -0.257594
H    1.408972  -1.510253  0.146408
H    1.187425  -3.250101  -0.057635
N    -0.779327  -2.088862  2.256318
C    -1.023980  -1.953288  3.686007
C    -1.582994  -3.239982  4.321581
O    -1.700764  -3.348352  5.560020
H    -1.381901  -1.580135  1.617230
H    -0.035421  -1.826271  4.158110
C    -1.884375  -0.698136  3.959233
C    -1.843486  -0.162163  5.403368
C    -3.000881  -0.644326  6.293269
N    -2.762215  -0.403186  7.719527
C    -2.009017  -1.193882  8.501848
N    -1.444425  -2.295843  8.021473
N    -1.822425  -0.836003  9.792430
H    -2.925118  -0.872991  3.640172
H    -1.489650  0.084994  3.297579
H    -0.885320  -0.441285  5.864751
H    -1.858896  0.936638  5.379485
H    -3.186893  -1.715816  6.157095
H    -3.932129  -0.124384  6.035230
H    -3.001351  0.510499  8.087735
H    -1.504452  -2.591969  7.017267
H    -0.994531  -2.941059  8.658619
H    -2.422086  -0.149978  10.231337
H    -1.265678  -1.412029  10.409368
N    -1.925127  -4.218189  3.475912
C    -2.400870  -5.527645  3.889147
H    -1.723152  -4.043166  2.495039
H    -2.661173  -5.484874  4.950527
H    -1.622515  -6.288641  3.743179
H    -3.287016  -5.807107  3.307129
