36
Energy: -21202.1066324 eV PBE+vdW (tier 2 basis)
C    -0.357861  2.061501  -0.310547
C    -0.275977  1.764404  1.161070
O    0.679704  2.195375  1.851382
H    0.528964  1.641612  -0.802912
H    -0.329139  3.147637  -0.461620
H    -1.256351  1.653063  -0.784631
N    -1.267968  1.027453  1.691794
C    -1.260627  0.446532  3.027120
C    -1.795817  -0.994151  2.838480
O    -2.550267  -1.234735  1.896216
H    -1.956827  0.580000  1.080403
H    -0.224736  0.437173  3.392814
C    -2.201682  1.182328  4.014219
C    -1.921112  2.662088  4.313811
C    -0.693258  2.979193  5.178755
N    0.535309  2.920859  4.391415
C    1.681040  3.521783  4.678260
N    2.612676  3.626657  3.709162
N    1.933390  4.034281  5.898301
H    -2.219458  0.619099  4.960104
H    -3.217869  1.106206  3.600277
H    -2.795579  3.050736  4.854023
H    -1.867516  3.244815  3.381370
H    -0.640132  2.275554  6.027783
H    -0.806654  3.992958  5.595061
H    0.488373  2.528825  3.412804
H    3.584681  3.787622  3.936741
H    2.390828  3.253134  2.788408
H    2.710658  4.663900  6.046953
H    1.260758  3.941347  6.646695
N    -1.442287  -1.927482  3.754592
C    -0.492624  -1.796802  4.850093
H    -1.866801  -2.836677  3.594399
H    -0.354008  -2.783142  5.302715
H    -0.852475  -1.118264  5.637400
H    0.490644  -1.451883  4.501091
