36
Energy: -21200.3928229 eV PBE+vdW (tier 2 basis)
C    -0.090541  0.104136  -0.351552
C    0.226058  0.315601  1.115961
O    1.376966  0.399164  1.520173
H    -0.753991  0.885551  -0.747046
H    0.852812  0.134754  -0.902468
H    -0.560441  -0.875370  -0.514269
N    -0.820851  0.420108  2.014474
C    -2.264669  0.271285  1.850983
C    -2.646473  -1.171639  1.393489
O    -2.420989  -2.077491  2.184362
H    -0.481940  0.426086  2.972118
H    -2.637226  0.238899  2.885492
C    -2.930086  1.512471  1.219206
C    -4.438993  1.568205  1.484977
C    -5.118044  2.841322  0.984183
N    -5.093167  2.911782  -0.486363
C    -5.335321  4.002843  -1.213944
N    -5.135245  3.987651  -2.543614
N    -5.767841  5.127899  -0.628156
H    -2.705194  1.595210  0.147782
H    -2.451779  2.384769  1.690191
H    -4.617889  1.523129  2.569576
H    -4.960383  0.689818  1.071876
H    -4.591724  3.724321  1.378790
H    -6.162215  2.869918  1.334864
H    -4.957661  2.035723  -0.983536
H    -4.643199  3.226144  -2.992254
H    -5.506614  4.715727  -3.140300
H    -5.779978  6.008667  -1.126477
H    -6.077747  5.131611  0.334807
N    -3.250609  -1.465030  0.189971
C    -3.512517  -0.700508  -1.013309
H    -3.449798  -2.461299  0.137782
H    -2.698460  -0.009552  -1.253527
H    -4.467580  -0.142247  -0.963959
H    -3.599927  -1.399404  -1.852623
