36
Energy: -21201.7732338 eV PBE+vdW (tier 2 basis)
C    0.414081  -2.966682  0.163755
C    0.556605  -1.962847  1.282516
O    1.638974  -1.739082  1.837637
H    -0.281586  -2.633231  -0.616625
H    0.046933  -3.927491  0.552930
H    1.401148  -3.138864  -0.273902
N    -0.562620  -1.277524  1.679256
C    -1.966125  -1.565740  1.459955
C    -2.755852  -0.373517  2.035819
O    -2.375844  0.225373  3.057562
H    -0.386390  -0.559987  2.377936
H    -2.166694  -1.612133  0.378056
C    -2.479024  -2.921854  2.078172
C    -1.664390  -3.581362  3.202812
C    -1.792911  -3.041759  4.636074
N    -1.290497  -1.683826  4.877623
C    -0.027425  -1.282131  4.700809
N    1.017956  -2.130646  4.700763
N    0.213399  0.028041  4.533028
H    -2.518689  -3.647267  1.254746
H    -3.523583  -2.787030  2.398408
H    -0.604347  -3.630926  2.918564
H    -1.994426  -4.629842  3.258463
H    -1.298699  -3.735627  5.332122
H    -2.845817  -3.022933  4.944673
H    -1.976873  -0.936634  4.778517
H    1.731607  -1.948496  3.988466
H    0.840099  -3.110770  4.881960
H    1.161979  0.380422  4.546268
H    -0.548265  0.650821  4.277778
N    -3.889258  -0.066889  1.380609
C    -4.814920  0.977654  1.800091
H    -4.100630  -0.577242  0.529790
H    -5.804183  0.553192  2.012702
H    -4.912336  1.738564  1.016063
H    -4.417981  1.444592  2.705381
