36
Energy: -21201.4169635 eV PBE+vdW (tier 2 basis)
C    -0.816175  1.059612  -1.236845
C    -0.630867  1.273549  0.252840
O    0.274584  1.948026  0.720918
H    0.036445  1.509212  -1.751504
H    -1.738445  1.537966  -1.597926
H    -0.871147  -0.007649  -1.495800
N    -1.546962  0.663505  1.094780
C    -2.769885  -0.007178  0.718948
C    -3.944782  0.833284  0.181188
O    -4.744938  0.256176  -0.589672
H    -1.387123  0.870430  2.077362
H    -2.537819  -0.653240  -0.138403
C    -3.290762  -0.897543  1.872955
C    -2.770203  -2.337561  1.856691
C    -3.395748  -3.239526  0.781616
N    -2.753501  -3.182052  -0.545356
C    -3.357798  -2.916696  -1.720429
N    -2.855733  -3.490087  -2.835155
N    -4.407185  -2.101987  -1.792064
H    -4.389589  -0.920350  1.844710
H    -3.026872  -0.419113  2.828105
H    -3.005625  -2.798950  2.826378
H    -1.671909  -2.356952  1.776960
H    -4.458659  -3.005062  0.643593
H    -3.338511  -4.286818  1.111252
H    -1.845751  -3.632054  -0.614381
H    -3.093279  -3.135256  -3.752719
H    -2.313637  -4.343702  -2.791012
H    -4.922963  -2.073520  -2.664896
H    -4.522710  -1.244879  -1.172203
N    -4.141333  2.115103  0.525076
C    -3.438036  2.956412  1.495166
H    -4.963900  2.516920  0.081164
H    -4.048622  3.849542  1.658895
H    -2.451936  3.272652  1.135461
H    -3.327404  2.450746  2.461338
