36
Energy: -21201.5157835 eV PBE+vdW (tier 2 basis)
C    -1.186932  -1.238561  1.268048
C    -1.072684  -0.067441  2.221796
O    -0.298657  -0.048286  3.167767
H    -2.216330  -1.619012  1.204566
H    -0.871268  -0.962340  0.251249
H    -0.535756  -2.036419  1.633154
N    -1.895328  1.024208  1.984875
C    -2.731298  1.264250  0.833122
C    -2.074918  1.647484  -0.508251
O    -2.756855  1.449743  -1.538684
H    -1.745776  1.784041  2.643731
H    -3.211694  0.309305  0.568309
C    -3.844029  2.284888  1.169163
C    -5.083072  1.627317  1.782903
C    -5.915825  0.817571  0.783694
N    -6.606088  1.648138  -0.213162
C    -6.454019  1.611018  -1.548597
N    -7.468961  2.068713  -2.313280
N    -5.350771  1.135679  -2.120730
H    -4.125984  2.836602  0.261236
H    -3.436944  3.038100  1.859502
H    -5.722760  2.393406  2.246516
H    -4.784860  0.951965  2.599167
H    -6.682887  0.241272  1.320281
H    -5.303167  0.090232  0.236015
H    -7.377840  2.212063  0.128541
H    -7.319664  2.307518  -3.284925
H    -8.413910  2.128728  -1.956688
H    -4.383698  1.193705  -1.701458
H    -5.370338  0.974816  -3.121486
N    -0.837986  2.159694  -0.606292
C    0.114332  2.582171  0.423000
H    -0.565448  2.323740  -1.572687
H    -0.353081  3.247470  1.157324
H    0.571603  1.733533  0.944557
H    0.906987  3.146381  -0.077851
