36
Energy: -21201.8432213 eV PBE+vdW (tier 2 basis)
C    -0.259609  1.992190  3.310910
C    -0.241908  0.521690  2.948263
O    0.713167  -0.207876  3.153982
H    -0.280105  2.618819  2.407088
H    0.654750  2.215013  3.866175
H    -1.130700  2.261134  3.924442
N    -1.397080  -0.001140  2.365885
C    -2.557182  0.733841  1.892320
C    -3.568821  1.056879  3.013330
O    -4.406273  1.978089  2.866600
H    -1.270171  -0.954862  2.033458
H    -2.237461  1.713850  1.504286
C    -3.196724  -0.077246  0.737147
C    -4.492007  0.426663  0.081651
C    -4.435004  1.792278  -0.613928
N    -4.479647  2.869601  0.373412
C    -4.488284  4.163701  0.105043
N    -4.447515  5.047018  1.128379
N    -4.511276  4.626554  -1.158648
H    -3.393291  -1.093677  1.113510
H    -2.419236  -0.178079  -0.035885
H    -5.324889  0.428574  0.800036
H    -4.764267  -0.311383  -0.685151
H    -5.301367  1.875315  -1.290427
H    -3.519922  1.871076  -1.226990
H    -4.482702  2.568766  1.393624
H    -4.700498  6.015569  0.982327
H    -4.529215  4.694434  2.075386
H    -4.424528  5.613300  -1.360948
H    -4.523226  3.990140  -1.943454
N    -3.495038  0.302112  4.111775
C    -4.365179  0.442456  5.269280
H    -2.726100  -0.364668  4.138260
H    -5.162784  1.148782  5.022677
H    -3.802930  0.819778  6.133425
H    -4.804770  -0.528023  5.528506
