36
Energy: -21201.6830136 eV PBE+vdW (tier 2 basis)
C    -0.067907  -1.112656  0.819492
C    -0.235825  -0.489087  2.183340
O    0.418741  -0.835386  3.162569
H    -0.246829  -2.192010  0.901180
H    -0.736943  -0.696099  0.056940
H    0.971998  -0.983187  0.495042
N    -1.200191  0.500142  2.278093
C    -1.330956  1.239698  3.512124
C    -2.650182  1.187164  4.293375
O    -2.649132  1.749111  5.415813
H    -1.590647  0.873918  1.420631
H    -0.650258  0.676041  4.177237
C    -0.834456  2.709029  3.402374
C    0.608043  2.932376  3.882137
C    0.915094  2.391460  5.291977
N    -0.194973  2.616678  6.217603
C    -0.133821  3.003402  7.480345
N    1.028029  3.189780  8.134856
N    -1.290938  3.245102  8.140710
H    -1.510912  3.364639  3.965038
H    -0.909177  3.029781  2.354190
H    0.813554  4.011563  3.850638
H    1.320942  2.453801  3.195413
H    1.824515  2.881823  5.663990
H    1.126396  1.311329  5.248681
H    -1.148150  2.306237  5.886092
H    1.054999  3.708919  9.002261
H    1.910970  2.965739  7.698056
H    -1.311800  3.189242  9.151200
H    -2.163593  3.046644  7.661756
N    -3.759553  0.556903  3.874434
C    -4.066891  -0.151611  2.633058
H    -4.504290  0.603107  4.565755
H    -3.401221  -1.006144  2.475696
H    -4.022792  0.513247  1.761359
H    -5.093153  -0.522589  2.714425
