36
Energy: -21202.1068491 eV PBE+vdW (tier 2 basis)
C    -1.358009  4.161597  0.939847
C    -0.877510  2.887533  1.577501
O    0.321062  2.529420  1.473548
H    -1.195288  4.094675  -0.143727
H    -0.752983  4.999499  1.307644
H    -2.416394  4.367768  1.130062
N    -1.784581  2.165527  2.259160
C    -1.580588  0.811130  2.753695
C    -2.888933  0.058598  2.408235
O    -3.938038  0.694537  2.309020
H    -2.776955  2.413366  2.211513
H    -0.723746  0.375640  2.221691
C    -1.382710  0.749478  4.289442
C    -0.179182  1.487732  4.893329
C    1.208680  0.880924  4.645033
N    1.693930  1.206148  3.306594
C    2.957505  1.203794  2.907503
N    3.933970  0.620615  3.629603
N    3.266198  1.813944  1.745459
H    -1.346208  -0.308727  4.591289
H    -2.296354  1.159995  4.743852
H    -0.325963  1.502603  5.982270
H    -0.173822  2.543638  4.582022
H    1.170162  -0.213504  4.785089
H    1.910308  1.286269  5.391663
H    1.027736  1.660294  2.625450
H    4.908267  0.800811  3.427169
H    3.720318  0.138058  4.491411
H    4.121070  1.593708  1.252416
H    2.516283  2.267341  1.227425
N    -2.829413  -1.288075  2.272516
C    -1.649187  -2.140190  2.273631
H    -3.731618  -1.719556  2.092640
H    -0.907027  -1.813106  1.532165
H    -1.958647  -3.154418  2.004350
H    -1.170334  -2.191068  3.262490
