36
Energy: -21201.3754811 eV PBE+vdW (tier 2 basis)
C    0.323962  -0.695410  2.218986
C    0.607493  0.625235  2.878858
O    1.764220  1.084257  2.939178
H    0.123373  -1.451978  2.991683
H    1.206912  -0.998148  1.651082
H    -0.557647  -0.678168  1.566596
N    -0.416916  1.321089  3.464544
C    -1.854762  1.282488  3.144963
C    -2.474272  -0.134441  3.327723
O    -3.024746  -0.707865  2.393661
H    -0.088965  2.124307  3.993951
H    -2.334215  1.928395  3.898155
C    -2.157404  1.833078  1.739175
C    -2.261527  3.360816  1.586947
C    -1.124119  4.242458  2.115957
N    0.195842  3.799109  1.637043
C    1.366515  4.387935  1.951075
N    2.441860  3.624657  2.134918
N    1.425447  5.725029  2.081331
H    -3.108219  1.396002  1.408479
H    -1.417839  1.421176  1.034033
H    -3.173514  3.713193  2.091588
H    -2.408108  3.577058  0.518793
H    -1.120253  4.261104  3.219511
H    -1.312714  5.272365  1.783927
H    0.274014  2.807183  1.434702
H    3.370880  4.028078  2.150181
H    2.308971  2.631919  2.429373
H    2.262032  6.174382  2.430094
H    0.713507  6.317339  1.673879
N    -2.379509  -0.690415  4.565653
C    -1.826832  -0.130902  5.790414
H    -2.802807  -1.612894  4.616938
H    -2.239699  -0.683968  6.640247
H    -2.114032  0.921388  5.918425
H    -0.730844  -0.204671  5.828904
