36
Energy: -21201.2985241 eV PBE+vdW (tier 2 basis)
C    -0.491955  -0.902024  0.612438
C    -0.775903  -0.786954  2.085976
O    0.008955  -1.237989  2.942138
H    0.593194  -0.861533  0.472984
H    -0.825040  -1.884239  0.243120
H    -0.979072  -0.128009  0.010401
N    -1.932108  -0.175636  2.477187
C    -3.192944  -0.261545  1.734102
C    -3.636413  0.988824  0.939002
O    -4.089787  0.814496  -0.188922
H    -1.999270  -0.078781  3.487895
H    -3.050111  -0.998260  0.934255
C    -4.333955  -0.767375  2.651465
C    -3.942772  -1.883306  3.638394
C    -3.216653  -3.082311  3.013237
N    -2.814421  -4.089165  4.002145
C    -1.775431  -4.018893  4.851451
N    -1.695808  -4.942416  5.834830
N    -0.841823  -3.073916  4.774087
H    -5.147154  -1.100481  1.992110
H    -4.745146  0.067506  3.237313
H    -4.857181  -2.240156  4.134080
H    -3.313962  -1.474539  4.444595
H    -2.325141  -2.776662  2.452494
H    -3.863977  -3.598697  2.293196
H    -3.415634  -4.898939  4.097176
H    -2.437579  -5.610962  5.993104
H    -0.832803  -5.086116  6.342245
H    -0.677797  -2.396373  3.992721
H    -0.132187  -3.043521  5.496736
N    -3.549149  2.224249  1.504113
C    -3.060776  2.622509  2.815790
H    -3.866675  2.959960  0.879185
H    -1.965261  2.577321  2.889634
H    -3.499315  2.014367  3.619318
H    -3.371924  3.656464  2.996470
