36
Energy: -21201.2404729 eV PBE+vdW (tier 2 basis)
C    -0.104518  1.117313  0.192632
C    -0.302412  0.862504  1.660374
O    0.472997  1.315908  2.519518
H    -0.678331  0.442478  -0.452440
H    0.963640  1.007509  -0.027106
H    -0.384945  2.153816  -0.036017
N    -1.341852  0.078220  2.075014
C    -2.647666  -0.114457  1.471874
C    -3.138534  1.185764  0.790879
O    -2.910525  2.290475  1.290770
H    -1.276981  -0.132166  3.062784
H    -2.598676  -0.931347  0.737968
C    -3.711672  -0.487915  2.564031
C    -3.271548  -0.691256  4.029161
C    -2.690990  0.499147  4.842881
N    -3.207362  1.806417  4.449338
C    -2.496692  2.914018  4.185407
N    -3.152679  4.094235  4.130319
N    -1.169871  2.911735  4.060330
H    -4.196437  -1.423099  2.256787
H    -4.504823  0.272146  2.541497
H    -2.558219  -1.525515  4.113083
H    -4.171628  -1.044314  4.552203
H    -1.598399  0.551809  4.790941
H    -2.922475  0.331446  5.905557
H    -4.214137  1.901764  4.379620
H    -4.135854  4.146986  4.363179
H    -2.795319  4.826162  3.528690
H    -0.610030  2.135536  3.645493
H    -0.713240  3.814914  4.005716
N    -3.874882  1.041482  -0.337439
C    -4.216137  -0.184738  -1.052438
H    -4.214086  1.920670  -0.717205
H    -4.790684  -0.882023  -0.428047
H    -3.325356  -0.697346  -1.441081
H    -4.843137  0.084514  -1.907731
