36
Energy: -21201.9973461 eV PBE+vdW (tier 2 basis)
C    -0.674676  -1.243564  0.446696
C    -1.037942  -0.325466  1.588838
O    -0.244233  0.451704  2.103193
H    0.178901  -1.862231  0.749839
H    -0.343679  -0.635302  -0.404339
H    -1.493997  -1.897406  0.124704
N    -2.347276  -0.429055  2.050868
C    -2.842528  0.520184  3.030052
C    -3.237913  -0.087863  4.378076
O    -3.676924  0.655503  5.279578
H    -3.019229  -0.908989  1.459603
H    -1.945976  1.120023  3.273372
C    -3.945426  1.442649  2.466555
C    -3.374354  2.730981  1.866446
C    -2.860272  3.722717  2.915099
N    -3.934116  4.398216  3.658169
C    -4.196336  4.317187  4.973412
N    -4.884510  5.331834  5.543171
N    -3.797483  3.286216  5.712465
H    -4.667384  1.680882  3.259900
H    -4.514201  0.894280  1.701682
H    -4.132005  3.228392  1.242042
H    -2.535545  2.494081  1.194632
H    -2.261544  4.505104  2.428341
H    -2.202386  3.236781  3.646911
H    -4.463353  5.096116  3.145496
H    -5.330225  5.214298  6.443464
H    -4.911501  6.251780  5.123257
H    -3.861957  3.374366  6.720138
H    -3.682790  2.296921  5.358499
N    -3.052283  -1.403898  4.533755
C    -3.287126  -2.120074  5.777868
H    -2.629722  -1.889851  3.747424
H    -2.337793  -2.416007  6.243790
H    -3.887664  -3.017601  5.588621
H    -3.828554  -1.458909  6.460385
