36
Energy: -21201.7847912 eV PBE+vdW (tier 2 basis)
C    -0.080801  1.057744  0.072524
C    -0.051125  0.853813  1.563223
O    1.012487  0.953233  2.209110
H    -1.078318  0.944349  -0.366817
H    0.600127  0.336212  -0.396541
H    0.302792  2.059581  -0.157539
N    -1.232273  0.558492  2.165443
C    -1.303614  0.305735  3.601184
C    -2.125075  -0.924898  4.032877
O    -1.608392  -1.705056  4.833325
H    -2.066325  0.534026  1.591339
H    -0.291634  -0.005267  3.861546
C    -1.658161  1.564993  4.440864
C    -1.031344  1.554644  5.847004
C    0.419730  2.062498  5.892215
N    1.355447  1.333281  5.030483
C    1.914471  0.149375  5.303229
N    2.415595  -0.560880  4.283417
N    2.008157  -0.315548  6.559706
H    -2.748769  1.661291  4.530564
H    -1.319836  2.452738  3.884092
H    -1.097015  0.544151  6.278182
H    -1.613629  2.210856  6.509441
H    0.795810  2.069146  6.925173
H    0.463837  3.108932  5.561691
H    1.295096  1.524768  4.020439
H    2.967066  -1.394163  4.433755
H    2.199746  -0.263476  3.330657
H    2.258025  -1.279211  6.736215
H    1.632240  0.212267  7.334694
N    -3.400615  -1.096257  3.589612
C    -4.188855  -0.280542  2.679630
H    -3.829737  -1.946085  3.946469
H    -4.036447  -0.555630  1.622850
H    -3.979521  0.788141  2.812315
H    -5.251186  -0.423433  2.905004
