36
Energy: -21201.9729522 eV PBE+vdW (tier 2 basis)
C    -0.467526  0.357663  -0.583348
C    -0.405418  0.078892  0.901875
O    0.602317  0.259472  1.579159
H    0.458192  0.006329  -1.051330
H    -0.517411  1.444367  -0.736103
H    -1.329172  -0.103894  -1.081300
N    -1.560363  -0.408477  1.469758
C    -1.705681  -0.511375  2.915806
C    -0.501471  -1.250437  3.533913
O    -0.116662  -2.367925  3.124994
H    -2.412565  -0.392375  0.920259
H    -1.715453  0.506045  3.345782
C    -3.064289  -1.155814  3.284876
C    -3.291683  -2.674047  3.139743
C    -3.167662  -3.307879  1.747279
N    -1.759992  -3.432520  1.378727
C    -1.279469  -3.618179  0.164445
N    0.018385  -3.322185  -0.074252
N    -2.059024  -4.032208  -0.857286
H    -3.837740  -0.615633  2.713271
H    -3.257030  -0.904660  4.337223
H    -4.315967  -2.867475  3.487584
H    -2.638105  -3.226227  3.831320
H    -3.708598  -2.711503  0.991742
H    -3.637966  -4.303971  1.776630
H    -1.066800  -3.062573  2.098892
H    0.523667  -3.785384  -0.818979
H    0.571022  -2.951908  0.694022
H    -1.678737  -4.135299  -1.788808
H    -2.949702  -4.474043  -0.672278
N    0.041105  -0.667460  4.610173
C    1.193798  -1.220075  5.308182
H    -0.209267  0.297034  4.796986
H    2.128219  -0.958816  4.791942
H    1.105657  -2.310073  5.343777
H    1.219236  -0.823111  6.327728
