36
Energy: -21201.9133698 eV PBE+vdW (tier 2 basis)
C    0.689271  -1.750387  1.935138
C    -0.027556  -0.441348  1.717353
O    0.591076  0.579019  1.333514
H    0.018375  -2.586237  2.161349
H    1.291111  -1.989080  1.049824
H    1.387675  -1.623980  2.773414
N    -1.355539  -0.447660  1.940655
C    -2.259982  0.693758  2.018929
C    -3.638545  0.058922  2.347900
O    -3.816384  -1.150826  2.191286
H    -1.843851  -1.325767  2.142428
H    -1.948785  1.325799  2.868529
C    -2.336052  1.628487  0.786850
C    -2.698783  1.021869  -0.577088
C    -1.580240  0.217791  -1.265433
N    -0.277731  0.879793  -1.195401
C    0.312025  1.613956  -2.123356
N    1.571051  2.052312  -1.905521
N    -0.288073  1.935220  -3.287191
H    -1.386947  2.175446  0.718313
H    -3.092673  2.390504  1.022385
H    -2.991586  1.853919  -1.235307
H    -3.580338  0.368450  -0.497008
H    -1.841099  0.006784  -2.312193
H    -1.457661  -0.760425  -0.785620
H    0.173256  0.841159  -0.248984
H    1.933816  2.845453  -2.418417
H    2.024001  1.827944  -1.026519
H    0.264553  2.233166  -4.080775
H    -1.227752  1.616376  -3.479792
N    -4.588589  0.915517  2.782647
C    -5.938583  0.494240  3.132545
H    -4.329619  1.880321  2.955702
H    -6.114736  0.599976  4.210981
H    -6.046082  -0.558780  2.857180
H    -6.680903  1.090297  2.587442
