36
Energy: -21201.3355795 eV PBE+vdW (tier 2 basis)
C    -0.690184  1.605220  2.041603
C    -0.615201  0.146755  2.441951
O    0.449015  -0.427894  2.671291
H    -1.708221  2.012943  2.050785
H    -0.051506  2.193949  2.709689
H    -0.282076  1.709256  1.027469
N    -1.816147  -0.505761  2.525726
C    -1.901478  -1.930729  2.768167
C    -3.341725  -2.351757  2.439492
O    -4.268296  -1.545080  2.558951
H    -2.700939  -0.043312  2.329323
H    -1.175621  -2.442346  2.118954
C    -1.537316  -2.305891  4.230456
C    -2.420449  -1.613341  5.269623
C    -1.846764  -1.751490  6.675413
N    -2.710687  -1.048602  7.638843
C    -2.567690  -1.063093  8.963169
N    -1.496860  -1.646982  9.520025
N    -3.502308  -0.507029  9.754813
H    -0.486254  -2.012625  4.364561
H    -1.590426  -3.398476  4.348492
H    -3.442945  -2.020245  5.245695
H    -2.492126  -0.543484  5.015781
H    -0.832827  -1.318791  6.704143
H    -1.783214  -2.811434  6.968523
H    -3.446139  -0.467922  7.247698
H    -1.443145  -1.807327  10.517356
H    -0.718991  -1.956691  8.952221
H    -3.318527  -0.316009  10.731181
H    -4.382607  -0.181607  9.377058
N    -3.550266  -3.643655  2.076390
C    -2.552603  -4.647525  1.723859
H    -4.523725  -3.851383  1.872946
H    -3.077459  -5.566729  1.446200
H    -1.891651  -4.887306  2.567280
H    -1.936672  -4.338086  0.867750
