36
Energy: -21201.5214902 eV PBE+vdW (tier 2 basis)
C    1.487729  0.839255  0.208369
C    1.069223  0.828408  1.660070
O    1.869732  1.128667  2.559160
H    2.387173  0.223492  0.089135
H    1.760409  1.867328  -0.063885
H    0.714604  0.484563  -0.482865
N    -0.217857  0.463272  1.901746
C    -0.950625  0.542150  3.177596
C    -1.303769  2.028904  3.510268
O    -0.767901  2.615357  4.444306
H    -0.773547  0.236852  1.085585
H    -1.885188  -0.004677  2.989764
C    -0.248836  -0.077236  4.393821
C    0.570675  -1.334570  4.124162
C    1.351855  -1.824615  5.354317
N    1.956280  -0.785866  6.212447
C    2.996012  0.015722  5.935334
N    3.713099  0.512624  6.964947
N    3.344519  0.306997  4.681876
H    -1.029605  -0.283883  5.142224
H    0.374870  0.710338  4.832123
H    1.273417  -1.159727  3.300872
H    -0.066121  -2.171583  3.799900
H    2.143437  -2.520354  5.042045
H    0.684826  -2.376096  6.027791
H    1.600561  -0.726719  7.159117
H    4.266427  1.352585  6.853751
H    3.664808  0.100579  7.887660
H    4.226426  0.785180  4.535306
H    2.646394  0.450527  3.922200
N    -2.231121  2.636876  2.718263
C    -2.936423  2.120214  1.557554
H    -2.378100  3.613059  2.959658
H    -3.252574  1.080001  1.709077
H    -2.338027  2.183297  0.634813
H    -3.846914  2.710017  1.407804
