36
Energy: -21201.8319843 eV PBE+vdW (tier 2 basis)
C    -0.157213  0.014982  -0.038098
C    0.394332  0.263412  1.344593
O    1.612628  0.378683  1.547806
H    0.217463  -0.954075  -0.392833
H    0.235855  0.779671  -0.718621
H    -1.251731  0.011488  -0.090162
N    -0.526716  0.376156  2.344661
C    -0.309139  0.447906  3.795477
C    0.565519  1.589492  4.364566
O    0.482692  1.821370  5.587876
H    -1.498338  0.301966  2.065144
H    -1.293824  0.724040  4.200198
C    0.002769  -0.924542  4.449089
C    1.262819  -1.715455  4.061615
C    2.633044  -1.046029  4.279267
N    2.725984  -0.203870  5.483797
C    2.446999  -0.576399  6.741050
N    1.893406  0.326485  7.557423
N    2.721479  -1.824378  7.155898
H    -0.858241  -1.574723  4.238223
H    -0.023790  -0.754253  5.534911
H    1.225484  -2.006839  3.002702
H    1.219068  -2.656432  4.629868
H    2.853561  -0.376937  3.440790
H    3.428899  -1.804384  4.286575
H    2.578109  0.788388  5.325430
H    1.847759  0.185225  8.558249
H    1.349912  1.083419  7.119382
H    2.411937  -2.155040  8.060006
H    3.362405  -2.409137  6.635302
N    1.358635  2.279662  3.532151
C    2.136856  3.435097  3.955343
H    1.538431  1.852538  2.613890
H    2.132610  4.186732  3.158281
H    3.183126  3.168149  4.169323
H    1.688209  3.858627  4.858829
