36
Energy: -21201.9758967 eV PBE+vdW (tier 2 basis)
C    -0.313107  0.092330  -0.704233
C    0.072661  1.129657  0.320898
O    1.084163  1.831855  0.196582
H    0.466604  -0.680475  -0.725618
H    -0.329739  0.561481  -1.694927
H    -1.279904  -0.386902  -0.512319
N    -0.759793  1.252351  1.398357
C    -0.506164  2.055083  2.602498
C    -0.606329  3.585797  2.393090
O    -1.209034  4.285419  3.248132
H    -1.595390  0.680123  1.409404
H    -1.349714  1.818264  3.263378
C    0.816396  1.651710  3.329609
C    0.727865  1.447723  4.851551
C    0.563475  2.704979  5.720175
N    -0.762761  3.308210  5.641013
C    -1.721525  3.266739  6.547997
N    -2.838212  4.002464  6.345049
N    -1.644501  2.526063  7.674696
H    1.611744  2.371456  3.090952
H    1.141033  0.699343  2.891907
H    1.666845  0.969548  5.168098
H    -0.074694  0.731588  5.092670
H    1.286434  3.473785  5.408089
H    0.806825  2.474769  6.766784
H    -1.005470  3.753481  4.703649
H    -3.700123  3.765039  6.818646
H    -2.916302  4.544329  5.491628
H    -2.231510  2.750676  8.467975
H    -0.815419  1.980782  7.866874
N    -0.004313  4.094135  1.321284
C    0.020178  5.513143  1.003173
H    0.531012  3.422694  0.743135
H    -0.344042  5.673889  -0.018863
H    1.043851  5.903985  1.075553
H    -0.621042  6.050488  1.707115
