36
Energy: -21201.3794296 eV PBE+vdW (tier 2 basis)
C    0.813527  -0.499997  0.262105
C    0.493813  -0.400578  1.736377
O    1.304040  -0.739325  2.607765
H    -0.023664  -0.240392  -0.396142
H    1.659006  0.164311  0.041561
H    1.142588  -1.522445  0.040743
N    -0.741113  0.095199  2.048561
C    -1.286490  0.285446  3.394886
C    -0.692789  1.435987  4.255308
O    -1.459318  2.072275  4.978656
H    -1.306724  0.444594  1.284314
H    -2.327802  0.600052  3.246697
C    -1.289715  -1.001194  4.247616
C    -2.103248  -2.143998  3.637859
C    -2.080888  -3.419104  4.479340
N    -2.686234  -3.175934  5.799129
C    -3.052647  -4.111448  6.673368
N    -2.763874  -5.401921  6.450179
N    -3.734594  -3.771721  7.781909
H    -1.698382  -0.687329  5.223119
H    -0.253989  -1.326573  4.417129
H    -3.147834  -1.836901  3.468214
H    -1.691936  -2.405247  2.652793
H    -1.040269  -3.761553  4.608168
H    -2.653761  -4.212843  3.977530
H    -2.734393  -2.206506  6.099890
H    -2.128517  -5.674280  5.711817
H    -3.187205  -6.137956  7.000294
H    -3.820622  -4.409820  8.562371
H    -4.098885  -2.835710  7.905390
N    0.643476  1.621777  4.176289
C    1.332366  2.633817  4.959871
H    1.186051  0.916927  3.672235
H    1.810294  2.200126  5.850600
H    0.600575  3.379026  5.286757
H    2.101631  3.120522  4.348780
