36
Energy: -21201.4284498 eV PBE+vdW (tier 2 basis)
C    -0.219278  -1.197684  0.890163
C    -1.212486  -1.049169  2.024417
O    -0.918824  -1.331766  3.176074
H    0.341154  -0.260290  0.770020
H    -0.667872  -1.456901  -0.076201
H    0.497087  -1.972172  1.180660
N    -2.513328  -0.613007  1.758854
C    -3.151023  -0.023799  0.582126
C    -3.708603  -1.061883  -0.416407
O    -4.429127  -0.700515  -1.372567
H    -3.042778  -0.555579  2.625006
H    -4.047827  0.479101  0.972367
C    -2.275860  1.057227  -0.111579
C    -2.929028  1.942455  -1.180363
C    -3.846797  3.071953  -0.710606
N    -5.047270  2.727876  0.093958
C    -6.194570  2.212213  -0.394419
N    -7.363091  2.607383  0.150929
N    -6.163703  1.320694  -1.380383
H    -1.417555  0.564522  -0.583200
H    -1.862901  1.684299  0.693603
H    -3.424416  1.328111  -1.940572
H    -2.116800  2.458302  -1.715925
H    -4.179098  3.644763  -1.589006
H    -3.279925  3.761326  -0.071652
H    -5.143073  3.237317  0.965550
H    -8.212468  2.076771  0.002928
H    -7.444557  3.490033  0.639713
H    -7.038914  1.059469  -1.821033
H    -5.377916  0.611317  -1.435790
N    -3.388762  -2.341985  -0.195704
C    -3.829885  -3.450723  -1.027729
H    -2.869359  -2.533904  0.656519
H    -4.343020  -3.044804  -1.903901
H    -4.518990  -4.101017  -0.473341
H    -2.967241  -4.044123  -1.354150
