36
Energy: -21201.1335812 eV PBE+vdW (tier 2 basis)
C    0.171545  -0.261696  1.107223
C    -0.320138  -0.533216  2.516060
O    0.390918  -1.100938  3.335870
H    -0.006808  -1.163177  0.504393
H    -0.306544  0.575882  0.590443
H    1.254209  -0.107735  1.153090
N    -1.632615  -0.221985  2.855768
C    -2.547932  0.779197  2.305235
C    -2.768283  0.663622  0.774711
O    -2.783171  1.662376  0.054486
H    -1.816977  -0.493605  3.819951
H    -3.530348  0.532474  2.740074
C    -2.260160  2.230781  2.738621
C    -0.902429  2.798133  2.319084
C    -0.763306  4.257583  2.741576
N    0.568084  4.764613  2.372511
C    0.922084  6.047169  2.302887
N    0.091221  7.005699  2.737230
N    2.114095  6.395336  1.785943
H    -2.355342  2.274712  3.834963
H    -3.060913  2.854957  2.316445
H    -0.089827  2.213650  2.780720
H    -0.801476  2.733521  1.227127
H    -0.908661  4.359806  3.830146
H    -1.522240  4.866829  2.227324
H    1.287837  4.067941  2.205650
H    -0.751796  6.773636  3.245677
H    0.249661  7.979188  2.511584
H    2.499095  7.319915  1.929466
H    2.693877  5.720492  1.304305
N    -2.997096  -0.598087  0.339371
C    -3.237812  -0.925774  -1.055317
H    -2.902458  -1.350689  1.013503
H    -2.374167  -1.439905  -1.501134
H    -3.412232  0.008365  -1.597873
H    -4.121018  -1.569102  -1.150074
