36
Energy: -21201.9189567 eV PBE+vdW (tier 2 basis)
C    -2.819792  3.641264  1.054295
C    -2.970724  2.415476  1.913030
O    -3.714464  1.471585  1.570901
H    -2.454528  3.340537  0.064241
H    -2.135774  4.387173  1.473739
H    -3.807060  4.098809  0.912529
N    -2.262995  2.377223  3.068278
C    -2.419580  1.286019  4.034805
C    -1.936773  1.644984  5.448157
O    -2.583898  1.264455  6.417417
H    -1.801516  3.229056  3.370333
H    -3.498327  1.125479  4.167375
C    -1.744273  -0.020456  3.539574
C    -2.334254  -1.311325  4.126019
C    -3.859835  -1.451889  3.957893
N    -4.320975  -0.982461  2.652101
C    -4.862422  -1.670347  1.656904
N    -5.309747  -2.931234  1.799589
N    -4.955168  -1.075233  0.447674
H    -0.668821  0.014945  3.763910
H    -1.821009  -0.048459  2.444425
H    -2.118947  -1.384594  5.201225
H    -1.831613  -2.159930  3.640804
H    -4.384379  -0.868959  4.728115
H    -4.148444  -2.498580  4.114271
H    -4.086158  0.002864  2.402060
H    -5.557717  -3.488527  0.993642
H    -5.337661  -3.377526  2.705196
H    -4.633227  -0.111556  0.368014
H    -5.647091  -1.389567  -0.220518
N    -0.779160  2.360803  5.537181
C    -0.183502  2.689717  6.827978
H    -0.187495  2.440209  4.716585
H    0.463192  1.880838  7.196585
H    -0.988767  2.843324  7.552636
H    0.404073  3.609064  6.734610
