36
Energy: -21200.8357613 eV PBE+vdW (tier 2 basis)
C    2.067674  -0.396691  1.212296
C    1.223442  -0.509009  2.458082
O    1.686229  -0.843754  3.550347
H    2.822542  -1.189402  1.213474
H    2.596024  0.566822  1.241589
H    1.484460  -0.442431  0.284897
N    -0.108261  -0.206463  2.311509
C    -0.962415  0.032491  3.475144
C    -0.268895  1.063081  4.420459
O    -0.059332  2.173242  3.947744
H    -0.385520  0.241830  1.445701
H    -1.782819  0.656586  3.095689
C    -1.645606  -1.243587  4.033600
C    -0.865307  -2.558905  3.928073
C    -1.584092  -3.747602  4.559330
N    -1.594883  -3.617367  6.026738
C    -2.329144  -4.338071  6.870589
N    -3.050849  -5.378028  6.427159
N    -2.368057  -4.020558  8.177914
H    -2.586635  -1.374771  3.476167
H    -1.952624  -1.037510  5.070257
H    0.144757  -2.469823  4.351106
H    -0.708173  -2.800891  2.868278
H    -1.071026  -4.682279  4.281823
H    -2.627090  -3.802034  4.207654
H    -0.946836  -2.940997  6.422766
H    -2.945962  -5.718765  5.480688
H    -3.744224  -5.824799  7.012819
H    -2.714114  -4.675263  8.867300
H    -1.937338  -3.171600  8.520572
N    -0.042811  0.825056  5.755772
C    0.332208  -0.415097  6.411263
H    0.313336  1.671846  6.192726
H    0.991253  -0.178609  7.253684
H    0.886682  -1.067005  5.725383
H    -0.547621  -0.942200  6.830169
