36
Energy: -21201.4442186 eV PBE+vdW (tier 2 basis)
C    0.267489  0.056440  2.008209
C    -0.187460  -1.203225  1.324122
O    0.599121  -2.131933  1.054416
H    1.279769  -0.101667  2.388410
H    -0.401351  0.349105  2.827334
H    0.294541  0.895754  1.297062
N    -1.501469  -1.313411  0.972827
C    -2.525779  -0.274507  0.945595
C    -3.313335  -0.038884  2.263409
O    -3.529791  1.122829  2.592699
H    -1.764569  -2.236108  0.638490
H    -2.022435  0.691122  0.806401
C    -3.479964  -0.477205  -0.247665
C    -2.878997  -0.213295  -1.648275
C    -2.340484  -1.404525  -2.450805
N    -1.085685  -1.932768  -1.903372
C    -0.579136  -3.160703  -2.091349
N    0.348285  -3.614092  -1.247802
N    -1.043105  -3.925463  -3.098613
H    -4.308874  0.226819  -0.096778
H    -3.931797  -1.482391  -0.206964
H    -2.102028  0.566338  -1.586080
H    -3.667458  0.223312  -2.276345
H    -2.181042  -1.075102  -3.490121
H    -3.085085  -2.215693  -2.468171
H    -0.592718  -1.350662  -1.234760
H    0.907101  -4.425127  -1.481669
H    0.508210  -3.123053  -0.335287
H    -1.515324  -3.510247  -3.891158
H    -0.750194  -4.889656  -3.187964
N    -3.756533  -1.094672  3.001272
C    -3.648953  -2.525410  2.761109
H    -4.247281  -0.798653  3.840627
H    -2.645037  -2.917780  2.978939
H    -4.359076  -3.036538  3.419236
H    -3.927083  -2.791061  1.731659
