36
Energy: -21202.0779392 eV PBE+vdW (tier 2 basis)
C    -0.820199  -0.166886  0.683161
C    -0.790366  0.023070  2.180802
O    0.258640  -0.037922  2.831602
H    -1.821887  -0.092941  0.244946
H    -0.397372  -1.149984  0.441951
H    -0.171554  0.586788  0.219113
N    -1.988819  0.292532  2.775945
C    -2.185498  0.477534  4.216063
C    -1.004019  1.248753  4.858266
O    -0.338623  0.789923  5.797707
H    -2.816567  0.295722  2.190151
H    -3.038656  1.169254  4.304329
C    -2.632001  -0.799912  4.970292
C    -1.929544  -2.150663  4.721674
C    -0.803584  -2.559579  5.685780
N    0.405954  -1.771846  5.483643
C    1.559900  -2.200974  4.989421
N    2.326213  -1.337568  4.303316
N    1.972785  -3.474933  5.168066
H    -3.688331  -0.936692  4.698796
H    -2.632489  -0.561373  6.044212
H    -1.560047  -2.216460  3.687611
H    -2.696380  -2.933588  4.811921
H    -0.574485  -3.621294  5.529295
H    -1.134906  -2.445837  6.728622
H    0.249185  -0.740434  5.541013
H    3.299514  -1.536442  4.115129
H    1.848536  -0.607307  3.770316
H    2.752415  -3.845021  4.641674
H    1.623181  -4.027020  5.939809
N    -0.835424  2.502139  4.394233
C    0.227775  3.384519  4.851168
H    -1.402881  2.803314  3.609664
H    1.095996  3.346049  4.177965
H    0.539549  3.064879  5.849607
H    -0.143014  4.414202  4.899734
