36
Energy: -21201.8109055 eV PBE+vdW (tier 2 basis)
C    -0.501776  1.457069  -0.453494
C    -0.222666  1.245521  1.011499
O    0.932970  1.051132  1.427541
H    0.095833  2.304051  -0.812082
H    -1.558235  1.645177  -0.675314
H    -0.172405  0.568560  -1.007090
N    -1.288258  1.278616  1.851285
C    -1.159618  0.930797  3.266502
C    -2.485366  0.428531  3.864285
O    -2.495074  -0.562723  4.586173
H    -2.215909  1.286262  1.440588
H    -0.488637  0.062939  3.327986
C    -0.574266  2.092381  4.105377
C    -0.125698  1.643538  5.500645
C    1.157999  0.807762  5.524499
N    2.377084  1.601160  5.303735
C    3.276660  1.457608  4.318723
N    4.530936  1.912771  4.529665
N    2.967933  0.879443  3.160227
H    -1.326656  2.889009  4.198845
H    0.267127  2.535251  3.552458
H    -0.914146  1.040721  5.974254
H    0.010044  2.524375  6.146164
H    1.140928  0.004678  4.778444
H    1.262335  0.320875  6.504361
H    2.638884  2.235905  6.051497
H    5.162171  2.072737  3.755595
H    4.892985  2.045699  5.464906
H    3.722029  0.643600  2.525828
H    2.023436  0.912124  2.718246
N    -3.601345  1.150723  3.554755
C    -4.908871  0.812870  4.105561
H    -3.493430  2.066808  3.132157
H    -4.957154  -0.271594  4.243017
H    -5.692299  1.128118  3.408210
H    -5.077234  1.292150  5.080507
