36
Energy: -21201.1862097 eV PBE+vdW (tier 2 basis)
C    -0.294072  0.340668  0.090914
C    -0.080059  0.030411  1.546767
O    1.065768  -0.098632  2.011581
H    0.583213  0.870508  -0.290694
H    -1.201274  0.917531  -0.118211
H    -0.380573  -0.614869  -0.447024
N    -1.156395  -0.113569  2.384249
C    -2.589838  -0.031826  2.087175
C    -2.936349  -0.993665  0.902619
O    -2.396320  -2.092806  0.871315
H    -0.907297  -0.619254  3.228257
H    -3.082493  -0.523020  2.941643
C    -3.114801  1.414858  2.031962
C    -3.156393  2.213899  3.352333
C    -1.834886  2.766590  3.926604
N    -1.225868  1.911138  4.953871
C    -0.052553  1.270518  4.861114
N    0.162321  0.169061  5.605501
N    0.936551  1.669165  4.049385
H    -4.160894  1.380580  1.692291
H    -2.563685  1.993682  1.274609
H    -3.676984  1.629551  4.128642
H    -3.800500  3.086000  3.171623
H    -2.012392  3.751679  4.377739
H    -1.105214  2.909896  3.121338
H    -1.800451  1.708164  5.766683
H    -0.579995  -0.280945  6.125438
H    1.111354  -0.152402  5.756901
H    1.327836  0.932985  3.418450
H    0.836418  2.576337  3.608190
N    -3.847454  -0.567745  -0.007845
C    -4.291695  -1.403970  -1.115368
H    -4.221667  0.369692  0.059364
H    -5.386424  -1.471302  -1.129948
H    -3.868459  -2.402643  -0.973392
H    -3.944288  -1.002260  -2.076652
