36
Energy: -21201.6335654 eV PBE+vdW (tier 2 basis)
C    -0.887525  1.046005  -0.419976
C    -0.320574  1.185394  0.978516
O    0.595154  1.954081  1.225569
H    -0.058852  1.166234  -1.125797
H    -1.587506  1.872808  -0.603557
H    -1.401708  0.099246  -0.619761
N    -0.822011  0.385149  2.009065
C    -2.035126  -0.426330  2.100590
C    -1.894613  -1.832520  1.472751
O    -2.841058  -2.645538  1.496113
H    -0.374391  0.623252  2.890782
H    -2.132871  -0.647787  3.175709
C    -3.303665  0.364495  1.674833
C    -4.669760  -0.320417  1.808136
C    -4.986029  -0.833385  3.218341
N    -6.193101  -1.661977  3.272695
C    -6.218619  -2.977606  3.008565
N    -7.372425  -3.652867  3.197239
N    -5.130721  -3.611195  2.580408
H    -3.199602  0.679739  0.630302
H    -3.288866  1.288542  2.272230
H    -4.737306  -1.151040  1.094983
H    -5.441154  0.407185  1.513615
H    -5.135936  -0.000829  3.918287
H    -4.163132  -1.438368  3.621249
H    -7.086548  -1.192440  3.367971
H    -7.474401  -4.606777  2.878216
H    -8.115831  -3.271844  3.767205
H    -5.127249  -4.622897  2.546991
H    -4.281593  -3.125095  2.214375
N    -0.693643  -2.133450  0.961787
C    -0.351022  -3.422582  0.384414
H    0.025417  -1.421630  1.062049
H    0.158823  -3.278387  -0.575379
H    -1.272410  -3.989854  0.225131
H    0.308103  -3.990425  1.054844
