36
Energy: -21201.9851578 eV PBE+vdW (tier 2 basis)
C    -0.866001  -2.113118  1.489337
C    -1.189694  -0.752802  2.054899
O    -1.642173  0.160609  1.353183
H    -1.736697  -2.484017  0.936140
H    -0.047114  -2.001930  0.766238
H    -0.572312  -2.851737  2.243904
N    -0.955084  -0.582305  3.391229
C    -1.014733  0.686097  4.126936
C    -2.422094  1.293181  4.319213
O    -2.691737  1.838284  5.422688
H    -0.628508  -1.387063  3.912324
H    -0.707969  0.414957  5.144944
C    -0.011787  1.759964  3.583053
C    1.065245  2.221234  4.581337
C    0.654310  3.317490  5.577223
N    -0.458411  2.927306  6.437727
C    -0.449289  2.672456  7.738299
N    0.553368  3.049705  8.553349
N    -1.489091  1.978340  8.251521
H    -0.562431  2.626558  3.189116
H    0.490769  1.319662  2.714328
H    1.910256  2.632656  4.009778
H    1.464055  1.354771  5.132683
H    0.354647  4.225188  5.032418
H    1.524699  3.591475  6.187552
H    -1.343234  2.609422  5.966184
H    0.585930  2.738633  9.514569
H    1.256385  3.708045  8.248825
H    -1.743336  2.083861  9.225512
H    -2.222454  1.696364  7.601815
N    -3.258116  1.262206  3.286818
C    -4.592201  1.841878  3.307207
H    -2.862836  0.899079  2.401608
H    -4.647052  2.697376  2.621067
H    -4.822403  2.178806  4.321558
H    -5.329908  1.093370  2.993420
