36
Energy: -21201.7112889 eV PBE+vdW (tier 2 basis)
C    0.938038  1.108981  1.296731
C    0.992918  1.398549  2.773340
O    2.071475  1.699542  3.328421
H    -0.011149  1.405918  0.836212
H    1.081618  0.032607  1.120414
H    1.766373  1.633822  0.811711
N    -0.143904  1.313262  3.502859
C    -1.337504  0.527459  3.236874
C    -2.357758  0.985248  4.301436
O    -1.950880  1.416682  5.384582
H    -0.100489  1.611868  4.482067
H    -1.714049  0.729754  2.225395
C    -1.077636  -1.002268  3.394070
C    -0.326259  -1.375317  4.689951
C    1.201528  -1.455116  4.512225
N    1.936048  -1.446903  5.779802
C    2.370757  -0.360131  6.440339
N    2.788569  -0.518558  7.715812
N    2.403858  0.848760  5.887720
H    -0.525255  -1.359273  2.511421
H    -2.044907  -1.521768  3.366878
H    -0.688126  -2.346741  5.053731
H    -0.563392  -0.645921  5.478176
H    1.588086  -0.637539  3.897360
H    1.482315  -2.379495  3.990233
H    2.053898  -2.336180  6.251362
H    3.326684  0.200460  8.180096
H    2.619968  -1.374438  8.226351
H    2.638346  1.636082  6.480545
H    2.263915  1.088617  4.868332
N    -3.672755  0.836620  4.021505
C    -4.284525  0.451387  2.755014
H    -4.285317  1.130335  4.777112
H    -3.998192  -0.563402  2.447563
H    -4.038442  1.154829  1.947144
H    -5.370693  0.460943  2.884957
