36
Energy: -21201.6605365 eV PBE+vdW (tier 2 basis)
C    -0.292057  -0.876764  -0.304265
C    0.353889  -0.086899  0.801704
O    1.559947  0.206700  0.785185
H    -0.601362  -0.190576  -1.105578
H    0.456002  -1.558622  -0.720589
H    -1.169061  -1.446965  0.023074
N    -0.412084  0.300488  1.866452
C    -1.840994  0.549702  1.904715
C    -2.333732  1.316217  0.651226
O    -1.669720  2.213428  0.125323
H    0.138329  0.781440  2.568833
H    -2.383622  -0.410041  1.950078
C    -2.214826  1.334213  3.194880
C    -1.264741  2.416168  3.755011
C    -0.832836  3.604903  2.873319
N    0.423435  3.338147  2.166623
C    0.717967  3.644159  0.894474
N    0.119922  4.679488  0.280120
N    1.676140  2.950407  0.274761
H    -2.352183  0.600890  4.002017
H    -3.205043  1.781427  3.027667
H    -0.362216  1.953789  4.191338
H    -1.784934  2.835373  4.627667
H    -0.707748  4.491568  3.512361
H    -1.600692  3.827301  2.121719
H    1.130702  2.797532  2.654503
H    -0.517324  5.270248  0.797797
H    -0.019491  4.641076  -0.722204
H    2.056710  3.292974  -0.598602
H    1.818818  1.951221  0.514936
N    -3.558194  0.933519  0.221314
C    -4.255987  1.564564  -0.888754
H    -4.014501  0.162429  0.696398
H    -5.164528  2.075863  -0.544155
H    -4.532327  0.817418  -1.642841
H    -3.580734  2.297290  -1.340035
