36
Energy: -21201.9838086 eV PBE+vdW (tier 2 basis)
C    -0.011051  0.864469  -0.045725
C    -0.076143  -0.152056  1.069093
O    0.823424  -0.944711  1.310806
H    0.334566  0.368172  -0.959518
H    0.740196  1.622049  0.214614
H    -0.965746  1.366956  -0.242407
N    -1.251910  -0.150236  1.815188
C    -1.330514  -0.935528  3.035702
C    -2.576602  -1.839690  3.047794
O    -3.126453  -2.206745  4.110610
H    -1.892513  0.628791  1.695854
H    -0.459704  -1.613563  2.953023
C    -1.156795  -0.089417  4.316945
C    -0.491959  -0.841125  5.499882
C    -1.284789  -0.803904  6.806289
N    -2.553943  -1.498081  6.603986
C    -3.425987  -1.830854  7.537387
N    -4.484700  -2.602181  7.202518
N    -3.285444  -1.435060  8.818148
H    -2.127546  0.335023  4.615642
H    -0.523909  0.762805  4.042274
H    0.499432  -0.415290  5.697650
H    -0.317283  -1.894064  5.233959
H    -1.464489  0.240724  7.114693
H    -0.706232  -1.298630  7.603394
H    -2.772649  -1.765151  5.605177
H    -4.610101  -2.851175  6.227319
H    -5.304783  -2.633084  7.793843
H    -3.830071  -1.862862  9.555196
H    -2.482036  -0.889210  9.098334
N    -3.000281  -2.249131  1.844279
C    -4.090446  -3.185383  1.626730
H    -2.499921  -1.874405  1.043058
H    -3.746106  -4.031302  1.019203
H    -4.929277  -2.696766  1.113912
H    -4.430831  -3.555452  2.597616
