36
Energy: -21201.2772579 eV PBE+vdW (tier 2 basis)
C    -0.361223  -0.346283  -1.226193
C    0.073789  -0.237382  0.221386
O    1.219371  -0.459592  0.587184
H    0.537577  -0.473327  -1.834898
H    -0.907926  0.541945  -1.570176
H    -1.009260  -1.220355  -1.382886
N    -0.877183  0.167060  1.151600
C    -2.322051  0.177699  1.014544
C    -2.979370  1.493506  1.521980
O    -4.146845  1.493382  1.916272
H    -0.501301  0.164494  2.099123
H    -2.551835  0.127522  -0.060472
C    -3.008648  -1.005346  1.716144
C    -2.652280  -2.383933  1.168128
C    -3.476182  -3.512728  1.795606
N    -3.265210  -3.692021  3.243566
C    -4.058309  -3.258976  4.229081
N    -3.934911  -3.790475  5.459271
N    -4.986060  -2.317434  4.012268
H    -4.089743  -0.812571  1.618162
H    -2.760668  -0.943044  2.789667
H    -1.579137  -2.592861  1.296949
H    -2.845361  -2.422916  0.084734
H    -3.227045  -4.473690  1.326823
H    -4.551473  -3.352998  1.635523
H    -2.448847  -4.226444  3.523748
H    -3.461663  -4.672984  5.606023
H    -4.310245  -3.320191  6.273074
H    -5.706478  -2.134164  4.699391
H    -4.896341  -1.663717  3.240136
N    -2.185664  2.584829  1.456757
C    -2.632803  3.919357  1.819449
H    -1.232125  2.444978  1.137322
H    -2.024204  4.326951  2.637100
H    -3.674930  3.849518  2.146118
H    -2.571359  4.597742  0.958576
