36
Energy: -21201.5456736 eV PBE+vdW (tier 2 basis)
C    -0.158645  0.518335  0.043081
C    -0.229128  0.277271  1.531925
O    0.792498  0.033508  2.199334
H    0.522707  1.355766  -0.152583
H    -1.128808  0.731511  -0.419603
H    0.275714  -0.370080  -0.432705
N    -1.460987  0.347557  2.090789
C    -1.786930  0.070504  3.500676
C    -3.285693  0.416474  3.679497
O    -3.635481  1.458428  4.225829
H    -2.234446  0.590937  1.480898
H    -1.639083  -1.007613  3.675819
C    -0.925151  0.822500  4.534078
C    -0.548169  2.253296  4.156576
C    0.377088  2.936065  5.164809
N    1.531691  2.148189  5.659894
C    2.614937  1.741641  4.980129
N    3.774800  1.594603  5.655317
N    2.577431  1.489598  3.670182
H    -0.020557  0.226976  4.707814
H    -1.494605  0.829404  5.474682
H    -1.454573  2.870468  4.088117
H    -0.084842  2.282832  3.162294
H    -0.184881  3.187308  6.072632
H    0.755874  3.879232  4.745067
H    1.606383  2.073381  6.667839
H    4.521419  1.017834  5.289250
H    3.932200  2.060709  6.539477
H    3.458418  1.335862  3.192738
H    1.751312  1.068337  3.196845
N    -4.181824  -0.464647  3.149858
C    -3.941692  -1.821530  2.670021
H    -5.147906  -0.189596  3.308946
H    -4.817687  -2.147358  2.099701
H    -3.784013  -2.534569  3.493087
H    -3.078430  -1.862632  1.995332
