36
Energy: -21201.7909184 eV PBE+vdW (tier 2 basis)
C    -0.318590  0.702439  3.442629
C    -1.600666  1.152663  4.094624
O    -1.622395  1.612817  5.242778
H    0.509000  0.929179  4.119196
H    -0.154469  1.214901  2.484749
H    -0.324314  -0.378124  3.243039
N    -2.790688  1.000553  3.414485
C    -3.021814  0.426709  2.091388
C    -3.847367  1.486937  1.320915
O    -4.571011  2.257667  1.953230
H    -3.530391  1.674931  3.656476
H    -2.059633  0.238125  1.597353
C    -3.845105  -0.888510  2.159120
C    -3.267497  -2.027943  3.033717
C    -3.901594  -2.202177  4.422060
N    -3.661244  -1.025230  5.252516
C    -3.637194  -0.945732  6.583377
N    -3.131091  0.153886  7.152304
N    -4.094724  -1.962375  7.339333
H    -3.954792  -1.252695  1.128376
H    -4.864431  -0.635203  2.491333
H    -2.177932  -1.922679  3.147347
H    -3.418914  -2.981130  2.509906
H    -3.463105  -3.086175  4.909012
H    -4.984967  -2.379793  4.312124
H    -3.409297  -0.174666  4.731414
H    -3.259630  0.340883  8.137632
H    -2.616247  0.837070  6.571321
H    -3.983815  -1.954408  8.344257
H    -4.671209  -2.689994  6.939576
N    -3.754392  1.472450  -0.024221
C    -4.534222  2.377559  -0.863305
H    -3.115069  0.825464  -0.469693
H    -4.216576  2.254075  -1.902533
H    -4.371852  3.417471  -0.555712
H    -5.606658  2.158218  -0.784442
