36
Energy: -21201.49401 eV PBE+vdW (tier 2 basis)
C    0.537280  0.514888  1.007397
C    0.131788  0.667124  2.454648
O    0.924426  1.159178  3.279222
H    1.462648  -0.072060  0.957205
H    0.764228  1.509075  0.601067
H    -0.222381  0.038727  0.377459
N    -1.122090  0.254714  2.759365
C    -1.871031  0.252224  4.025009
C    -2.976196  1.339827  4.166266
O    -4.038019  0.985776  4.670673
H    -1.653105  -0.106810  1.974121
H    -2.483340  -0.659689  3.983102
C    -1.052052  0.164649  5.324233
C    -0.244961  -1.144391  5.480860
C    1.274555  -0.997731  5.595033
N    1.697706  -0.176779  6.737528
C    2.274523  1.030857  6.683853
N    2.313511  1.737283  5.555610
N    2.822893  1.536366  7.809581
H    -1.800899  0.223512  6.124504
H    -0.418240  1.050962  5.437337
H    -0.428041  -1.813092  4.626463
H    -0.612061  -1.693627  6.360162
H    1.700757  -0.557764  4.688005
H    1.732958  -1.989146  5.718516
H    1.522854  -0.554414  7.663287
H    2.938324  2.530173  5.485964
H    1.757060  1.488045  4.716049
H    3.032636  0.947290  8.604144
H    3.072516  2.514018  7.873591
N    -2.765828  2.625531  3.772289
C    -1.579522  3.282507  3.248170
H    -3.592957  3.200194  3.909977
H    -1.481346  3.167037  2.157814
H    -0.665736  2.907770  3.721907
H    -1.653611  4.353190  3.467896
