36
Energy: -21201.839525 eV PBE+vdW (tier 2 basis)
C    1.469682  0.555216  0.447371
C    0.973827  0.584386  1.869455
O    1.731972  0.941074  2.806325
H    1.777289  1.570411  0.163767
H    0.728018  0.195921  -0.274234
H    2.361959  -0.080887  0.390664
N    -0.307748  0.217166  2.072388
C    -1.115058  0.273710  3.307480
C    -1.679547  1.688815  3.621335
O    -2.862768  1.809305  3.912655
H    -0.839701  0.002927  1.235406
H    -2.008502  -0.321430  3.082375
C    -0.450098  -0.301507  4.573309
C    0.158082  -1.710049  4.418926
C    1.464145  -1.874437  5.200164
N    2.440088  -0.922940  4.667095
C    3.695365  -0.755591  5.057097
N    4.261066  -1.557605  5.976164
N    4.406808  0.250969  4.512128
H    -1.232242  -0.310533  5.344269
H    0.307524  0.408233  4.928851
H    0.364456  -1.930063  3.360458
H    -0.549413  -2.477415  4.757071
H    1.838978  -2.904299  5.088259
H    1.296986  -1.683234  6.274058
H    2.093782  -0.233016  3.967825
H    5.187773  -1.374341  6.336261
H    3.724612  -2.287519  6.424633
H    5.406772  0.321702  4.641204
H    3.979835  0.805564  3.775305
N    -0.778239  2.705606  3.581459
C    -1.142638  4.080359  3.889314
H    0.198754  2.483273  3.410888
H    -0.791930  4.757178  3.100272
H    -0.717847  4.401132  4.850712
H    -2.233708  4.134463  3.953333
