36
Energy: -21201.7178541 eV PBE+vdW (tier 2 basis)
C    0.369852  1.703154  0.220687
C    0.264457  1.224947  1.650930
O    1.119657  1.451428  2.502363
H    0.634449  2.766787  0.221294
H    -0.545071  1.556514  -0.365524
H    1.192106  1.165295  -0.269166
N    -0.870416  0.515585  1.968520
C    -1.040535  -0.108570  3.274740
C    -0.679718  0.854198  4.431936
O    0.075104  0.499932  5.356296
H    -1.539779  0.296387  1.240129
H    -2.119100  -0.320299  3.379080
C    -0.263877  -1.436780  3.360215
C    -0.536577  -2.276627  4.625812
C    0.765168  -2.560965  5.389080
N    0.565755  -3.002835  6.771973
C    0.480889  -2.179762  7.826705
N    0.425582  -2.720568  9.065096
N    0.445380  -0.859599  7.670872
H    0.805327  -1.195637  3.280107
H    -0.520333  -2.011730  2.461234
H    -1.026634  -3.224852  4.364048
H    -1.230556  -1.748553  5.294329
H    1.383569  -1.655506  5.412640
H    1.353923  -3.338435  4.885094
H    0.364040  -3.982764  6.936439
H    0.249676  -2.139718  9.873663
H    0.760253  -3.659468  9.236448
H    0.580119  -0.261460  8.475981
H    0.297935  -0.389677  6.751347
N    -1.290230  2.056917  4.486747
C    -2.201813  2.688203  3.544215
H    -0.953335  2.630360  5.255103
H    -2.772765  3.453494  4.081075
H    -2.916517  1.963459  3.139427
H    -1.670702  3.167639  2.710085
