36
Energy: -21201.6563696 eV PBE+vdW (tier 2 basis)
C    -1.675829  1.871250  -1.477018
C    -1.364707  2.558106  -0.176308
O    -1.377774  3.798171  -0.070628
H    -1.085937  2.365327  -2.258731
H    -2.736525  2.010110  -1.720936
H    -1.445658  0.800934  -1.479579
N    -1.008498  1.814621  0.914443
C    -1.478207  0.498362  1.325134
C    -2.843077  0.125963  0.701286
O    -3.790569  0.912954  0.643346
H    -0.677355  2.405653  1.672164
H    -0.744046  -0.272145  1.034618
C    -1.594389  0.457348  2.879094
C    -2.052422  1.715018  3.651488
C    -3.419437  2.354460  3.355063
N    -3.348387  3.375412  2.305173
C    -4.357760  3.745311  1.513755
N    -4.093146  4.413520  0.385568
N    -5.632287  3.491054  1.861410
H    -0.605057  0.193443  3.280000
H    -2.252167  -0.384980  3.136268
H    -1.281050  2.503281  3.620270
H    -2.068095  1.413947  4.708299
H    -3.786874  2.821665  4.281931
H    -4.138752  1.583953  3.042389
H    -2.432756  3.699181  1.997530
H    -4.818730  4.924721  -0.098157
H    -3.129028  4.429998  0.027111
H    -6.354383  3.481929  1.153287
H    -5.840161  3.018609  2.730217
N    -2.927244  -1.158174  0.286459
C    -4.159134  -1.724407  -0.246500
H    -2.098029  -1.739491  0.314131
H    -4.036445  -2.806564  -0.347687
H    -4.399190  -1.296666  -1.229197
H    -4.995825  -1.517811  0.431222
