36
Energy: -21202.0235482 eV PBE+vdW (tier 2 basis)
C    -0.603061  0.647588  0.250995
C    -0.890868  0.819146  1.723626
O    -1.129285  1.905006  2.244136
H    -0.609233  -0.396771  -0.082430
H    -1.341529  1.217618  -0.323922
H    0.382300  1.080785  0.032895
N    -0.896433  -0.337812  2.480502
C    -0.967033  -0.266182  3.939061
C    -2.262942  0.470114  4.368094
O    -2.314500  1.251218  5.339488
H    -0.555603  -1.196587  2.062159
H    -1.085662  -1.305198  4.288222
C    0.317676  0.316055  4.564171
C    0.513567  0.018966  6.070123
C    0.830499  1.268416  6.896393
N    -0.296783  2.189857  6.776933
C    -0.306599  3.472129  7.091566
N    0.676152  4.034065  7.822096
N    -1.323365  4.247322  6.655610
H    0.332456  1.396174  4.367192
H    1.159223  -0.106108  4.000148
H    1.330467  -0.699008  6.215229
H    -0.382912  -0.454719  6.497570
H    1.751373  1.749733  6.525537
H    0.992379  0.988293  7.949908
H    -1.118903  1.813930  6.228808
H    0.766652  5.038619  7.890862
H    1.420369  3.469691  8.207611
H    -1.557096  5.108297  7.132387
H    -2.046433  3.820626  6.086078
N    -3.365692  0.132308  3.684772
C    -4.666542  0.733419  3.935785
H    -3.237370  -0.425699  2.847461
H    -5.438830  0.115133  3.468322
H    -4.721380  1.750944  3.523154
H    -4.849058  0.781633  5.014457
