36
Energy: -21201.8623789 eV PBE+vdW (tier 2 basis)
C    -1.453918  0.274926  0.092929
C    -0.666866  0.276409  1.382003
O    0.496427  0.644011  1.459626
H    -1.637296  1.315230  -0.207107
H    -2.415599  -0.248096  0.161409
H    -0.845514  -0.184884  -0.694032
N    -1.348798  -0.189029  2.503385
C    -0.752550  -0.054399  3.821059
C    -0.683020  -1.389221  4.586300
O    -0.630317  -1.438720  5.834841
H    -2.346951  -0.350741  2.420944
H    0.305550  0.179067  3.592571
C    -1.270844  1.152480  4.628559
C    -2.777837  1.276823  4.905587
C    -3.392716  0.181697  5.792849
N    -2.592292  -0.101308  6.980416
C    -2.737170  0.410978  8.189607
N    -1.951150  -0.035534  9.193909
N    -3.655963  1.356645  8.472799
H    -0.963367  2.046116  4.068582
H    -0.710988  1.189110  5.573652
H    -3.348573  1.306581  3.964242
H    -2.941302  2.258392  5.376423
H    -3.460798  -0.769352  5.245629
H    -4.424118  0.434239  6.076692
H    -1.720154  -0.640500  6.736848
H    -1.803930  0.530930  10.019365
H    -1.259984  -0.750111  8.999929
H    -3.950274  1.515245  9.427844
H    -4.245789  1.732251  7.743251
N    -0.598583  -2.486489  3.818172
C    -0.374591  -3.828425  4.331770
H    -0.613133  -2.336287  2.813363
H    -1.085713  -4.530249  3.880071
H    -0.515191  -3.812926  5.416162
H    0.647312  -4.164857  4.111353
