36
Energy: -21201.7974237 eV PBE+vdW (tier 2 basis)
C    0.027425  0.040190  1.456321
C    -0.087237  0.094913  2.958098
O    0.890804  0.326222  3.679513
H    -0.670418  0.739152  0.975180
H    -0.192245  -0.965037  1.070590
H    1.050892  0.305175  1.180044
N    -1.304202  -0.170973  3.549639
C    -2.570021  -0.533715  2.917264
C    -3.615362  0.462542  3.477842
O    -3.439886  0.935849  4.601073
H    -1.463863  0.281534  4.460341
H    -2.477174  -0.439596  1.827285
C    -3.015065  -1.975614  3.284247
C    -2.023144  -3.116619  2.950941
C    -1.196707  -3.659329  4.126690
N    -0.309873  -2.626878  4.655967
C    0.828148  -2.784533  5.332814
N    1.631877  -1.727549  5.493647
N    1.170853  -3.989918  5.826526
H    -3.961635  -2.163283  2.758994
H    -3.265866  -1.991557  4.356764
H    -1.341174  -2.820137  2.139585
H    -2.592145  -3.970973  2.560839
H    -0.594753  -4.512459  3.779259
H    -1.875625  -4.024207  4.916189
H    -0.573917  -1.663977  4.408154
H    2.401462  -1.749161  6.149120
H    1.448294  -0.862026  4.958508
H    2.077798  -4.141692  6.246804
H    0.490895  -4.733785  5.903137
N    -4.687460  0.708858  2.694177
C    -5.792018  1.568049  3.102145
H    -4.717129  0.294283  1.769489
H    -5.886105  2.425921  2.424577
H    -5.580641  1.930907  4.112119
H    -6.736204  1.008974  3.108714
