36
Energy: -21201.8080417 eV PBE+vdW (tier 2 basis)
C    1.075178  -0.467884  -0.507291
C    0.208138  -0.578608  0.727339
O    -0.405236  -1.596626  1.029021
H    1.766758  -1.318044  -0.533384
H    1.646032  0.466920  -0.565634
H    0.433227  -0.546351  -1.394311
N    0.152257  0.548162  1.521960
C    -0.797631  0.612058  2.623471
C    -1.080310  2.080833  2.915618
O    -0.181300  2.942451  2.794565
H    0.514743  1.432312  1.179031
H    -1.710451  0.090245  2.300405
C    -0.319513  -0.119310  3.911784
C    0.754155  0.584752  4.749927
C    2.117528  0.699088  4.052166
N    3.048592  1.591794  4.747772
C    3.170830  2.904865  4.508608
N    2.342818  3.539541  3.680975
N    4.168104  3.583071  5.116818
H    0.012250  -1.117659  3.594444
H    -1.198616  -0.285244  4.550742
H    0.882228  0.029922  5.691558
H    0.410270  1.590060  5.038221
H    2.012473  1.062337  3.024625
H    2.600219  -0.284430  3.981155
H    3.557046  1.220864  5.543100
H    1.423342  3.164044  3.367760
H    2.559084  4.487118  3.397745
H    4.964525  3.101205  5.512070
H    4.200433  4.593247  5.093488
N    -2.307153  2.421177  3.345340
C    -3.488997  1.570086  3.465894
H    -2.410750  3.410137  3.557536
H    -3.366581  0.807341  4.245520
H    -4.335882  2.204098  3.743778
H    -3.730519  1.078655  2.515165
