36
Energy: -21201.391808 eV PBE+vdW (tier 2 basis)
C    0.783718  -0.992842  0.025601
C    0.596822  -0.530702  1.450521
O    1.558250  -0.245844  2.177111
H    -0.153656  -1.141034  -0.522678
H    1.402504  -0.260016  -0.505783
H    1.340906  -1.938588  0.037188
N    -0.694486  -0.438006  1.887434
C    -1.139103  -0.165318  3.254697
C    -0.872025  1.256847  3.828757
O    -1.716712  1.761751  4.594576
H    -1.424416  -0.640467  1.215022
H    -2.235315  -0.206114  3.214733
C    -0.671022  -1.254548  4.264409
C    -1.103910  -0.809107  5.657224
C    -0.980051  -1.771656  6.817580
N    -1.250990  -1.096131  8.113041
C    -1.967190  -0.004123  8.433450
N    -2.326526  0.134805  9.730718
N    -2.335209  0.966938  7.589343
H    0.418424  -1.375286  4.203858
H    -1.134378  -2.209616  3.977857
H    -0.506280  0.078737  5.907173
H    -2.153320  -0.497447  5.576523
H    0.038742  -2.175498  6.897614
H    -1.671009  -2.622580  6.716690
H    -0.902799  -1.602799  8.920515
H    -2.303716  -0.646582  10.371938
H    -2.578686  1.039575  10.106590
H    -3.024074  1.640681  7.900645
H    -1.996769  1.083556  6.629564
N    0.295683  1.831926  3.513439
C    0.677506  3.145794  4.003963
H    0.975608  1.245363  3.006320
H    1.146489  3.089247  4.997885
H    -0.210555  3.782213  4.077863
H    1.391523  3.594369  3.305733
