36
Energy: -21201.7827509 eV PBE+vdW (tier 2 basis)
C    -0.516250  1.458013  -0.727233
C    -0.556430  1.433300  0.776572
O    0.122932  2.232353  1.456532
H    -0.807091  2.455962  -1.078233
H    -1.168485  0.711698  -1.194335
H    0.516545  1.284863  -1.055422
N    -1.357348  0.509230  1.357906
C    -1.413531  0.353858  2.812932
C    -1.788758  -1.045969  3.331238
O    -1.140759  -1.493290  4.274775
H    -1.854103  -0.135852  0.756074
H    -0.375228  0.445706  3.153541
C    -2.271496  1.454764  3.492314
C    -1.902474  1.742735  4.956126
C    -0.403873  2.012673  5.192754
N    0.196633  2.845296  4.149269
C    0.415130  4.154754  4.159681
N    0.629446  4.773310  2.980190
N    0.417205  4.878349  5.293544
H    -3.336328  1.189645  3.439968
H    -2.159047  2.373266  2.899636
H    -2.184839  0.900180  5.602889
H    -2.492512  2.609504  5.286929
H    0.154562  1.067285  5.208339
H    -0.254485  2.464341  6.181502
H    0.227661  2.431701  3.194311
H    1.127909  5.652924  2.943502
H    0.604719  4.204674  2.133824
H    0.492842  5.885771  5.269349
H    0.387067  4.430810  6.198633
N    -2.846716  -1.724139  2.802819
C    -3.798629  -1.335540  1.772935
H    -2.980135  -2.632060  3.240909
H    -4.764228  -1.807861  1.984871
H    -3.489794  -1.659555  0.764887
H    -3.966179  -0.252490  1.767331
