36
Energy: -21202.107141 eV PBE+vdW (tier 2 basis)
C    -0.412006  1.662629  -0.327157
C    -0.316278  1.538309  1.168193
O    0.661702  2.018329  1.791672
H    0.455234  1.161835  -0.776890
H    -0.355371  2.722151  -0.605650
H    -1.328597  1.227903  -0.739163
N    -1.320816  0.899164  1.793561
C    -1.310173  0.479271  3.187905
C    -1.889481  -0.956584  3.176729
O    -2.664011  -1.283613  2.277798
H    -2.031303  0.403917  1.247234
H    -0.269592  0.481125  3.540185
C    -2.214394  1.354363  4.092272
C    -1.884296  2.849037  4.214914
C    -0.633911  3.224235  5.022510
N    0.579644  3.037154  4.231921
C    1.747028  3.631398  4.432315
N    2.665178  3.594616  3.445583
N    2.034508  4.273415  5.581225
H    -2.236094  0.905548  5.097424
H    -3.238168  1.263273  3.700653
H    -2.738000  3.325301  4.716863
H    -1.827431  3.318226  3.220675
H    -0.588378  2.621339  5.946207
H    -0.710138  4.282144  5.320679
H    0.505356  2.536191  3.306125
H    3.645111  3.750507  3.640312
H    2.417363  3.124208  2.577338
H    2.832250  4.891577  5.645663
H    1.372171  4.288156  6.344263
N    -1.549663  -1.785728  4.192809
C    -0.581968  -1.555094  5.255552
H    -2.002340  -2.694236  4.145964
H    0.405937  -1.283440  4.858375
H    -0.465494  -2.484732  5.820426
H    -0.911579  -0.777890  5.960517
