36
Energy: -21201.1880056 eV PBE+vdW (tier 2 basis)
C    -0.768209  -0.140091  -0.072362
C    -0.517122  -0.558606  1.362488
O    0.511913  -1.174942  1.653501
H    -0.434828  -0.940001  -0.741177
H    -0.152760  0.746310  -0.280766
H    -1.813685  0.106392  -0.292865
N    -1.526536  -0.198395  2.224815
C    -1.618983  -0.116045  3.691792
C    -0.619373  0.921522  4.261134
O    0.525212  1.018864  3.826558
H    -2.271562  0.307612  1.761116
H    -2.639536  0.248409  3.865805
C    -1.503162  -1.450440  4.473451
C    -0.165338  -2.140387  4.230588
C    0.275704  -3.176720  5.244089
N    1.486335  -3.908243  4.800081
C    2.519769  -3.534930  4.021058
N    2.487856  -2.558778  3.115194
N    3.669026  -4.239079  4.156844
H    -2.342502  -2.102775  4.193441
H    -1.631928  -1.207847  5.540504
H    0.594007  -1.351620  4.181593
H    -0.214007  -2.618041  3.245837
H    -0.495293  -3.945337  5.396159
H    0.482949  -2.714817  6.222733
H    1.626088  -4.801042  5.260899
H    3.365618  -2.242614  2.721209
H    1.641332  -2.096300  2.741134
H    3.867786  -4.768501  4.994755
H    4.375347  -4.223738  3.433091
N    -1.063217  1.681774  5.302848
C    -2.403053  1.765493  5.869395
H    -0.362580  2.332944  5.645555
H    -3.144770  2.121281  5.139230
H    -2.381537  2.485207  6.693556
H    -2.741787  0.805318  6.283120
