36
Energy: -21201.8949596 eV PBE+vdW (tier 2 basis)
C    -0.467493  1.991882  0.338973
C    -0.392809  0.982314  1.459692
O    0.619768  0.348519  1.732884
H    -1.461615  2.434852  0.205623
H    -0.164067  1.505045  -0.595896
H    0.257920  2.791481  0.535171
N    -1.563580  0.783452  2.177113
C    -1.533119  -0.048267  3.369389
C    -1.681693  -1.549300  3.067094
O    -1.196296  -2.388479  3.854887
H    -2.323178  1.447132  2.065053
H    -0.515576  0.036486  3.774704
C    -2.560154  0.484509  4.392004
C    -2.964855  -0.378847  5.598742
C    -1.873843  -0.968443  6.516816
N    -0.681231  -0.137680  6.704178
C    0.560785  -0.460393  6.302425
N    1.595695  0.273300  6.769501
N    0.770653  -1.461618  5.454924
H    -3.496019  0.707422  3.854503
H    -2.175641  1.453918  4.743077
H    -3.571635  -1.232482  5.263497
H    -3.640930  0.243553  6.202557
H    -1.540441  -1.933539  6.129230
H    -2.308396  -1.158072  7.508202
H    -0.777631  0.717575  7.240436
H    2.523534  0.156334  6.384693
H    1.514893  0.808929  7.623623
H    -0.001803  -1.854670  4.845992
H    1.721761  -1.735417  5.241101
N    -2.358505  -1.882352  1.962503
C    -2.559341  -3.250828  1.509693
H    -2.623183  -1.114670  1.351884
H    -3.619249  -3.424451  1.288750
H    -2.238508  -3.928426  2.305803
H    -1.966968  -3.452350  0.607564
