36
Energy: -21201.6123862 eV PBE+vdW (tier 2 basis)
C    -0.350041  0.779716  0.994495
C    -0.351704  0.246463  2.400273
O    0.681825  0.240867  3.096239
H    -1.271907  1.316647  0.742265
H    0.511967  1.441955  0.875641
H    -0.238411  -0.049835  0.280424
N    -1.518619  -0.241214  2.915668
C    -2.592116  -0.908775  2.168927
C    -3.901441  -0.912052  3.009986
O    -4.635923  -1.893137  3.025665
H    -1.415237  -0.554934  3.879859
H    -2.804353  -0.311178  1.269552
C    -2.220568  -2.340354  1.733992
C    -1.530635  -3.180445  2.827437
C    0.003225  -3.149490  2.716175
N    0.691663  -3.714444  3.879881
C    1.169095  -3.034017  4.932069
N    1.198038  -1.702206  4.969469
N    1.616604  -3.733238  5.999170
H    -1.581452  -2.289509  0.839264
H    -3.154483  -2.827341  1.431124
H    -1.870773  -4.222402  2.756483
H    -1.838020  -2.842337  3.829141
H    0.386168  -2.135697  2.560913
H    0.330164  -3.726729  1.840501
H    0.722070  -4.725998  3.943980
H    1.560322  -1.253366  5.801987
H    0.970127  -1.048148  4.181719
H    2.169827  -3.282266  6.715707
H    1.610129  -4.744447  6.002773
N    -4.147653  0.243604  3.680541
C    -5.366819  0.465375  4.443699
H    -3.494434  1.011266  3.568654
H    -5.130474  0.840342  5.447119
H    -5.890403  -0.491831  4.527336
H    -6.025112  1.185313  3.938752
