36
Energy: -21202.0389236 eV PBE+vdW (tier 2 basis)
C    -0.993859  3.054456  -0.035474
C    -0.742981  2.006864  1.017505
O    0.356936  1.416286  1.105892
H    -0.860120  2.596690  -1.024033
H    -0.243167  3.849274  0.058783
H    -1.993911  3.497141  0.021921
N    -1.759826  1.731494  1.853112
C    -1.748147  0.655130  2.829715
C    -3.207055  0.148502  2.888781
O    -4.121038  0.906126  2.560327
H    -2.694739  2.120749  1.703656
H    -1.066492  -0.125364  2.463978
C    -1.325520  1.134907  4.240927
C    0.066265  1.772077  4.336897
C    1.215130  0.782562  4.113027
N    2.534874  1.413138  4.210151
C    3.306075  1.814263  3.187694
N    2.876118  1.802458  1.930677
N    4.557850  2.243301  3.468566
H    -1.394800  0.285504  4.937942
H    -2.071028  1.868990  4.578648
H    0.169327  2.220950  5.336838
H    0.150998  2.599999  3.618384
H    1.139277  0.311349  3.126298
H    1.186134  -0.020338  4.863727
H    2.851071  1.674650  5.137988
H    3.547720  1.923984  1.182928
H    1.875424  1.677336  1.646908
H    5.122124  2.691556  2.759566
H    5.015748  1.990201  4.333931
N    -3.429387  -1.110436  3.337965
C    -2.457473  -2.125653  3.714004
H    -4.415516  -1.347130  3.404246
H    -2.058150  -1.972616  4.728022
H    -1.621907  -2.162018  3.003763
H    -2.948956  -3.103382  3.689739
