36
Energy: -21202.0117299 eV PBE+vdW (tier 2 basis)
C    -2.062392  0.640733  0.276526
C    -1.486717  0.456994  1.661769
O    -0.327608  0.101304  1.861564
H    -2.103849  -0.338525  -0.217962
H    -1.380526  1.268117  -0.309393
H    -3.064359  1.085240  0.264357
N    -2.341968  0.735987  2.706718
C    -1.996604  0.528358  4.113918
C    -0.602306  1.110762  4.450663
O    0.194313  0.534470  5.218523
H    -3.307515  0.958020  2.491535
H    -2.693910  1.167131  4.681509
C    -2.234313  -0.904701  4.629493
C    -1.451877  -2.057193  3.947717
C    -0.658948  -2.924255  4.927454
N    0.357365  -2.093623  5.568415
C    1.431150  -2.507864  6.213021
N    2.378050  -1.605204  6.557342
N    1.622530  -3.804676  6.528564
H    -3.312327  -1.093196  4.533206
H    -2.043327  -0.889936  5.713275
H    -0.756018  -1.659887  3.197979
H    -2.147145  -2.714327  3.410760
H    -0.177288  -3.749614  4.379235
H    -1.326352  -3.364369  5.688806
H    0.243460  -1.051044  5.446151
H    3.013598  -1.799493  7.320162
H    2.209724  -0.629172  6.335286
H    2.537636  -4.140168  6.798459
H    0.932617  -4.498647  6.275405
N    -0.357771  2.341118  3.978863
C    0.913755  3.021331  4.175430
H    -1.009320  2.719031  3.300079
H    1.187390  3.004920  5.236130
H    0.810738  4.060873  3.850955
H    1.713114  2.539502  3.595086
