36
Energy: -21201.8644046 eV PBE+vdW (tier 2 basis)
C    1.138444  -0.719942  0.844375
C    0.666222  -0.114412  2.143668
O    1.444006  0.462871  2.913574
H    0.333827  -1.128114  0.222025
H    1.685195  0.042271  0.276841
H    1.850123  -1.523353  1.075184
N    -0.670055  -0.236827  2.411683
C    -1.356432  0.101016  3.665198
C    -1.426013  1.603369  4.016993
O    -2.488950  2.079643  4.486499
H    -1.238437  -0.679890  1.700366
H    -2.402126  -0.178733  3.491138
C    -0.810275  -0.716955  4.864984
C    -1.508110  -0.437124  6.203705
C    -2.761790  -1.260138  6.517933
N    -3.819503  -1.358684  5.482998
C    -4.818832  -0.470704  5.291294
N    -4.602024  0.830959  5.436527
N    -6.031711  -0.943823  4.931518
H    0.259032  -0.492465  4.963389
H    -0.880565  -1.784130  4.603267
H    -0.807110  -0.666339  7.019597
H    -1.727272  0.633741  6.308203
H    -3.222457  -0.879652  7.440755
H    -2.471473  -2.301352  6.708356
H    -4.005090  -2.293624  5.138248
H    -3.679506  1.276732  5.120704
H    -5.408097  1.447288  5.440810
H    -6.316684  -1.887673  5.160731
H    -6.734529  -0.326077  4.545318
N    -0.323781  2.330896  3.863539
C    -0.263334  3.744388  4.208118
H    0.521980  1.824284  3.550166
H    -0.414616  3.895885  5.285283
H    -1.037501  4.306792  3.671928
H    0.721448  4.127007  3.926026
