36
Energy: -21202.1072192 eV PBE+vdW (tier 2 basis)
C    -3.892441  2.371064  0.081216
C    -3.306804  0.985501  0.184141
O    -3.861543  -0.005756  -0.304831
H    -3.326992  3.133023  0.630262
H    -3.930935  2.653770  -0.978846
H    -4.925305  2.350162  0.448213
N    -2.116732  0.874497  0.850739
C    -1.338026  -0.364573  0.876226
C    -1.868040  -1.382165  1.927282
O    -1.172702  -1.830884  2.871261
H    -1.716536  1.706244  1.268651
H    -1.512194  -0.848325  -0.099017
C    0.161347  -0.069817  0.992087
C    0.612619  0.777559  2.211536
C    1.752051  0.138901  3.010899
N    1.266978  -1.120519  3.565099
C    1.965887  -1.999334  4.260448
N    1.403595  -3.192469  4.555638
N    3.224002  -1.747368  4.670351
H    0.465797  0.434460  0.065694
H    0.683588  -1.036811  0.987860
H    -0.223269  0.949005  2.907612
H    0.949962  1.769351  1.884966
H    2.063096  0.822282  3.817881
H    2.624646  -0.038008  2.358210
H    0.275541  -1.387218  3.289575
H    1.769636  -3.762428  5.306906
H    0.436047  -3.346113  4.290742
H    3.672783  -0.869439  4.449142
H    3.801095  -2.476305  5.067655
N    -3.123896  -1.774315  1.719585
C    -3.816052  -2.718654  2.582931
H    -3.604315  -1.352683  0.908034
H    -3.776079  -2.390950  3.629372
H    -3.365385  -3.718110  2.516044
H    -4.860428  -2.778573  2.264438
