36
Energy: -21201.3464195 eV PBE+vdW (tier 2 basis)
C    -2.684876  -1.428819  0.132095
C    -1.438363  -0.588799  0.239069
O    -0.792091  -0.252346  -0.764687
H    -3.488393  -1.113520  0.808093
H    -2.435912  -2.464893  0.402940
H    -3.037238  -1.415907  -0.902706
N    -0.977731  -0.246708  1.494665
C    -1.853103  0.305373  2.549646
C    -2.760032  -0.755011  3.225538
O    -3.916057  -0.483747  3.537094
H    -0.077225  0.224155  1.418491
H    -1.166380  0.654949  3.336975
C    -2.676009  1.501348  2.036587
C    -1.803396  2.580713  1.387537
C    -2.547101  3.540807  0.458486
N    -3.332300  2.912574  -0.628426
C    -2.877367  2.541598  -1.835974
N    -3.711912  2.609277  -2.890677
N    -1.613127  2.133863  -2.008604
H    -3.262515  1.909687  2.869090
H    -3.414909  1.123032  1.313572
H    -0.980588  2.128042  0.816344
H    -1.317599  3.198104  2.158538
H    -1.836043  4.240517  -0.001565
H    -3.273734  4.137546  1.024437
H    -4.341099  2.965372  -0.539325
H    -4.533021  3.201640  -2.877236
H    -3.529756  2.079847  -3.734384
H    -1.178966  1.475562  -1.340406
H    -1.279393  2.027988  -2.961010
N    -2.153306  -1.944567  3.459665
C    -2.812615  -3.051218  4.133698
H    -1.204839  -2.064373  3.120283
H    -2.258714  -3.343690  5.034938
H    -2.899387  -3.922889  3.471092
H    -3.814982  -2.719880  4.421853
