36
Energy: -21202.0231955 eV PBE+vdW (tier 2 basis)
C    -0.990126  3.905581  0.817664
C    -0.704904  2.602207  1.513150
O    0.443377  2.091083  1.479899
H    -0.322701  4.681463  1.213789
H    -2.028214  4.235499  0.928378
H    -0.762417  3.791899  -0.249995
N    -1.724476  2.021373  2.158040
C    -1.698569  0.707043  2.777125
C    -3.196902  0.310532  2.854632
O    -4.059538  1.182204  2.731670
H    -2.673428  2.413325  2.134496
H    -1.152067  0.020273  2.111964
C    -1.034691  0.690385  4.195233
C    0.107004  -0.338002  4.390293
C    1.491988  0.268928  4.624307
N    1.900030  1.048489  3.460746
C    3.037437  1.723289  3.327994
N    4.046733  1.578702  4.206495
N    3.157142  2.576869  2.295969
H    -1.813490  0.514964  4.948098
H    -0.670099  1.707483  4.393715
H    0.170116  -1.012115  3.523166
H    -0.108433  -0.980314  5.253460
H    2.208585  -0.549754  4.802867
H    1.479452  0.908094  5.524160
H    1.191593  1.261599  2.721189
H    4.878374  2.150157  4.149902
H    3.994329  0.900717  4.953582
H    4.060032  2.925131  2.004192
H    2.355785  2.673028  1.666002
N    -3.512463  -0.985409  3.083527
C    -2.631558  -2.132489  3.230234
H    -4.512649  -1.141978  3.173686
H    -2.240847  -2.235411  4.253294
H    -1.789262  -2.077841  2.529936
H    -3.196144  -3.039005  2.989139
