36
Energy: -21201.8451458 eV PBE+vdW (tier 2 basis)
C    0.265252  -0.087578  -0.184389
C    0.584806  0.118250  1.276765
O    1.743188  0.039096  1.710047
H    0.920530  0.554111  -0.785021
H    -0.779461  0.113140  -0.447236
H    0.502250  -1.126697  -0.448386
N    -0.475312  0.421515  2.082724
C    -0.521868  0.488784  3.547711
C    0.448990  1.445825  4.279230
O    0.270680  1.611906  5.505158
H    -1.377759  0.492102  1.626086
H    -1.487430  0.971236  3.764225
C    -0.624317  -0.901446  4.227596
C    0.527222  -1.916070  4.108140
C    1.913577  -1.489595  4.605518
N    1.810241  -0.773559  5.889893
C    2.823307  -0.155421  6.508192
N    2.560784  0.985084  7.159751
N    4.066455  -0.662477  6.468377
H    -1.520512  -1.387876  3.817536
H    -0.873425  -0.714876  5.283608
H    0.654787  -2.223854  3.061811
H    0.207052  -2.815057  4.654779
H    2.395077  -0.839824  3.859101
H    2.530911  -2.390775  4.725734
H    0.924768  -0.278907  6.022179
H    3.196362  1.374777  7.843315
H    1.723486  1.507455  6.874092
H    4.853648  -0.150441  6.843158
H    4.225796  -1.614458  6.165819
N    1.393057  2.079466  3.573192
C    2.283595  3.067727  4.159510
H    1.647183  1.653234  2.676294
H    3.170186  2.602592  4.617059
H    1.746166  3.632597  4.928054
H    2.617729  3.756012  3.376379
