36
Energy: -21201.7447644 eV PBE+vdW (tier 2 basis)
C    0.799666  -0.433290  1.775717
C    0.157105  0.398913  2.852971
O    0.827415  0.993005  3.709115
H    1.357487  -1.250131  2.251396
H    1.528125  0.181957  1.234006
H    0.083643  -0.858868  1.063212
N    -1.214086  0.463910  2.839661
C    -1.896978  1.214580  3.878851
C    -2.852487  0.424149  4.785381
O    -2.640807  0.471938  6.010125
H    -1.716561  0.015498  2.083175
H    -1.087902  1.391690  4.580199
C    -2.428313  2.598342  3.437071
C    -1.301854  3.583269  3.069345
C    -0.580037  4.262448  4.249662
N    -0.089804  3.296070  5.243851
C    -0.419516  3.307118  6.541540
N    -0.624384  2.148923  7.187071
N    -0.542734  4.482089  7.190275
H    -3.043921  3.008440  4.253223
H    -3.101348  2.486369  2.574768
H    -1.720186  4.397227  2.460302
H    -0.564893  3.082489  2.425329
H    -1.270648  4.944631  4.763886
H    0.255250  4.864288  3.863489
H    0.329314  2.429913  4.862737
H    -0.638972  2.147235  8.200865
H    -1.178463  1.403550  6.720293
H    -1.006603  4.535188  8.087921
H    -0.073672  5.312353  6.850768
N    -3.895227  -0.267655  4.282214
C    -4.286641  -0.439427  2.891466
H    -4.428635  -0.772291  4.986369
H    -5.371133  -0.584594  2.841883
H    -3.804802  -1.314658  2.429672
H    -4.057132  0.457064  2.304808
