36
Energy: -21202.0312764 eV PBE+vdW (tier 2 basis)
C    0.628304  -2.989225  1.438297
C    -0.023565  -2.431621  2.678116
O    0.433239  -2.623135  3.811652
H    1.640737  -2.572734  1.360327
H    0.081589  -2.769619  0.513988
H    0.732873  -4.075239  1.548665
N    -1.156577  -1.688175  2.489244
C    -1.818174  -0.981584  3.588062
C    -2.739334  -1.968034  4.363975
O    -3.990371  -1.904518  4.334572
H    -1.544870  -1.602563  1.556412
H    -1.012177  -0.680639  4.277138
C    -2.542052  0.257548  3.043829
C    -2.745733  1.427484  4.022463
C    -3.608589  1.140843  5.260801
N    -4.876893  0.498784  4.929451
C    -6.065205  1.062187  4.816375
N    -7.150652  0.279462  4.625259
N    -6.250932  2.396452  4.895511
H    -3.506645  -0.047690  2.610257
H    -1.936785  0.646737  2.213281
H    -3.194982  2.257360  3.455743
H    -1.769699  1.791867  4.377261
H    -3.780798  2.060294  5.837354
H    -3.087745  0.455823  5.945222
H    -4.735801  -0.506082  4.638812
H    -7.991743  0.662447  4.213318
H    -7.032054  -0.725283  4.576684
H    -7.164367  2.771627  5.116718
H    -5.461195  3.014235  5.022731
N    -2.073297  -2.901623  5.048839
C    -2.729599  -3.978188  5.774609
H    -1.051273  -2.919739  4.908814
H    -2.020898  -4.401267  6.492795
H    -3.067154  -4.773531  5.094975
H    -3.603199  -3.590785  6.310099
