36
Energy: -21201.6557939 eV PBE+vdW (tier 2 basis)
C    -1.154094  -0.078480  -0.225523
C    -1.075077  -0.110108  1.281328
O    -0.273198  -0.847822  1.875359
H    -1.416323  -1.082974  -0.581657
H    -0.159974  0.154228  -0.626371
H    -1.880327  0.639965  -0.621791
N    -1.920714  0.731883  1.942102
C    -2.171877  0.842980  3.386417
C    -0.981785  1.163784  4.323935
O    -1.252949  1.628893  5.444917
H    -2.507729  1.320023  1.361464
H    -2.758588  1.767210  3.485331
C    -3.107270  -0.267990  3.935958
C    -2.692547  -1.740763  3.803927
C    -1.576415  -2.232780  4.732969
N    -1.964398  -2.156955  6.153611
C    -1.609287  -1.190391  7.008259
N    -2.422221  -0.853189  8.020721
N    -0.421148  -0.559466  6.919709
H    -4.065577  -0.151097  3.410430
H    -3.315135  -0.007745  4.985100
H    -2.374938  -1.964991  2.777434
H    -3.587321  -2.359579  3.979472
H    -0.661194  -1.652137  4.577373
H    -1.327861  -3.277228  4.507551
H    -2.750442  -2.739989  6.429983
H    -2.061146  -0.305132  8.792217
H    -3.411121  -1.067257  8.007677
H    -0.476426  0.467843  6.854776
H    0.240292  -0.955404  6.260326
N    0.268611  0.948689  3.879277
C    1.454695  1.366990  4.608111
H    0.361870  0.353401  3.044589
H    1.941096  0.528349  5.130950
H    1.176226  2.129796  5.342206
H    2.184358  1.791280  3.908796
