36
Energy: -21201.1868209 eV PBE+vdW (tier 2 basis)
C    -0.672488  -1.589137  -0.397086
C    -0.070069  -0.956993  0.844495
O    1.134985  -0.963037  1.066536
H    0.146692  -1.966070  -1.014485
H    -1.340324  -2.427066  -0.151906
H    -1.252329  -0.860402  -0.980723
N    -0.934108  -0.335830  1.721490
C    -2.381914  -0.390861  1.763855
C    -2.851194  0.829353  2.578222
O    -2.308796  1.105458  3.650265
H    -0.489754  0.123771  2.515203
H    -2.782154  -0.334309  0.740967
C    -2.927284  -1.698569  2.412839
C    -2.273308  -2.011698  3.760704
C    -2.765041  -3.322049  4.365641
N    -2.023317  -3.586328  5.609659
C    -2.310355  -4.527162  6.507804
N    -1.656010  -4.566959  7.682010
N    -3.265167  -5.434840  6.256661
H    -2.744411  -2.527261  1.711312
H    -4.020097  -1.609641  2.519433
H    -2.451891  -1.185778  4.464277
H    -1.183374  -2.077675  3.611728
H    -2.607283  -4.154086  3.658404
H    -3.838968  -3.263203  4.602457
H    -1.192448  -3.022922  5.764746
H    -1.031660  -3.820317  7.958923
H    -1.689513  -5.386135  8.274921
H    -3.681459  -5.512435  5.338258
H    -3.614806  -6.045212  6.983718
N    -3.894898  1.516811  2.053289
C    -4.471534  2.691112  2.690856
H    -4.225326  1.257221  1.131200
H    -4.297495  3.590800  2.086213
H    -3.984278  2.817740  3.662305
H    -5.551302  2.562306  2.838643
