36
Energy: -21201.6429528 eV PBE+vdW (tier 2 basis)
C    -0.626905  -1.875041  0.465081
C    -0.523163  -1.147255  1.782888
O    0.330612  -0.272316  1.980297
H    -0.747334  -1.135901  -0.336476
H    -1.454148  -2.592560  0.418440
H    0.315513  -2.405060  0.278123
N    -1.425010  -1.504355  2.742540
C    -1.439535  -0.907976  4.081770
C    -1.680969  0.621434  3.987629
O    -0.857420  1.443851  4.391886
H    -2.077378  -2.250779  2.535362
H    -2.315297  -1.334873  4.594456
C    -0.169548  -1.322043  4.848483
C    0.104981  -0.684470  6.225809
C    1.493959  -0.027320  6.339407
N    1.584947  1.387872  5.965048
C    1.980915  1.917005  4.803127
N    2.389068  3.204619  4.795904
N    2.052193  1.203353  3.673829
H    0.688200  -1.156794  4.187191
H    -0.231944  -2.413373  4.959226
H    0.066036  -1.464986  6.997635
H    -0.663236  0.050649  6.496714
H    2.232530  -0.575687  5.739473
H    1.835180  -0.073328  7.382265
H    1.250196  2.052584  6.654304
H    2.331424  3.754130  3.948405
H    2.608236  3.689440  5.656451
H    1.285875  0.577282  3.381674
H    2.561416  1.611261  2.897797
N    -2.870280  1.018697  3.463642
C    -3.970432  0.219938  2.945936
H    -2.956242  2.029141  3.400873
H    -4.877146  0.833781  2.949302
H    -4.167583  -0.651491  3.583425
H    -3.789920  -0.125492  1.917807
