36
Energy: -21202.0823728 eV PBE+vdW (tier 2 basis)
C    0.319661  1.325191  0.587809
C    -0.017026  0.787585  1.958404
O    0.352542  1.309800  3.002619
H    0.066867  0.640134  -0.230282
H    -0.221576  2.268948  0.437791
H    1.390004  1.557252  0.549693
N    -0.780428  -0.372442  1.984896
C    -1.325258  -0.834767  3.252024
C    -0.304692  -1.643295  4.076985
O    -0.460323  -1.780718  5.312420
H    -1.222799  -0.684027  1.126084
H    -1.519816  0.061036  3.861811
C    -2.641233  -1.602976  2.995035
C    -3.416614  -2.154661  4.203901
C    -3.877333  -1.130231  5.249134
N    -2.748455  -0.712830  6.077196
C    -2.769328  0.230378  7.002310
N    -3.896221  0.909192  7.299626
N    -1.630483  0.517287  7.667953
H    -2.428451  -2.448663  2.321900
H    -3.299416  -0.917310  2.437925
H    -2.844535  -2.945594  4.710319
H    -4.318312  -2.643706  3.811043
H    -4.653532  -1.592975  5.880640
H    -4.328189  -0.255683  4.747494
H    -1.808044  -1.155932  5.841900
H    -3.930766  1.533664  8.094440
H    -4.783110  0.614717  6.914110
H    -1.562799  1.338203  8.254174
H    -0.760200  0.108132  7.346306
N    0.711760  -2.192799  3.408697
C    1.779016  -2.959080  4.033639
H    0.787272  -1.939813  2.427209
H    1.442386  -3.288061  5.020815
H    2.683612  -2.347124  4.151031
H    2.015952  -3.834323  3.418377
