36
Energy: -21201.7684074 eV PBE+vdW (tier 2 basis)
C    -2.688549  -0.630750  0.777147
C    -2.365904  -1.159563  2.152836
O    -3.244146  -1.514194  2.944672
H    -1.804127  -0.373725  0.182379
H    -3.316800  0.262609  0.883709
H    -3.281005  -1.378810  0.236271
N    -1.028989  -1.207713  2.476539
C    -0.599877  -1.765998  3.745386
C    0.254816  -0.924135  4.701836
O    0.131876  -1.173094  5.917226
H    -0.360239  -1.043046  1.733945
H    -1.546048  -1.843145  4.288948
C    0.015432  -3.182704  3.623935
C    -1.025917  -4.301204  3.523738
C    -1.840235  -4.553313  4.801225
N    -2.907667  -3.575986  5.054310
C    -3.071543  -2.811199  6.141439
N    -2.047949  -2.525547  6.960182
N    -4.307287  -2.348233  6.414785
H    0.656267  -3.366990  4.498514
H    0.677966  -3.211229  2.745538
H    -1.708266  -4.126608  2.676900
H    -0.505961  -5.242646  3.295156
H    -1.191293  -4.580125  5.685061
H    -2.322022  -5.539374  4.725176
H    -3.540200  -3.377200  4.279979
H    -2.274795  -2.106795  7.855859
H    -1.135911  -2.211428  6.550956
H    -4.430377  -1.496002  6.947052
H    -5.112637  -2.708446  5.917903
N    1.134619  0.005293  4.282684
C    1.545244  0.356853  2.928732
H    1.619135  0.464750  5.049868
H    0.798129  0.977236  2.416144
H    1.765386  -0.537006  2.329746
H    2.474195  0.931445  2.994722
