36
Energy: -21201.5353022 eV PBE+vdW (tier 2 basis)
C    -0.453752  1.587903  1.953416
C    -1.426905  1.234951  3.048227
O    -1.433730  1.867015  4.123954
H    -0.869723  1.537584  0.941930
H    0.387649  0.881274  1.992165
H    -0.063764  2.590762  2.148104
N    -2.273890  0.168740  2.920272
C    -2.957429  -0.342953  1.719503
C    -2.003581  -0.556484  0.514571
O    -2.165754  0.043860  -0.544564
H    -2.793337  0.021858  3.785638
H    -3.319890  -1.344841  1.997433
C    -4.194189  0.496655  1.333052
C    -4.003745  2.024653  1.284180
C    -4.359393  2.726829  2.602624
N    -4.133216  4.175205  2.532933
C    -3.352380  4.927055  3.323199
N    -3.501786  6.269350  3.267089
N    -2.444892  4.406072  4.145614
H    -5.008352  0.250469  2.032922
H    -4.517818  0.143810  0.346475
H    -4.651659  2.426983  0.491359
H    -2.981382  2.285851  0.982407
H    -3.783200  2.337661  3.448272
H    -5.421498  2.561503  2.841350
H    -4.638479  4.673328  1.806750
H    -2.805378  6.887095  3.661798
H    -4.337799  6.691202  2.885546
H    -2.021996  5.001964  4.846434
H    -2.087959  3.427489  4.095491
N    -1.019490  -1.462702  0.738297
C    -0.020977  -1.811980  -0.260336
H    -0.968338  -1.903804  1.650108
H    0.985340  -1.514326  0.064749
H    -0.270761  -1.282130  -1.184437
H    -0.027457  -2.892121  -0.452761
