36
Energy: -21201.6488679 eV PBE+vdW (tier 2 basis)
C    -0.074243  0.159482  -0.464309
C    -0.110573  -0.061118  1.031705
O    0.718993  -0.802318  1.582415
H    0.932310  0.492080  -0.746543
H    -0.807599  0.887472  -0.829324
H    -0.249989  -0.800053  -0.967492
N    -1.087545  0.608881  1.699302
C    -1.422931  0.625155  3.133305
C    -0.740813  1.745884  3.959828
O    -1.085821  1.895700  5.128697
H    -1.701221  1.168619  1.117250
H    -2.485881  0.903926  3.154446
C    -1.313317  -0.734675  3.867362
C    0.023700  -1.002033  4.561636
C    0.140216  -2.388448  5.192056
N    -0.195378  -3.550134  4.333879
C    0.534037  -4.044673  3.323084
N    0.444636  -5.362330  3.044926
N    1.340120  -3.263323  2.603023
H    -1.552898  -1.528100  3.144752
H    -2.111138  -0.748393  4.622705
H    0.150382  -0.285322  5.385621
H    0.856355  -0.824059  3.871832
H    -0.546927  -2.472547  6.043461
H    1.158373  -2.533126  5.580945
H    -0.940673  -4.149853  4.668499
H    0.125050  -6.025472  3.739178
H    0.743590  -5.728007  2.150064
H    1.105525  -2.272969  2.402610
H    1.991917  -3.699320  1.961395
N    0.196290  2.492787  3.329166
C    0.899606  3.585539  3.982322
H    0.409712  2.277682  2.362938
H    0.509246  3.672500  5.001106
H    0.731082  4.531208  3.451262
H    1.978609  3.387249  4.026034
