36
Energy: -21201.4960719 eV PBE+vdW (tier 2 basis)
C    0.101226  0.440338  0.672716
C    -0.192267  0.948889  2.056988
O    0.557004  1.793586  2.593623
H    0.937469  1.016139  0.269056
H    -0.761436  0.513094  -0.000941
H    0.383616  -0.620350  0.713798
N    -1.253821  0.468981  2.772004
C    -2.563650  -0.071361  2.366047
C    -2.533333  -0.945666  1.091257
O    -3.033646  -0.549267  0.040915
H    -1.257474  0.845884  3.718613
H    -2.868174  -0.735370  3.191054
C    -3.631678  1.037229  2.275363
C    -3.398243  2.182721  1.263970
C    -3.183575  3.565999  1.888524
N    -1.871375  3.662732  2.536570
C    -1.579225  4.133407  3.752219
N    -0.422905  3.763152  4.316870
N    -2.444243  4.927382  4.411517
H    -3.745482  1.455035  3.289359
H    -4.585026  0.542217  2.050106
H    -4.267261  2.259253  0.598980
H    -2.563223  1.956227  0.586805
H    -3.959080  3.765117  2.641884
H    -3.263446  4.343396  1.114143
H    -1.089024  3.209673  2.066745
H    -0.006603  4.310667  5.059172
H    0.131790  3.026192  3.840312
H    -2.272870  5.185568  5.374262
H    -3.166814  5.431379  3.914933
N    -1.955125  -2.170001  1.207458
C    -1.408243  -2.801837  2.401401
H    -2.012306  -2.723822  0.357129
H    -0.912382  -3.730360  2.102692
H    -2.190072  -3.059634  3.131561
H    -0.659250  -2.164671  2.888604
