36
Energy: -21201.228339 eV PBE+vdW (tier 2 basis)
C    -1.235454  -0.802907  2.754938
C    -2.293721  -0.053144  3.539230
O    -2.091655  0.354409  4.673740
H    -0.631655  -1.372187  3.468561
H    -0.565511  -0.075491  2.273884
H    -1.627362  -1.479359  1.987151
N    -3.532723  0.167114  2.945263
C    -3.947345  -0.010706  1.559319
C    -4.017200  -1.491680  1.083042
O    -3.835663  -1.772159  -0.103714
H    -4.132618  0.733374  3.539456
H    -4.991221  0.342290  1.528059
C    -3.159704  0.801093  0.516916
C    -3.074194  2.300611  0.779590
C    -2.244017  3.037049  -0.275926
N    -2.849622  3.069675  -1.621166
C    -2.562970  2.275847  -2.658785
N    -2.912964  2.659678  -3.900161
N    -1.911801  1.117064  -2.489277
H    -3.661834  0.595490  -0.438910
H    -2.141365  0.381423  0.447407
H    -2.600554  2.494406  1.753942
H    -4.080168  2.746679  0.833740
H    -1.244271  2.590740  -0.372715
H    -2.095564  4.084738  0.015637
H    -3.529626  3.803003  -1.794323
H    -2.975807  1.990174  -4.656696
H    -3.141801  3.623298  -4.108501
H    -1.559318  0.607781  -3.290242
H    -1.980710  0.611820  -1.610214
N    -4.328901  -2.383188  2.048145
C    -4.483060  -3.807215  1.801435
H    -4.402794  -2.031558  2.997585
H    -5.474133  -4.150180  2.124536
H    -3.716027  -4.384122  2.335210
H    -4.376466  -3.978301  0.725925
