36
Energy: -21201.8003777 eV PBE+vdW (tier 2 basis)
C    -1.479089  -1.753365  -1.050450
C    -0.988082  -1.285506  0.293682
O    -0.001113  -1.824471  0.838884
H    -0.632452  -2.180585  -1.596228
H    -1.938672  -0.954546  -1.643333
H    -2.221940  -2.554007  -0.918757
N    -1.640214  -0.276430  0.917520
C    -3.027768  0.135676  0.778500
C    -3.134695  1.446165  1.591521
O    -2.394611  1.625211  2.562483
H    -1.226427  0.086790  1.781716
H    -3.271081  0.324856  -0.277207
C    -4.014305  -0.924426  1.352198
C    -3.634037  -1.434190  2.758919
C    -2.779795  -2.715437  2.734814
N    -2.119798  -3.000040  4.011394
C    -0.909299  -2.560920  4.395877
N    -0.045872  -2.007268  3.549724
N    -0.570388  -2.692749  5.697651
H    -4.082068  -1.764601  0.643933
H    -5.017244  -0.476525  1.377102
H    -4.548482  -1.632961  3.334470
H    -3.094255  -0.646533  3.304481
H    -2.007805  -2.681019  1.960953
H    -3.400677  -3.589669  2.498049
H    -2.658547  -3.501039  4.708411
H    0.800739  -1.602638  3.931577
H    -0.110288  -1.985045  2.495586
H    0.390997  -2.599898  5.996467
H    -1.249753  -2.957351  6.397701
N    -4.099158  2.304277  1.194990
C    -4.385612  3.556673  1.881458
H    -4.619934  2.087776  0.352394
H    -5.427787  3.581708  2.224285
H    -4.204968  4.412319  1.218589
H    -3.718844  3.627636  2.745584
