36
Energy: -21201.4737789 eV PBE+vdW (tier 2 basis)
C    0.179093  0.031579  0.083584
C    0.053481  0.197020  1.578123
O    1.018423  0.477635  2.298805
H    0.590679  0.956945  -0.338122
H    -0.768621  -0.198895  -0.416765
H    0.900383  -0.768172  -0.125445
N    -1.197454  0.024125  2.105437
C    -1.456654  0.193058  3.531152
C    -1.148236  -1.112125  4.320629
O    -2.040267  -1.806514  4.813136
H    -1.947581  -0.311385  1.510876
H    -0.729096  0.954749  3.855404
C    -2.890461  0.690743  3.740766
C    -3.314874  0.886799  5.202570
C    -2.379914  1.786327  6.009174
N    -2.859709  1.860767  7.397875
C    -2.409776  2.697339  8.331839
N    -3.013531  2.763516  9.532183
N    -1.362269  3.495302  8.079171
H    -3.590535  -0.034745  3.301284
H    -3.006111  1.630653  3.179937
H    -3.356842  -0.103612  5.679337
H    -4.326389  1.319611  5.219011
H    -2.356586  2.804316  5.589008
H    -1.355290  1.380111  6.003520
H    -3.518266  1.141921  7.683604
H    -2.566341  3.212083  10.321090
H    -3.885972  2.281660  9.706136
H    -1.119365  4.256796  8.699297
H    -0.807191  3.376229  7.241932
N    0.178715  -1.373459  4.409191
C    0.699277  -2.602515  4.983908
H    0.799082  -0.766721  3.863885
H    1.556604  -2.385110  5.632749
H    1.020135  -3.306190  4.202399
H    -0.094060  -3.073687  5.572698
