36
Energy: -21200.8131958 eV PBE+vdW (tier 2 basis)
C    0.245811  -0.190649  0.008272
C    0.136076  -0.198864  1.514467
O    1.110886  -0.094375  2.257378
H    1.194725  -0.646055  -0.291325
H    0.256664  0.856631  -0.326742
H    -0.587216  -0.700441  -0.491144
N    -1.140532  -0.323337  2.020285
C    -1.420743  0.045016  3.411907
C    -0.823149  1.462517  3.687258
O    -1.216515  2.350417  2.936338
H    -1.894824  -0.157100  1.362659
H    -2.492325  0.290062  3.427184
C    -1.271958  -1.137820  4.397727
C    -0.048739  -2.044263  4.245725
C    0.004018  -3.171407  5.279907
N    -1.078664  -4.167166  5.164432
C    -1.067672  -5.227814  4.355931
N    -0.107606  -5.376335  3.432199
N    -2.017566  -6.173748  4.471748
H    -2.177009  -1.754279  4.263945
H    -1.330441  -0.741617  5.423612
H    0.881529  -1.472451  4.331151
H    -0.036669  -2.458519  3.224962
H    -0.065781  -2.767332  6.298589
H    0.959494  -3.712944  5.229647
H    -1.929636  -3.999515  5.689920
H    0.047566  -6.266643  2.977175
H    0.497626  -4.605055  3.180527
H    -2.613437  -6.222799  5.287984
H    -2.171585  -6.855249  3.739908
N    -0.045303  1.762011  4.771712
C    0.938197  0.946272  5.471464
H    0.144982  2.761662  4.778919
H    1.525859  1.610584  6.113086
H    1.623645  0.449598  4.771040
H    0.470638  0.200761  6.128965
