36
Energy: -21201.6510523 eV PBE+vdW (tier 2 basis)
C    0.629151  -0.289127  -0.495252
C    0.669132  -0.405682  1.009750
O    1.709437  -0.740081  1.606852
H    0.371209  0.734227  -0.802097
H    -0.115897  -0.961503  -0.942479
H    1.617123  -0.537871  -0.890483
N    -0.462908  -0.132869  1.710540
C    -1.815465  0.109582  1.237520
C    -2.510678  0.877121  2.383214
O    -2.118313  0.713847  3.543879
H    -0.379171  -0.028688  2.723796
H    -1.785423  0.724880  0.327619
C    -2.594369  -1.199967  0.906059
C    -3.230609  -1.985186  2.066857
C    -2.309019  -2.565254  3.151019
N    -1.322338  -3.512931  2.617372
C    0.002350  -3.311518  2.547015
N    0.716959  -3.950910  1.604640
N    0.663395  -2.512603  3.395475
H    -1.911126  -1.848832  0.337148
H    -3.403413  -0.946172  0.206319
H    -3.819528  -2.805951  1.626975
H    -3.962859  -1.353326  2.591713
H    -2.917141  -3.082682  3.905195
H    -1.782439  -1.756415  3.668142
H    -1.688426  -4.317404  2.116098
H    1.728612  -3.946228  1.655992
H    0.282727  -4.341602  0.779204
H    1.339203  -1.847971  2.953600
H    0.163011  -2.167121  4.206637
N    -3.567931  1.659598  2.076307
C    -4.084071  2.004381  0.756218
H    -3.992543  2.105469  2.885148
H    -3.302354  2.423307  0.108684
H    -4.854294  2.770907  0.881367
H    -4.548196  1.144846  0.253716
