36
Energy: -21202.012237 eV PBE+vdW (tier 2 basis)
C    -2.012695  0.440927  0.323887
C    -1.495797  0.266823  1.733333
O    -0.298575  0.265403  2.010206
H    -3.102249  0.540900  0.256559
H    -1.699043  -0.425059  -0.273392
H    -1.539886  1.325226  -0.119348
N    -2.458451  0.129757  2.710913
C    -2.152432  -0.139601  4.116764
C    -1.041585  0.798733  4.648025
O    -0.151048  0.404736  5.427775
H    -3.429003  0.066934  2.424650
H    -3.051133  0.172623  4.674689
C    -1.950948  -1.629608  4.456777
C    -0.800909  -2.385846  3.741908
C    0.166220  -3.081290  4.702003
N    0.821476  -2.064731  5.520958
C    1.929431  -2.202265  6.223507
N    2.513709  -1.100573  6.747773
N    2.506351  -3.404056  6.425582
H    -2.904174  -2.128758  4.235172
H    -1.842160  -1.695772  5.549974
H    -0.224125  -1.700229  3.108330
H    -1.215439  -3.152387  3.075489
H    0.919495  -3.639126  4.123071
H    -0.370600  -3.800338  5.345097
H    0.387393  -1.102577  5.494436
H    3.129528  -1.181744  7.546363
H    2.055083  -0.205765  6.608786
H    3.462747  -3.469220  6.747960
H    2.092691  -4.240261  6.036529
N    -1.175537  2.094226  4.331742
C    -0.203016  3.104263  4.721668
H    -1.870734  2.335098  3.634051
H    0.741873  2.974187  4.175557
H    -0.002700  3.036124  5.796586
H    -0.613760  4.093246  4.498617
