36
Energy: -21201.992471 eV PBE+vdW (tier 2 basis)
C    -0.149397  0.347180  -1.060490
C    0.079412  1.328921  0.061634
O    1.020334  2.133004  0.050348
H    -1.068783  -0.240602  -0.958935
H    0.706828  -0.339017  -1.100454
H    -0.169728  0.893136  -2.010995
N    -0.814340  1.284540  1.095113
C    -0.702916  2.002342  2.369660
C    -0.864222  3.533636  2.303708
O    -1.453440  4.110879  3.254637
H    -1.585007  0.631906  1.016514
H    -1.584402  1.675226  2.936108
C    0.573572  1.608400  3.188265
C    0.304244  1.028281  4.590783
C    0.184060  2.019645  5.754776
N    -0.921769  2.956668  5.588396
C    -1.577321  3.587020  6.551534
N    -2.583145  4.419377  6.201260
N    -1.295004  3.414171  7.856708
H    1.266213  2.460189  3.247175
H    1.101262  0.847020  2.602456
H    1.142765  0.367760  4.853654
H    -0.589380  0.385205  4.565736
H    1.129471  2.577822  5.866097
H    0.034381  1.437494  6.676984
H    -1.125127  3.331781  4.620645
H    -2.913284  5.118405  6.853870
H    -2.702398  4.623688  5.212416
H    -1.929753  3.742061  8.572521
H    -0.550892  2.795018  8.146212
N    -0.331481  4.185665  1.276565
C    -0.384243  5.635259  1.151738
H    0.263851  3.622863  0.645381
H    -0.044625  5.909995  0.149136
H    0.260367  6.124362  1.895440
H    -1.410105  5.992701  1.296405
