36
Energy: -21201.4793525 eV PBE+vdW (tier 2 basis)
C    -0.945126  -1.301132  -0.196034
C    -0.670509  -0.653623  1.147551
O    0.336119  0.029330  1.358644
H    -1.987834  -1.613962  -0.329696
H    -0.307046  -2.190615  -0.289404
H    -0.657106  -0.613520  -0.999158
N    -1.620241  -0.877170  2.099668
C    -1.498479  -0.527515  3.504364
C    -2.771597  -1.088695  4.175152
O    -3.805668  -1.246257  3.521542
H    -2.483794  -1.370576  1.875869
H    -0.608884  -1.027164  3.924182
C    -1.337868  0.984989  3.811294
C    -2.347030  1.936199  3.145204
C    -1.924666  2.316715  1.727190
N    -2.717159  3.443912  1.212306
C    -2.407438  4.124796  0.109458
N    -3.132333  5.197102  -0.259576
N    -1.360137  3.748573  -0.638919
H    -0.316509  1.277241  3.534721
H    -1.415061  1.102152  4.901203
H    -2.401341  2.855061  3.748954
H    -3.353719  1.489389  3.133984
H    -2.038302  1.458309  1.051691
H    -0.864453  2.609500  1.733006
H    -3.607313  3.638005  1.659916
H    -3.861133  5.567161  0.336008
H    -3.032054  5.607750  -1.178467
H    -0.828905  2.917933  -0.404706
H    -0.985483  4.355064  -1.356780
N    -2.662703  -1.346294  5.499414
C    -3.767295  -1.840388  6.308051
H    -1.750780  -1.256636  5.933418
H    -3.544985  -2.839955  6.703467
H    -4.652047  -1.900318  5.667381
H    -3.971501  -1.161500  7.146025
