36
Energy: -21202.0616997 eV PBE+vdW (tier 2 basis)
C    0.746657  2.438854  1.287569
C    -0.067845  1.282295  1.810657
O    -0.096114  0.197738  1.202560
H    0.725758  3.326293  1.929703
H    0.373883  2.709205  0.291464
H    1.786184  2.110878  1.162118
N    -0.728961  1.496939  2.979759
C    -1.612873  0.573678  3.708907
C    -1.027913  -0.847305  3.928524
O    -1.766259  -1.830448  3.962478
H    -0.664987  2.436579  3.356692
H    -1.638237  0.986845  4.731126
C    -3.087136  0.588785  3.252570
C    -3.489564  0.248242  1.808570
C    -3.449907  -1.225815  1.386873
N    -2.093830  -1.619545  1.013577
C    -1.593969  -2.842016  1.070594
N    -0.251909  -3.002252  1.023864
N    -2.379425  -3.931874  1.160650
H    -3.454751  1.605775  3.454401
H    -3.628047  -0.071985  3.944457
H    -2.922589  0.851431  1.081911
H    -4.532496  0.575278  1.694757
H    -4.120443  -1.371987  0.525793
H    -3.800586  -1.856407  2.218638
H    -1.386153  -0.859167  0.991265
H    0.139894  -3.868711  0.677719
H    0.318356  -2.167739  0.928001
H    -1.986829  -4.802233  1.496139
H    -3.376512  -3.814589  1.285540
N    0.301308  -0.892238  4.188464
C    1.001342  -2.119649  4.526926
H    0.831081  -0.029997  4.135849
H    1.568499  -1.995147  5.457667
H    1.693511  -2.419244  3.727376
H    0.253863  -2.906465  4.665844
