36
Energy: -21201.1343697 eV PBE+vdW (tier 2 basis)
C    0.014306  0.290884  2.328431
C    -0.431425  -0.059757  3.733315
O    0.306646  0.081587  4.700621
H    -0.033927  1.381455  2.199610
H    -0.566289  -0.182612  1.529919
H    1.067169  0.005196  2.232469
N    -1.708205  -0.575510  3.917743
C    -2.863219  -0.533007  3.021727
C    -2.774863  -1.482797  1.793411
O    -3.424587  -1.243940  0.778448
H    -1.896377  -0.743950  4.902655
H    -3.695672  -0.942522  3.617839
C    -3.276166  0.877622  2.563259
C    -3.512278  1.835379  3.731573
C    -3.928210  3.218960  3.239561
N    -4.082138  4.142659  4.375429
C    -4.238900  5.463521  4.283446
N    -4.197308  6.230133  5.387193
N    -4.428964  6.039707  3.088181
H    -4.180837  0.766640  1.950885
H    -2.508095  1.287927  1.891653
H    -2.595485  1.930048  4.334925
H    -4.298433  1.433611  4.393337
H    -4.878712  3.151257  2.685037
H    -3.159086  3.622865  2.562888
H    -4.103728  3.729577  5.302477
H    -3.882561  5.858027  6.273865
H    -4.509640  7.192393  5.372435
H    -4.607244  5.483062  2.262444
H    -4.380692  7.043919  2.974503
N    -1.995162  -2.575115  1.975209
C    -1.831416  -3.607214  0.965898
H    -1.480119  -2.640888  2.846843
H    -2.468943  -3.349327  0.114418
H    -2.134150  -4.586789  1.357968
H    -0.788024  -3.666560  0.628088
