36
Energy: -21201.6036724 eV PBE+vdW (tier 2 basis)
C    -0.672244  0.517535  -0.139744
C    -0.412366  0.487275  1.347613
O    0.732980  0.671211  1.805434
H    -0.144885  -0.328619  -0.600081
H    -1.734201  0.454914  -0.401147
H    -0.245068  1.434004  -0.563656
N    -1.497570  0.252714  2.125398
C    -1.503817  -0.059249  3.547742
C    -2.774695  -0.915966  3.765851
O    -3.703156  -0.853369  2.960249
H    -2.405009  0.052520  1.694436
H    -0.597844  -0.642642  3.781129
C    -1.529759  1.196661  4.458429
C    -0.302105  2.043138  4.143650
C    -0.019636  3.252170  5.012912
N    1.041223  4.115866  4.439817
C    2.135510  3.825836  3.711135
N    3.126324  4.748333  3.705548
N    2.308969  2.720290  2.984018
H    -1.532921  0.871902  5.510103
H    -2.461811  1.754846  4.285350
H    -0.406772  2.391267  3.107772
H    0.562143  1.369753  4.181185
H    0.275691  2.956387  6.031787
H    -0.906263  3.895305  5.098683
H    1.003124  5.081084  4.749860
H    3.825236  4.756485  2.974289
H    3.199392  5.449833  4.430066
H    3.232550  2.538826  2.609507
H    1.574361  2.060066  2.674398
N    -2.784643  -1.671689  4.887642
C    -3.914426  -2.506465  5.272723
H    -1.943450  -1.710961  5.451679
H    -3.646443  -3.570393  5.235339
H    -4.727031  -2.319722  4.564682
H    -4.252358  -2.255992  6.286097
