36
Energy: -21200.6891307 eV PBE+vdW (tier 2 basis)
C    0.574514  1.257765  -0.039342
C    1.094280  1.000469  1.357112
O    2.233847  1.289914  1.692175
H    -0.187294  2.050710  -0.042893
H    0.145451  0.349864  -0.477268
H    1.418979  1.596127  -0.645343
N    0.243864  0.472039  2.336342
C    -1.041532  -0.208704  2.265925
C    -0.971849  -1.584706  1.549429
O    -0.299807  -1.744122  0.539722
H    0.791256  0.263235  3.167775
H    -1.306897  -0.389534  3.319577
C    -2.177615  0.623978  1.626937
C    -2.272021  2.071087  2.125627
C    -2.483185  2.241740  3.632836
N    -3.737737  1.663369  4.145964
C    -4.919383  2.282382  4.188398
N    -5.099143  3.463971  3.582386
N    -5.946948  1.723662  4.852986
H    -3.128519  0.093321  1.796081
H    -2.046162  0.640818  0.537690
H    -3.074109  2.579259  1.565664
H    -1.344822  2.609005  1.885192
H    -2.458948  3.302647  3.918692
H    -1.669478  1.763167  4.191610
H    -3.720202  0.692501  4.439177
H    -4.417096  3.826463  2.928881
H    -5.899654  4.045296  3.795784
H    -6.894366  2.058280  4.732411
H    -5.797394  0.981393  5.524086
N    -1.726593  -2.596073  2.077913
C    -2.518674  -2.600001  3.294210
H    -1.656943  -3.463580  1.553258
H    -2.946750  -3.598964  3.425642
H    -3.364160  -1.892584  3.245181
H    -1.916540  -2.383214  4.189585
