36
Energy: -21201.7948463 eV PBE+vdW (tier 2 basis)
C    -0.365344  -0.945395  0.506181
C    -0.601107  -0.897518  1.995516
O    0.129602  -1.532041  2.789534
H    -0.482802  -1.983454  0.169002
H    -1.046839  -0.307212  -0.066416
H    0.670549  -0.652156  0.294376
N    -1.633897  -0.142983  2.408976
C    -2.089913  0.051639  3.776582
C    -3.156099  1.174484  3.669718
O    -3.234252  1.864526  2.652564
H    -2.123616  0.472115  1.752316
H    -2.585958  -0.870127  4.124976
C    -0.971810  0.388402  4.797884
C    0.084666  1.360402  4.278170
C    1.271183  1.564230  5.224442
N    1.862146  0.350445  5.834574
C    2.624485  -0.585224  5.240086
N    3.576207  -1.192734  5.979318
N    2.464006  -0.912242  3.957815
H    -0.495559  -0.555420  5.089111
H    -1.447905  0.795074  5.703395
H    -0.351056  2.354471  4.096498
H    0.457051  1.023960  3.303250
H    0.966022  2.175490  6.082881
H    2.067795  2.114031  4.702923
H    1.889729  0.342518  6.847530
H    3.943447  -0.766745  6.820629
H    3.964061  -2.084031  5.696930
H    3.170953  -1.505542  3.536752
H    1.515075  -0.987782  3.511849
N    -3.950248  1.327213  4.754105
C    -5.007268  2.326598  4.828702
H    -3.872364  0.655783  5.509716
H    -4.924071  2.971738  3.949340
H    -4.900301  2.933933  5.736048
H    -5.997440  1.852141  4.828748
