36
Energy: -21201.3502873 eV PBE+vdW (tier 2 basis)
C    -1.323009  1.029840  0.452073
C    -1.138031  0.280425  1.753081
O    -0.156096  -0.429083  1.968102
H    -1.009506  0.391753  -0.381493
H    -0.653084  1.901393  0.460265
H    -2.345317  1.391914  0.284541
N    -2.165163  0.418417  2.672695
C    -2.044474  0.138206  4.128883
C    -1.114198  1.137313  4.876208
O    -1.588051  1.838775  5.764363
H    -2.781878  1.206609  2.485606
H    -3.036892  0.378054  4.531762
C    -1.730869  -1.316949  4.520265
C    -2.705400  -2.355382  3.940107
C    -2.171801  -2.999180  2.649467
N    -3.215216  -3.630294  1.831078
C    -3.986538  -2.973391  0.962308
N    -4.831774  -3.653608  0.164825
N    -3.919674  -1.639178  0.864520
H    -1.786905  -1.337336  5.616976
H    -0.697005  -1.577999  4.260431
H    -3.682426  -1.883091  3.749672
H    -2.898430  -3.145700  4.678184
H    -1.438896  -3.780792  2.883392
H    -1.634944  -2.274116  2.024066
H    -3.447356  -4.599880  2.018019
H    -5.577025  -3.183847  -0.332146
H    -4.783404  -4.660979  0.086370
H    -4.328690  -1.165846  0.069519
H    -3.386212  -1.074750  1.531442
N    0.187817  1.138935  4.492452
C    1.183343  2.002715  5.108632
H    0.473430  0.503220  3.750493
H    1.945925  1.410976  5.632553
H    0.674080  2.646098  5.832425
H    1.677008  2.627564  4.353143
