36
Energy: -21201.6418778 eV PBE+vdW (tier 2 basis)
C    -1.968593  -1.002475  0.638877
C    -0.533005  -0.965505  1.122187
O    0.309683  -1.775297  0.766394
H    -2.234631  -0.095666  0.077028
H    -2.682362  -1.103969  1.467991
H    -2.074512  -1.864489  -0.024326
N    -0.174617  0.051742  1.995901
C    -1.026851  1.053813  2.615665
C    -0.267841  2.395946  2.680782
O    0.003251  2.964444  3.762118
H    0.794374  -0.015982  2.297271
H    -1.877178  1.224227  1.936900
C    -1.617856  0.618071  3.972459
C    -0.608110  0.048162  4.998523
C    -0.712397  0.686736  6.384253
N    -0.371052  2.103152  6.266740
C    -0.187736  2.953156  7.261450
N    -0.435327  2.612028  8.540630
N    0.274964  4.193484  6.991404
H    -2.376189  -0.145484  3.756708
H    -2.170118  1.471098  4.394323
H    0.426968  0.171664  4.647888
H    -0.753070  -1.032780  5.110976
H    -0.017142  0.186813  7.077723
H    -1.735363  0.570311  6.782317
H    -0.244390  2.454108  5.282026
H    -0.114245  3.190537  9.305457
H    -0.765530  1.684743  8.770293
H    0.162240  4.943081  7.661122
H    0.423347  4.458181  6.023995
N    0.107716  2.957996  1.517827
C    -0.136241  2.497983  0.154654
H    0.633083  3.820550  1.633875
H    -1.176455  2.174753  0.027033
H    0.035960  3.339149  -0.523589
H    0.529429  1.671880  -0.124867
