36
Energy: -21202.1052781 eV PBE+vdW (tier 2 basis)
C    1.404696  0.730422  1.688942
C    0.734001  -0.342046  2.511209
O    1.352380  -0.991677  3.364459
H    0.719291  1.295235  1.046748
H    1.924117  1.421217  2.363247
H    2.169277  0.256449  1.059362
N    -0.595344  -0.546673  2.261682
C    -1.431027  -1.642519  2.770545
C    -1.728494  -1.610827  4.288632
O    -2.900445  -1.859701  4.676338
H    -1.028783  0.056376  1.573054
H    -2.412169  -1.468367  2.310949
C    -0.898718  -3.023009  2.303048
C    -1.662569  -4.271966  2.772144
C    -3.102665  -4.446718  2.271486
N    -4.017394  -3.548126  2.975168
C    -5.324525  -3.475132  2.796016
N    -5.979054  -4.310233  1.967361
N    -6.018440  -2.512633  3.445922
H    0.141898  -3.116271  2.640263
H    -0.870668  -2.999706  1.202738
H    -1.655308  -4.345877  3.870731
H    -1.097971  -5.145050  2.417375
H    -3.405979  -5.492147  2.447261
H    -3.150916  -4.261562  1.183930
H    -3.596697  -2.873009  3.682765
H    -6.958678  -4.180669  1.754255
H    -5.485963  -5.040185  1.472410
H    -7.019794  -2.594215  3.564854
H    -5.524014  -1.942079  4.124093
N    -0.713801  -1.377623  5.113928
C    -0.841834  -1.349907  6.562721
H    0.211311  -1.240524  4.666123
H    -0.837476  -0.316418  6.934972
H    0.000721  -1.887429  7.012247
H    -1.781965  -1.827399  6.854023
