36
Energy: -21201.6725141 eV PBE+vdW (tier 2 basis)
C    -2.446250  -1.395488  -1.609269
C    -2.809837  -0.767547  -0.289695
O    -3.280298  0.382506  -0.229178
H    -1.675284  -0.780116  -2.090360
H    -3.325167  -1.387814  -2.265193
H    -2.074632  -2.422457  -1.517532
N    -2.593620  -1.511499  0.824122
C    -2.828307  -0.960348  2.154340
C    -1.817465  -1.385961  3.236532
O    -1.357947  -0.511126  3.968381
H    -2.213046  -2.442567  0.712073
H    -2.623726  0.111747  2.051823
C    -4.292415  -1.134656  2.624947
C    -4.624481  -0.319375  3.879249
C    -4.586451  1.200612  3.697410
N    -5.720744  1.727623  2.920929
C    -5.672789  2.445736  1.788018
N    -6.706008  3.272281  1.514982
N    -4.645499  2.369911  0.944104
H    -4.502390  -2.195931  2.818885
H    -4.949488  -0.842779  1.791121
H    -3.917619  -0.561129  4.685705
H    -5.618502  -0.612767  4.250113
H    -3.659864  1.534842  3.217390
H    -4.616168  1.686119  4.683143
H    -6.627376  1.688944  3.376389
H    -6.858009  3.620828  0.577507
H    -7.314456  3.614892  2.247118
H    -4.584633  3.061979  0.206069
H    -4.089219  1.504204  0.763608
N    -1.504518  -2.700781  3.418961
C    -1.953147  -3.886392  2.705993
H    -0.819859  -2.834962  4.158736
H    -1.902652  -4.746753  3.382279
H    -1.323940  -4.120661  1.830682
H    -2.997863  -3.794106  2.386657
