36
Energy: -21202.0637187 eV PBE+vdW (tier 2 basis)
C    1.381420  -3.422901  -0.764271
C    0.008668  -3.143264  -0.207425
O    -0.972909  -3.859336  -0.527086
H    1.342724  -3.308827  -1.855670
H    1.653677  -4.465304  -0.555902
H    2.157685  -2.760045  -0.367776
N    -0.087278  -2.105839  0.639653
C    -1.280727  -1.513671  1.229960
C    -0.722563  -0.374854  2.129950
O    0.483786  -0.315350  2.374880
H    0.757802  -1.615840  0.956133
H    -1.888333  -1.060358  0.428651
C    -2.198801  -2.491186  2.005711
C    -1.477984  -3.444350  2.982420
C    -2.007492  -4.880286  2.902947
N    -1.825232  -5.369786  1.537487
C    -1.759796  -6.625081  1.119098
N    -2.084157  -7.660638  1.914394
N    -1.330284  -6.852266  -0.139729
H    -2.768971  -3.056508  1.257657
H    -2.946234  -1.896645  2.548296
H    -1.580947  -3.092308  4.016305
H    -0.398717  -3.461112  2.772320
H    -3.075474  -4.913502  3.177253
H    -1.455583  -5.521169  3.607951
H    -1.622814  -4.662961  0.795744
H    -1.868231  -8.611709  1.647874
H    -2.465495  -7.507236  2.837554
H    -1.568062  -7.711732  -0.617584
H    -1.102026  -6.034281  -0.708228
N    -1.638376  0.497391  2.603497
C    -1.293343  1.627778  3.455770
H    -2.597835  0.414031  2.286538
H    -0.237782  1.537024  3.727197
H    -1.904549  1.622312  4.366619
H    -1.444770  2.577810  2.926811
