36
Energy: -21201.5115769 eV PBE+vdW (tier 2 basis)
C    -0.325709  0.293609  -0.133058
C    -0.139943  0.258696  1.355790
O    0.989697  0.105165  1.859679
H    -1.370073  0.205872  -0.448335
H    0.248972  -0.542016  -0.551540
H    0.092902  1.224560  -0.533269
N    -1.221824  0.293523  2.191903
C    -2.474607  1.042333  2.122748
C    -2.469997  2.109307  1.006191
O    -1.517597  2.871896  0.842225
H    -0.947655  0.048530  3.138241
H    -3.319223  0.351321  1.963890
C    -2.677357  1.751449  3.490423
C    -1.514332  2.686502  3.897390
C    -0.488117  2.060016  4.855924
N    0.705306  2.893500  5.009225
C    1.938271  2.631775  4.544839
N    2.941693  3.446564  4.943320
N    2.207902  1.609710  3.738837
H    -2.849650  0.978496  4.257779
H    -3.613471  2.322466  3.434146
H    -1.930786  3.580506  4.383059
H    -1.001482  3.036049  2.990960
H    -0.140675  1.075070  4.525860
H    -0.925585  1.911171  5.854492
H    0.572455  3.806592  5.431491
H    3.843495  3.418697  4.487201
H    2.853527  4.026219  5.767163
H    3.180608  1.380367  3.571258
H    1.536048  1.079065  3.130456
N    -3.617810  2.160426  0.286429
C    -3.864199  3.155932  -0.745970
H    -4.337417  1.472021  0.475808
H    -4.058124  2.672178  -1.711665
H    -2.970405  3.781228  -0.830100
H    -4.722927  3.787496  -0.483847
