36
Energy: -21201.9874889 eV PBE+vdW (tier 2 basis)
C    -0.552721  -1.653841  0.166079
C    -0.344048  -0.543260  1.167727
O    0.219067  0.508796  0.898915
H    -0.902639  -2.592266  0.612828
H    0.387572  -1.832489  -0.367522
H    -1.288525  -1.320704  -0.578067
N    -0.823957  -0.793732  2.450369
C    -0.860839  0.282347  3.426453
C    -0.189396  -0.131245  4.746118
O    -0.494530  0.377896  5.848485
H    -1.431638  -1.596043  2.586160
H    -0.205044  1.051026  2.974573
C    -2.267027  0.899911  3.603469
C    -2.269436  2.410879  3.956013
C    -3.049600  2.773647  5.219775
N    -2.406396  2.140183  6.367705
C    -2.646232  2.387509  7.641925
N    -1.846965  1.830914  8.579860
N    -3.655393  3.189258  8.036235
H    -2.836312  0.320805  4.346615
H    -2.787072  0.762203  2.648093
H    -2.698329  2.982536  3.123778
H    -1.238877  2.777991  4.070618
H    -4.097009  2.436140  5.132786
H    -3.055594  3.868400  5.347126
H    -1.656746  1.430928  6.138084
H    -2.163136  1.743899  9.536767
H    -1.119151  1.193256  8.274991
H    -3.697378  3.541510  8.983346
H    -4.248951  3.637665  7.351799
N    0.786952  -1.041553  4.646960
C    1.593184  -1.473292  5.779268
H    0.971027  -1.418117  3.722553
H    0.962672  -1.923457  6.556543
H    2.135101  -0.625611  6.218109
H    2.315369  -2.217087  5.431465
