36
Energy: -21201.912875 eV PBE+vdW (tier 2 basis)
C    -0.961894  3.698772  0.477963
C    -0.677663  2.585055  1.447013
O    0.485608  2.174043  1.652092
H    -2.026443  3.944305  0.397222
H    -0.585016  3.412419  -0.512213
H    -0.410680  4.594968  0.789435
N    -1.729585  2.031363  2.088634
C    -1.565409  0.920651  3.025938
C    -2.849722  0.047869  2.998421
O    -3.625612  0.034345  3.947506
H    -2.657073  2.415659  1.939924
H    -0.734232  0.319367  2.627406
C    -1.237972  1.372113  4.462294
C    -0.313717  0.385455  5.204025
C    1.159038  0.805291  5.258284
N    1.684543  1.119329  3.926866
C    2.951859  1.419966  3.647372
N    3.932844  1.208532  4.542857
N    3.237414  1.948136  2.446442
H    -2.191297  1.463442  4.997690
H    -0.788674  2.375183  4.431009
H    -0.395121  -0.616922  4.756633
H    -0.645363  0.271517  6.243809
H    1.741175  -0.018215  5.701257
H    1.270253  1.686766  5.912772
H    1.023246  1.392364  3.176732
H    4.890380  1.464120  4.345302
H    3.741040  0.757152  5.426163
H    4.189606  2.058654  2.127737
H    2.466741  2.175936  1.815669
N    -3.061907  -0.685849  1.870664
C    -2.266157  -0.747618  0.653831
H    -3.936599  -1.203374  1.889540
H    -1.192380  -0.737466  0.877727
H    -2.485845  0.081177  -0.035855
H    -2.484386  -1.689503  0.139838
