36
Energy: -21201.1751164 eV PBE+vdW (tier 2 basis)
C    -0.981119  -0.781978  0.976505
C    -0.836970  -0.532786  2.464271
O    -0.091672  -1.202069  3.165201
H    -1.945890  -0.480016  0.553452
H    -0.822568  -1.850142  0.799330
H    -0.184979  -0.240228  0.446524
N    -1.589040  0.483864  3.045226
C    -2.364916  1.542773  2.407903
C    -3.657586  1.035266  1.705876
O    -4.147808  1.655103  0.758410
H    -1.337801  0.619091  4.021119
H    -2.731298  2.161621  3.243956
C    -1.541925  2.460364  1.475449
C    -2.164505  3.849300  1.297372
C    -1.432981  4.661314  0.233107
N    -2.138822  5.931537  0.001173
C    -1.655422  6.983598  -0.658012
N    -2.339269  8.141909  -0.683262
N    -0.474068  6.906574  -1.287637
H    -1.444072  1.981575  0.490882
H    -0.531292  2.548209  1.900495
H    -2.152261  4.399909  2.251537
H    -3.211644  3.712398  0.987621
H    -1.391984  4.085875  -0.706770
H    -0.403398  4.887110  0.551807
H    -3.114027  5.959097  0.284488
H    -2.121378  8.865488  -1.356084
H    -3.153791  8.281304  -0.099520
H    -0.004457  7.735880  -1.627263
H    -0.006233  6.018267  -1.410691
N    -4.197628  -0.075886  2.253003
C    -5.422754  -0.688448  1.769454
H    -3.665572  -0.532377  2.987471
H    -6.149563  -0.794436  2.584844
H    -5.225029  -1.679761  1.339587
H    -5.842551  -0.040895  0.993546
