36
Energy: -21202.0872105 eV PBE+vdW (tier 2 basis)
C    -2.952034  1.718114  -1.095958
C    -2.308828  0.720502  -0.162452
O    -1.914564  -0.384234  -0.515589
H    -3.718541  1.207069  -1.689525
H    -3.401918  2.576832  -0.583480
H    -2.190765  2.084647  -1.797478
N    -2.190206  1.116598  1.162995
C    -1.397506  0.306065  2.074414
C    -2.177289  -0.908712  2.616319
O    -1.563187  -1.903269  3.066579
H    -2.354539  2.090199  1.398348
H    -0.582341  -0.135829  1.481444
C    -0.818939  1.202980  3.191584
C    0.078103  0.553058  4.259128
C    1.358023  -0.130213  3.760201
N    1.033440  -1.403018  3.117365
C    1.836227  -2.113398  2.343117
N    1.311575  -3.100779  1.587946
N    3.156683  -1.858828  2.263989
H    -1.654633  1.695131  3.714049
H    -0.249309  2.001496  2.689893
H    -0.493118  -0.163709  4.867095
H    0.386208  1.349449  4.950198
H    2.022336  -0.302870  4.622534
H    1.892070  0.525025  3.050632
H    0.008580  -1.687079  3.141855
H    1.888967  -3.850863  1.232105
H    0.308231  -3.248331  1.600787
H    3.602659  -1.221871  2.909178
H    3.739551  -2.314767  1.575289
N    -3.509675  -0.825903  2.599559
C    -4.397735  -1.889916  3.042416
H    -3.899661  -0.014778  2.127449
H    -3.832209  -2.575662  3.679608
H    -4.798116  -2.448242  2.185327
H    -5.230538  -1.463895  3.613080
