36
Energy: -21201.9408272 eV PBE+vdW (tier 2 basis)
C    0.517253  0.363175  0.952216
C    0.622051  -0.146212  2.368136
O    1.673661  -0.612667  2.823837
H    0.674034  -0.481126  0.267930
H    1.327518  1.079190  0.771657
H    -0.443838  0.834391  0.716996
N    -0.513752  -0.061701  3.125752
C    -0.717650  -0.640434  4.455577
C    0.110112  -0.074084  5.629121
O    -0.415064  -0.081365  6.772980
H    -1.316960  0.391189  2.706664
H    -1.742494  -0.343814  4.712974
C    -0.613617  -2.200251  4.484433
C    -1.948943  -2.954637  4.582839
C    -2.874875  -2.513666  5.739807
N    -2.161325  -2.134184  6.958974
C    -1.649179  -2.948971  7.876367
N    -2.097860  -4.205470  8.050981
N    -0.636205  -2.488972  8.634506
H    0.031432  -2.497873  5.322771
H    -0.078850  -2.527322  3.585188
H    -1.717663  -4.024704  4.685299
H    -2.522147  -2.855334  3.648750
H    -3.623460  -3.290081  5.948994
H    -3.457202  -1.627367  5.456430
H    -1.665072  -1.209365  6.910463
H    -1.667854  -4.824878  8.724339
H    -2.960973  -4.509687  7.622128
H    -0.417357  -2.901342  9.531742
H    -0.256124  -1.568450  8.415660
N    1.351258  0.338332  5.391611
C    2.231781  0.840497  6.435620
H    1.728417  0.106790  4.457579
H    2.739803  0.019317  6.962221
H    1.651630  1.417570  7.162838
H    2.988808  1.486049  5.979754
