36
Energy: -21201.7440223 eV PBE+vdW (tier 2 basis)
C    0.853995  0.618136  0.658670
C    -0.196080  0.042191  1.571944
O    -0.220509  0.351636  2.783026
H    0.790928  1.712895  0.689395
H    0.765522  0.278780  -0.378903
H    1.843383  0.341253  1.044537
N    -1.075037  -0.813808  1.006809
C    -2.093936  -1.583254  1.707430
C    -2.118112  -2.958655  1.002077
O    -2.028927  -3.009045  -0.221888
H    -0.970609  -1.074261  0.025882
H    -1.777710  -1.679779  2.755115
C    -3.486593  -0.909273  1.580752
C    -4.626702  -1.475833  2.451672
C    -4.864877  -0.833441  3.827108
N    -3.861883  -1.134081  4.862673
C    -2.646215  -0.568805  4.951803
N    -2.343501  0.577797  4.341064
N    -1.681123  -1.177465  5.665527
H    -3.774002  -0.998583  0.523472
H    -3.363998  0.168481  1.759925
H    -4.522612  -2.565513  2.570301
H    -5.569635  -1.337450  1.902734
H    -5.819826  -1.190506  4.231355
H    -4.981231  0.256886  3.733497
H    -4.096549  -1.853756  5.537269
H    -1.429068  0.601773  3.803199
H    -3.107910  1.083394  3.909519
H    -1.791495  -2.112678  6.033203
H    -0.841514  -0.664308  5.906037
N    -2.281434  -4.040866  1.803661
C    -2.337178  -5.402534  1.286280
H    -2.226647  -3.906009  2.805872
H    -3.173391  -5.948530  1.739015
H    -1.402175  -5.943171  1.485355
H    -2.485438  -5.344580  0.203891
