36
Energy: -21201.8755443 eV PBE+vdW (tier 2 basis)
C    2.693213  2.452937  0.972321
C    1.475566  2.210875  1.827281
O    1.534549  2.352678  3.063569
H    2.580210  2.117115  -0.064550
H    3.554092  1.947681  1.424576
H    2.904602  3.530833  0.969743
N    0.358253  1.816928  1.163735
C    -0.997120  1.653998  1.692994
C    -1.652739  3.044755  1.901659
O    -1.011698  4.018660  2.285451
H    0.441762  1.783734  0.154439
H    -1.551352  1.158819  0.883610
C    -1.036972  0.697730  2.930759
C    -1.980468  1.001492  4.108924
C    -1.746296  2.300298  4.906868
N    -0.326767  2.613317  5.008877
C    0.213712  3.524894  5.809264
N    1.511222  3.837308  5.631513
N    -0.490453  4.120565  6.790914
H    -0.015588  0.592110  3.312041
H    -1.303091  -0.300076  2.558775
H    -1.882767  0.147953  4.794138
H    -3.029907  1.007841  3.781771
H    -2.172692  2.154731  5.911291
H    -2.274045  3.147096  4.442189
H    0.268412  2.400979  4.176311
H    1.923145  4.627093  6.108945
H    1.966739  3.499360  4.783576
H    -0.027724  4.683199  7.492085
H    -1.438561  3.831210  6.986543
N    -2.988406  3.066639  1.641791
C    -3.804968  4.261563  1.793589
H    -3.424463  2.232884  1.264872
H    -4.237756  4.564989  0.831734
H    -3.157005  5.064387  2.158789
H    -4.618639  4.093426  2.511614
