36
Energy: -21201.2247155 eV PBE+vdW (tier 2 basis)
C    0.037479  -2.207362  1.304491
C    0.133380  -1.351774  2.533958
O    1.055328  -1.485738  3.369270
H    0.089741  -1.596528  0.391951
H    -0.922235  -2.741996  1.275563
H    0.856384  -2.930291  1.304188
N    -0.807603  -0.398799  2.741473
C    -1.926282  0.065273  1.938442
C    -1.637051  0.757368  0.578264
O    -2.563374  0.792315  -0.223312
H    -0.673499  0.110040  3.608482
H    -2.550095  -0.790341  1.641285
C    -2.813679  0.983145  2.809789
C    -2.183252  2.282484  3.373023
C    -1.619599  2.258263  4.806811
N    -0.345190  1.529200  4.936262
C    0.037544  0.723570  5.957410
N    1.000878  -0.166728  5.730887
N    -0.580751  0.820123  7.146161
H    -3.228196  0.379826  3.632886
H    -3.665301  1.260346  2.176945
H    -2.972727  3.046533  3.400810
H    -1.430757  2.692563  2.681019
H    -2.344557  1.772761  5.474712
H    -1.485008  3.293835  5.154022
H    0.382621  1.737747  4.257783
H    1.417948  -0.651091  6.518657
H    1.097883  -0.625323  4.769173
H    -0.459474  0.104120  7.851597
H    -1.070557  1.663872  7.416300
N    -0.426166  1.319951  0.274664
C    0.801390  1.503877  1.034027
H    -0.442030  1.719031  -0.660500
H    1.444635  2.185798  0.468268
H    1.361159  0.572658  1.192249
H    0.620436  1.976134  2.010594
