36
Energy: -21201.5865648 eV PBE+vdW (tier 2 basis)
C    -0.417217  -0.546352  -0.081371
C    -0.314816  -0.095412  1.353526
O    0.783295  -0.109048  1.949358
H    -0.124030  -1.602715  -0.136710
H    0.298200  0.019195  -0.690564
H    -1.421691  -0.433038  -0.503065
N    -1.466102  0.301665  1.936584
C    -1.604697  0.668786  3.334250
C    -3.086173  0.396226  3.677150
O    -3.931457  0.560029  2.796621
H    -2.352461  0.279298  1.429537
H    -0.915283  0.040175  3.915897
C    -1.256550  2.165156  3.582922
C    -0.716555  2.449619  4.992680
C    0.273748  3.621127  5.108894
N    1.346969  3.676929  4.093443
C    1.872764  2.651636  3.404130
N    2.399829  2.882488  2.187499
N    1.908534  1.399680  3.871986
H    -2.136502  2.786134  3.364881
H    -0.511254  2.433818  2.824265
H    -0.262809  1.536580  5.403453
H    -1.537957  2.688229  5.682809
H    0.717044  3.625719  6.115737
H    -0.266396  4.570532  4.998926
H    1.605067  4.606027  3.778178
H    2.930107  2.148467  1.732894
H    2.131049  3.687152  1.636310
H    1.602322  0.650961  3.202603
H    1.698056  1.256003  4.850890
N    -3.422812  0.032832  4.939680
C    -2.579083  -0.337736  6.065620
H    -4.428286  -0.062945  5.061388
H    -2.401974  0.503164  6.751747
H    -1.614135  -0.726567  5.722753
H    -3.069878  -1.139160  6.629227
