36
Energy: -21200.4536552 eV PBE+vdW (tier 2 basis)
C    0.015791  -0.053151  -0.042648
C    0.086851  -0.130845  1.468857
O    1.151604  -0.228297  2.062798
H    1.038460  0.004325  -0.423573
H    -0.541217  0.827324  -0.391180
H    -0.463819  -0.950852  -0.456247
N    -1.093668  -0.088316  2.190168
C    -2.487282  -0.039826  1.757602
C    -2.868403  -1.285227  0.895392
O    -2.788291  -2.372881  1.452090
H    -0.936198  -0.312597  3.168242
H    -3.053452  -0.266153  2.673495
C    -2.925133  1.386522  1.353444
C    -4.439311  1.601336  1.426800
C    -4.894368  3.023222  1.088585
N    -4.483085  4.038028  2.075584
C    -3.477346  4.910519  1.965469
N    -2.529157  4.759084  1.030057
N    -3.421201  5.970307  2.790761
H    -2.545168  1.651191  0.353823
H    -2.421178  2.047405  2.076424
H    -4.800053  1.338449  2.434141
H    -4.966784  0.921903  0.741347
H    -5.990377  3.068808  1.039927
H    -4.526147  3.343157  0.103704
H    -5.033729  4.090422  2.927059
H    -1.882424  5.508820  0.819812
H    -2.352572  3.851710  0.615458
H    -4.227443  6.262481  3.328603
H    -2.560393  6.486163  2.924066
N    -3.330448  -1.209471  -0.395655
C    -3.340647  -0.151815  -1.395482
H    -3.555896  -2.141704  -0.734312
H    -2.366741  0.342254  -1.499072
H    -3.572480  -0.610522  -2.362092
H    -4.114290  0.608353  -1.209724
