36
Energy: -21201.9788608 eV PBE+vdW (tier 2 basis)
C    -3.663656  2.746821  -0.199067
C    -2.781397  1.522021  -0.252205
O    -2.454285  0.973219  -1.294849
H    -4.021298  2.991286  0.808556
H    -3.097700  3.602988  -0.590108
H    -4.521588  2.596284  -0.863822
N    -2.362492  1.030356  0.981001
C    -1.353006  -0.013320  1.040832
C    -1.822992  -1.245106  1.835291
O    -1.016270  -2.015688  2.404003
H    -2.543074  1.592248  1.806660
H    -1.282319  -0.356504  -0.009143
C    0.042518  0.487649  1.444003
C    0.201029  0.967890  2.907915
C    1.382098  0.309804  3.627447
N    1.165808  -1.134869  3.651708
C    1.918068  -2.034153  4.260397
N    1.508199  -3.321958  4.283942
N    3.070498  -1.701527  4.872887
H    0.301084  1.297321  0.750210
H    0.756613  -0.320101  1.229977
H    -0.709089  0.761299  3.493568
H    0.347153  2.054389  2.947028
H    1.462380  0.699516  4.655077
H    2.320625  0.546874  3.096701
H    0.326885  -1.486924  3.113302
H    2.165394  -4.066662  4.475870
H    0.670121  -3.570946  3.769331
H    3.388950  -0.742480  4.885296
H    3.547920  -2.355931  5.478093
N    -3.142839  -1.471822  1.825883
C    -3.773423  -2.645215  2.409164
H    -3.712184  -0.804094  1.313955
H    -4.753099  -2.370798  2.814498
H    -3.139941  -3.026038  3.215867
H    -3.905691  -3.438828  1.660732
