36
Energy: -21201.6773441 eV PBE+vdW (tier 2 basis)
C    0.395392  0.128538  0.917791
C    0.038631  0.404812  2.363655
O    0.878657  0.581772  3.235030
H    0.076991  -0.875825  0.605565
H    -0.068516  0.855242  0.236028
H    1.481686  0.195150  0.819439
N    -1.305451  0.472569  2.689420
C    -2.465961  0.192515  1.866432
C    -3.632258  0.987605  2.459310
O    -3.877769  0.979057  3.682546
H    -1.479169  0.710168  3.662585
H    -2.278468  0.563030  0.847488
C    -2.796299  -1.328833  1.735571
C    -2.802147  -2.121933  3.050854
C    -4.169305  -2.191748  3.751079
N    -4.070612  -2.614055  5.152010
C    -3.796798  -1.791743  6.176951
N    -3.685531  -2.313265  7.416154
N    -3.638630  -0.483655  5.989475
H    -2.027345  -1.754473  1.077849
H    -3.747916  -1.444974  1.192552
H    -2.457626  -3.147115  2.856281
H    -2.057593  -1.682938  3.731629
H    -4.828446  -2.911308  3.248906
H    -4.688768  -1.226877  3.727784
H    -3.997624  -3.609076  5.332945
H    -3.942835  -3.271217  7.610852
H    -3.408898  -1.740082  8.201484
H    -3.577279  0.128871  6.793100
H    -3.672074  -0.021813  5.056967
N    -4.389320  1.679530  1.594159
C    -5.538183  2.477484  2.008859
H    -4.103521  1.711506  0.622500
H    -5.218627  3.365870  2.569202
H    -6.198642  1.882543  2.649738
H    -6.087746  2.792108  1.117224
