36
Energy: -21200.4405141 eV PBE+vdW (tier 2 basis)
C    -0.680983  1.149599  0.013942
C    -0.192491  0.518934  1.301628
O    0.995863  0.465433  1.586122
H    0.180437  1.599502  -0.485906
H    -1.435305  1.928173  0.189034
H    -1.112538  0.387699  -0.649761
N    -1.125034  -0.006833  2.180732
C    -2.571129  -0.185542  2.064244
C    -2.935751  -1.173575  0.910473
O    -2.550908  -2.329185  1.044240
H    -0.670889  -0.549131  2.909854
H    -2.820917  -0.813463  2.932492
C    -3.353778  1.128705  2.269111
C    -4.801808  0.884475  2.707690
C    -5.602765  2.159651  2.965862
N    -5.046806  2.903154  4.108805
C    -5.265418  4.189132  4.387006
N    -6.185467  4.885505  3.704318
N    -4.551575  4.802707  5.346449
H    -3.330441  1.773313  1.381303
H    -2.805571  1.678141  3.050054
H    -4.823422  0.254384  3.613346
H    -5.350118  0.309115  1.948156
H    -6.655826  1.907349  3.168492
H    -5.564404  2.814047  2.081311
H    -4.498653  2.370223  4.777280
H    -6.237997  5.893807  3.773719
H    -6.870877  4.419924  3.124011
H    -3.717833  4.379035  5.733437
H    -4.843720  5.690971  5.733619
N    -3.678778  -0.824968  -0.190068
C    -4.148908  0.444672  -0.723572
H    -3.814104  -1.637184  -0.787019
H    -3.357156  1.201029  -0.774307
H    -4.492077  0.267930  -1.748132
H    -5.004525  0.855103  -0.165103
