36
Energy: -21202.051395 eV PBE+vdW (tier 2 basis)
C    -0.398894  1.305853  0.076014
C    -0.592816  0.185647  1.065429
O    -0.047641  -0.930644  0.909836
H    0.674314  1.497853  -0.051228
H    -0.898903  2.235820  0.366925
H    -0.786354  0.981246  -0.898471
N    -1.368829  0.446600  2.131340
C    -1.836227  -0.551991  3.081740
C    -3.230974  -0.038770  3.524174
O    -3.501716  1.158560  3.423045
H    -1.897226  1.322291  2.205000
H    -1.924473  -1.514360  2.553621
C    -0.929739  -0.735245  4.321723
C    0.408108  -1.456099  4.077595
C    1.560467  -0.532747  3.661020
N    2.810705  -1.261272  3.423252
C    3.243494  -1.739038  2.245545
N    4.455170  -2.340853  2.213690
N    2.524811  -1.635951  1.133229
H    -1.500257  -1.322120  5.055177
H    -0.768703  0.249124  4.788543
H    0.275006  -2.238756  3.317088
H    0.704312  -1.965484  5.007244
H    1.766691  0.202392  4.450975
H    1.324405  0.037334  2.757343
H    3.322746  -1.566355  4.243925
H    5.135528  -2.181218  2.944750
H    4.785179  -2.790346  1.370428
H    2.956195  -1.878470  0.249948
H    1.516500  -1.343435  1.091798
N    -4.065448  -0.971777  4.034031
C    -5.393924  -0.658145  4.542730
H    -3.774029  -1.942512  4.016434
H    -5.531242  0.425157  4.479127
H    -5.493107  -0.974523  5.588775
H    -6.168129  -1.152762  3.942207
