36
Energy: -21201.6741028 eV PBE+vdW (tier 2 basis)
C    0.142377  0.316535  -1.134059
C    0.282029  0.137073  0.360379
O    1.323110  0.382006  0.965678
H    0.285728  1.377214  -1.376289
H    -0.829181  -0.007820  -1.528165
H    0.941420  -0.241386  -1.636515
N    -0.840485  -0.306841  1.021269
C    -0.812842  -0.467527  2.466880
C    -0.151577  -1.811052  2.828349
O    -0.733937  -2.912097  2.689864
H    -1.676740  -0.560873  0.508045
H    -0.143945  0.327801  2.826162
C    -2.169176  -0.229920  3.156057
C    -3.297137  -1.274367  3.084380
C    -4.212760  -1.295367  1.861092
N    -3.637577  -1.637432  0.527305
C    -3.245658  -2.884087  0.150136
N    -2.562478  -3.656895  0.978420
N    -3.537750  -3.288364  -1.103423
H    -2.537951  0.748490  2.808572
H    -1.937725  -0.093457  4.222327
H    -3.986491  -1.049912  3.913423
H    -2.913252  -2.276614  3.305437
H    -4.647858  -0.297789  1.716358
H    -5.044966  -1.987309  2.060515
H    -4.041586  -1.095330  -0.230924
H    -2.387624  -4.617754  0.703951
H    -1.911809  -3.259344  1.732704
H    -3.081743  -4.097204  -1.507498
H    -4.310632  -2.887898  -1.620124
N    1.101223  -1.717152  3.288898
C    1.928212  -2.867084  3.623228
H    1.551804  -0.811094  3.182495
H    2.548539  -3.169776  2.767902
H    1.279741  -3.701675  3.904011
H    2.581338  -2.612574  4.464673
