36
Energy: -21201.7148535 eV PBE+vdW (tier 2 basis)
C    -1.276653  1.570296  1.256407
C    -1.109800  1.211813  2.713318
O    -0.540372  1.980450  3.503615
H    -1.849049  2.504434  1.190210
H    -1.781798  0.800119  0.662679
H    -0.289006  1.768700  0.822003
N    -1.612727  0.010049  3.096596
C    -1.715819  -0.506128  4.470660
C    -2.030361  0.616497  5.496460
O    -1.298089  0.857990  6.455013
H    -2.066823  -0.541203  2.376739
H    -2.620008  -1.135870  4.448581
C    -0.583138  -1.473879  4.889223
C    0.779232  -0.935472  5.349837
C    1.647820  -0.269534  4.276152
N    2.736945  0.522152  4.869738
C    2.554150  1.670072  5.539460
N    3.547568  2.133980  6.328373
N    1.423163  2.359415  5.429844
H    -0.455769  -2.189176  4.060595
H    -0.984884  -2.061981  5.726900
H    1.341469  -1.778285  5.778748
H    0.598059  -0.223226  6.161980
H    1.064232  0.391587  3.627808
H    2.124115  -1.008948  3.620695
H    3.668973  0.126050  4.875675
H    3.556110  3.096105  6.638888
H    4.328242  1.549105  6.592234
H    0.668836  2.106456  4.767630
H    1.195827  3.056744  6.127038
N    -3.207654  1.279060  5.326715
C    -4.223998  1.133682  4.298172
H    -3.351811  2.000772  6.027186
H    -4.377850  0.080078  4.032691
H    -3.984175  1.696814  3.383609
H    -5.174599  1.509402  4.691409
