36
Energy: -21202.1324612 eV PBE+vdW (tier 2 basis)
C    1.681297  0.578799  0.485530
C    0.441129  0.135107  1.209389
O    -0.611437  -0.149698  0.584898
H    1.451667  1.487617  -0.085485
H    1.974762  -0.194835  -0.235100
H    2.521630  0.781852  1.157457
N    0.498798  0.057912  2.546582
C    -0.642497  -0.251495  3.386183
C    -0.277942  0.316791  4.779453
O    0.901094  0.520643  5.065331
H    1.330583  0.331406  3.077682
H    -1.520638  0.275524  2.978886
C    -0.949503  -1.779295  3.473317
C    -2.455507  -2.124936  3.475951
C    -2.977235  -2.716966  2.162696
N    -2.676773  -1.842049  1.030755
C    -3.054966  -2.054504  -0.229369
N    -2.465950  -1.342640  -1.202536
N    -3.998223  -2.964879  -0.533748
H    -0.470286  -2.181658  4.374744
H    -0.447928  -2.275654  2.630621
H    -3.054275  -1.233851  3.721464
H    -2.675059  -2.858712  4.261744
H    -4.066587  -2.855463  2.252841
H    -2.525686  -3.710571  1.997981
H    -1.893692  -1.156073  1.112596
H    -2.828014  -1.331709  -2.145681
H    -1.693780  -0.720456  -0.949286
H    -4.255009  -3.155190  -1.492507
H    -4.502485  -3.454934  0.191484
N    -1.314822  0.507650  5.626612
C    -1.144696  0.977329  6.995752
H    -2.257162  0.385411  5.274829
H    -0.073218  0.998797  7.214247
H    -1.644614  0.299676  7.698697
H    -1.552976  1.989055  7.117994
