36
Energy: -21201.463905 eV PBE+vdW (tier 2 basis)
C    0.312296  0.436657  0.008776
C    0.298423  0.586838  1.516138
O    1.284242  0.945437  2.144121
H    1.120478  1.063073  -0.378510
H    -0.629080  0.705586  -0.483343
H    0.539599  -0.606552  -0.254731
N    -0.857740  0.257753  2.210295
C    -2.178080  -0.127455  1.730776
C    -2.130347  -1.289991  0.714350
O    -2.674314  -1.203998  -0.405439
H    -0.751822  0.403363  3.210665
H    -2.697477  -0.539856  2.613823
C    -3.005363  1.072738  1.230088
C    -4.484108  0.753344  0.924388
C    -4.845969  1.118411  -0.522421
N    -6.083108  0.499139  -1.004526
C    -6.149253  -0.696697  -1.606118
N    -7.331109  -1.099285  -2.120923
N    -5.078226  -1.482223  -1.701071
H    -2.515083  1.490322  0.339347
H    -2.930245  1.846802  2.003635
H    -5.147222  1.288979  1.617528
H    -4.684220  -0.316485  1.079659
H    -4.035800  0.813599  -1.196261
H    -4.963990  2.203862  -0.635533
H    -6.962578  0.948146  -0.773883
H    -7.455010  -2.043246  -2.461145
H    -8.069468  -0.436099  -2.315602
H    -5.101255  -2.279756  -2.323652
H    -4.193724  -1.316882  -1.180473
N    -1.488912  -2.419086  1.074344
C    -0.808879  -2.742818  2.324783
H    -1.469657  -3.121237  0.339508
H    -0.726073  -3.832302  2.393281
H    -1.386012  -2.396414  3.189948
H    0.196413  -2.305335  2.373547
