36
Energy: -21202.0039262 eV PBE+vdW (tier 2 basis)
C    -0.664738  -0.635578  0.513254
C    -0.439552  -0.569618  2.003064
O    0.559639  -1.058753  2.543057
H    -1.631370  -0.230122  0.192199
H    -0.581673  -1.678508  0.185722
H    0.137444  -0.074964  0.015897
N    -1.406407  0.061197  2.737239
C    -1.249160  0.393159  4.154769
C    -1.521803  -0.810133  5.095248
O    -2.328067  -0.762874  6.051711
H    -2.216493  0.423155  2.248481
H    -0.177169  0.617401  4.291362
C    -2.026820  1.674678  4.496031
C    -3.542236  1.719796  4.200053
C    -4.496876  1.346003  5.340870
N    -4.421158  2.264420  6.483259
C    -3.931318  1.990740  7.702693
N    -4.166049  2.875054  8.698429
N    -3.218073  0.895026  7.931500
H    -1.544427  2.477276  3.921325
H    -1.836544  1.922529  5.549632
H    -3.808562  1.066212  3.354609
H    -3.798097  2.734917  3.860669
H    -4.305305  0.330493  5.700043
H    -5.531616  1.374817  4.971082
H    -4.774049  3.204911  6.340398
H    -3.693321  2.787857  9.587926
H    -4.930119  3.535221  8.642918
H    -3.027247  0.616538  8.885664
H    -2.852231  0.285390  7.155057
N    -0.794481  -1.895312  4.828930
C    -0.884850  -3.118715  5.611142
H    -0.114253  -1.814747  4.056110
H    -0.504817  -2.967163  6.630742
H    -0.285922  -3.890157  5.119083
H    -1.925647  -3.458057  5.680012
