36
Energy: -21202.077372 eV PBE+vdW (tier 2 basis)
C    0.099548  -2.431033  -1.866246
C    -0.286713  -2.449655  -0.406661
O    -0.043381  -3.414286  0.326787
H    -0.176885  -1.507914  -2.388102
H    -0.377142  -3.281132  -2.369991
H    1.184403  -2.574847  -1.945873
N    -0.901088  -1.326276  0.066345
C    -1.385547  -1.152218  1.438090
C    -0.420415  -1.791952  2.468811
O    -0.785586  -2.655257  3.279487
H    -1.101791  -0.584015  -0.594779
H    -1.311660  -0.070599  1.635121
C    -2.884933  -1.488429  1.634951
C    -3.490641  -2.777749  1.042901
C    -3.592848  -4.007259  1.960737
N    -2.291278  -4.610539  2.218257
C    -1.859514  -5.785570  1.778979
N    -2.708745  -6.815082  1.568619
N    -0.545896  -5.942401  1.548155
H    -3.427509  -0.646133  1.182827
H    -3.093915  -1.428332  2.713355
H    -2.974887  -3.063315  0.114146
H    -4.523099  -2.541764  0.747041
H    -4.247566  -4.748282  1.484845
H    -4.054854  -3.729432  2.919702
H    -1.587293  -3.940799  2.602360
H    -2.409875  -7.637712  1.062862
H    -3.600652  -6.853807  2.043581
H    -0.138085  -6.862025  1.446942
H    -0.023235  -5.121480  1.234587
N    0.812979  -1.250570  2.491532
C    1.873076  -1.718441  3.371857
H    1.047175  -0.561918  1.784990
H    1.415809  -2.225792  4.226055
H    2.460085  -0.865255  3.729144
H    2.539958  -2.422731  2.854586
