36
Energy: -21201.8650969 eV PBE+vdW (tier 2 basis)
C    2.168373  0.943243  1.174036
C    1.225501  0.335153  2.186932
O    1.579477  0.026718  3.325226
H    2.992393  0.241899  0.992795
H    2.609405  1.851098  1.603728
H    1.695689  1.192076  0.216861
N    -0.068326  0.157996  1.771897
C    -1.116142  -0.423834  2.603407
C    -1.063492  0.045260  4.078777
O    -1.145101  -0.753648  5.032575
H    -0.314787  0.428781  0.827006
H    -2.060180  0.010736  2.231497
C    -1.277721  -1.954600  2.426387
C    -0.037533  -2.865754  2.411977
C    0.779695  -2.974391  3.708963
N    -0.060733  -3.156777  4.888513
C    -0.308251  -4.266928  5.552275
N    -0.997797  -4.208110  6.716222
N    0.107470  -5.480783  5.126729
H    -1.775846  -2.099946  1.456978
H    -1.998740  -2.300038  3.180908
H    0.653687  -2.549119  1.616880
H    -0.393472  -3.865956  2.119910
H    1.337953  -2.043405  3.873692
H    1.520138  -3.782816  3.633202
H    -0.576683  -2.270153  5.120219
H    -1.502093  -5.020698  7.047050
H    -1.317547  -3.306596  7.049310
H    0.217961  -6.234995  5.792637
H    0.643152  -5.552057  4.272085
N    -1.091374  1.369909  4.326391
C    -1.073601  2.496645  3.406940
H    -1.056921  1.582057  5.319769
H    -1.693618  2.300249  2.524788
H    -0.055132  2.748374  3.079104
H    -1.496968  3.365393  3.921864
