36
Energy: -21202.0771792 eV PBE+vdW (tier 2 basis)
C    -1.983140  0.691414  0.381740
C    -1.705258  0.906293  1.849247
O    -0.763066  1.609824  2.237737
H    -1.131161  0.156049  -0.057493
H    -2.042110  1.667344  -0.114212
H    -2.898990  0.124666  0.178792
N    -2.557225  0.284223  2.718781
C    -2.413476  0.187618  4.176127
C    -2.573462  1.503001  4.969737
O    -3.237689  1.495575  6.032045
H    -3.328742  -0.232327  2.314153
H    -3.277169  -0.406847  4.498529
C    -1.109070  -0.552127  4.575432
C    -0.867746  -0.651377  6.086497
C    -1.921557  -1.491470  6.823051
N    -1.835731  -1.386461  8.280596
C    -2.535749  -0.522851  9.034083
N    -2.450135  -0.634520  10.378823
N    -3.299876  0.415326  8.486453
H    -0.259914  -0.030248  4.116606
H    -1.144617  -1.555636  4.124444
H    -0.834409  0.355945  6.527348
H    0.126008  -1.091026  6.255794
H    -1.816890  -2.554543  6.566445
H    -2.939876  -1.198727  6.539496
H    -1.106403  -1.913654  8.748055
H    -2.850235  0.071207  10.982144
H    -2.147008  -1.496318  10.812768
H    -3.935587  0.937221  9.077041
H    -3.234121  0.726564  7.486274
N    -1.952307  2.585368  4.504667
C    -2.009433  3.874342  5.176598
H    -1.374494  2.453617  3.655878
H    -3.043549  4.118328  5.446534
H    -1.622067  4.639068  4.497212
H    -1.404747  3.875140  6.094579
