36
Energy: -21201.6749716 eV PBE+vdW (tier 2 basis)
C    -1.477607  1.516370  0.695397
C    -0.857649  0.765901  1.856305
O    -0.279647  -0.305885  1.708839
H    -2.343993  0.945703  0.335514
H    -1.805671  2.534240  0.938372
H    -0.752444  1.555208  -0.125241
N    -0.993678  1.390029  3.080761
C    -0.679977  0.881119  4.415870
C    0.600085  1.464008  5.061787
O    0.533197  1.813500  6.269177
H    -1.472388  2.282974  3.069188
H    -1.467875  1.302246  5.057122
C    -0.760478  -0.660251  4.545123
C    -0.576246  -1.248718  5.953966
C    -1.610376  -0.877949  7.025728
N    -1.356972  0.461651  7.557906
C    -2.007147  1.032133  8.557021
N    -2.971535  0.385364  9.238161
N    -1.709934  2.309500  8.887850
H    -0.024517  -1.122331  3.879746
H    -1.742934  -0.959538  4.149675
H    0.430441  -1.034970  6.345338
H    -0.617951  -2.340608  5.841087
H    -1.541412  -1.613704  7.843757
H    -2.630431  -0.935194  6.606581
H    -0.597119  1.030721  7.083527
H    -3.234311  -0.558490  8.990837
H    -3.527747  0.855441  9.939225
H    -1.996256  2.689826  9.780326
H    -0.917168  2.753049  8.437129
N    1.756490  1.594069  4.401859
C    2.122177  1.238058  3.034486
H    2.482294  2.018398  4.976051
H    1.958857  2.079484  2.346915
H    1.551310  0.375140  2.678088
H    3.186420  0.980272  3.023901
