36
Energy: -21201.6348175 eV PBE+vdW (tier 2 basis)
C    -0.971955  -0.135282  0.033150
C    -0.489933  -0.349341  1.441993
O    0.723792  -0.467373  1.693098
H    -0.271927  -0.585776  -0.676296
H    -0.994709  0.950569  -0.142122
H    -1.982353  -0.525795  -0.140561
N    -1.470537  -0.455946  2.397900
C    -1.401446  0.071478  3.769176
C    -1.415735  1.628314  3.667655
O    -0.941258  2.186070  2.683791
H    -2.399936  -0.332067  2.005174
H    -2.324090  -0.275017  4.259367
C    -0.206218  -0.358599  4.643667
C    -0.169881  -1.814796  5.133431
C    0.124313  -2.881409  4.067218
N    1.285222  -2.535757  3.251299
C    2.549097  -2.877880  3.441549
N    3.509637  -2.197525  2.777863
N    2.916209  -3.870538  4.273606
H    -0.237841  0.277901  5.538937
H    0.725958  -0.086882  4.133319
H    -1.121616  -2.078286  5.620693
H    0.602591  -1.880155  5.914968
H    -0.719232  -2.983340  3.373050
H    0.251655  -3.866694  4.536792
H    1.113586  -1.721675  2.603735
H    4.423492  -2.606358  2.631371
H    3.230305  -1.460793  2.138472
H    3.889008  -4.044565  4.484741
H    2.225799  -4.442634  4.738272
N    -1.948871  2.313966  4.714733
C    -2.658515  1.792878  5.875168
H    -1.904347  3.322277  4.599006
H    -2.010553  1.193631  6.530941
H    -3.532278  1.189199  5.590630
H    -3.022757  2.641112  6.462446
