36
Energy: -21201.6737722 eV PBE+vdW (tier 2 basis)
C    -0.104809  0.697654  -0.195995
C    0.311320  0.047642  1.105338
O    1.459716  0.069102  1.523641
H    0.801130  1.016734  -0.717295
H    -0.734657  1.578597  -0.011031
H    -0.666828  0.009489  -0.843058
N    -0.670415  -0.585615  1.860315
C    -2.047860  -0.878781  1.508457
C    -2.849905  0.402183  1.202917
O    -2.765631  1.429310  1.897435
H    -0.259883  -1.142320  2.605124
H    -2.088357  -1.526752  0.612241
C    -2.737570  -1.668453  2.653093
C    -3.157716  -0.882649  3.906287
C    -1.992350  -0.275723  4.703722
N    -2.420891  0.685404  5.720462
C    -2.450985  2.014714  5.539177
N    -2.279403  2.547402  4.333030
N    -2.657335  2.807718  6.612787
H    -2.068407  -2.500863  2.925377
H    -3.637703  -2.139260  2.235180
H    -3.725618  -1.562914  4.558404
H    -3.852203  -0.079802  3.622545
H    -1.292214  0.246685  4.041983
H    -1.419194  -1.061023  5.216203
H    -2.780142  0.330102  6.599714
H    -2.116699  3.543060  4.249474
H    -2.376754  2.008419  3.445159
H    -2.471478  2.476032  7.550147
H    -2.845527  3.794643  6.498770
N    -3.685111  0.305511  0.151781
C    -4.572676  1.373309  -0.284434
H    -3.643941  -0.540585  -0.406326
H    -4.202109  1.839173  -1.207385
H    -4.613259  2.131283  0.502662
H    -5.578929  0.976943  -0.463596
