36
Energy: -21201.6988846 eV PBE+vdW (tier 2 basis)
C    0.251227  -0.934321  1.417257
C    0.012094  -1.032213  2.907153
O    0.728674  -1.701723  3.652695
H    1.310810  -1.127188  1.226471
H    -0.024688  0.042958  1.001728
H    -0.326897  -1.703587  0.885104
N    -1.044066  -0.330084  3.436049
C    -2.204916  0.253488  2.792056
C    -3.023378  0.925190  3.906042
O    -3.063705  0.442667  5.057369
H    -1.110291  -0.388907  4.448805
H    -1.883136  1.031059  2.084135
C    -3.115689  -0.744947  1.983950
C    -3.112021  -2.235387  2.364158
C    -3.747898  -2.661844  3.700328
N    -2.993538  -2.280508  4.892277
C    -1.884936  -2.881354  5.320192
N    -1.229635  -2.368334  6.383638
N    -1.428513  -4.018229  4.773083
H    -2.800191  -0.687612  0.933655
H    -4.149328  -0.366211  2.002395
H    -3.673112  -2.757461  1.574461
H    -2.086025  -2.627863  2.301437
H    -3.903831  -3.750416  3.709820
H    -4.745201  -2.215433  3.810015
H    -3.089054  -1.278789  5.156590
H    -0.225883  -2.495805  6.448854
H    -1.610640  -1.550170  6.844607
H    -0.584181  -4.445969  5.131466
H    -1.721685  -4.300599  3.848361
N    -3.722219  2.029939  3.596184
C    -3.741900  2.766786  2.335079
H    -4.267067  2.400557  4.370797
H    -4.421464  3.615955  2.450955
H    -4.113177  2.151298  1.505686
H    -2.749503  3.161488  2.079823
