36
Energy: -21202.1073234 eV PBE+vdW (tier 2 basis)
C    -3.611941  2.625153  0.052388
C    -3.178010  1.190322  0.214277
O    -3.863773  0.242255  -0.186171
H    -2.935867  3.348472  0.522979
H    -3.678841  2.848484  -1.020325
H    -4.618469  2.742983  0.470706
N    -1.974504  0.983146  0.831843
C    -1.334425  -0.331775  0.896663
C    -1.917444  -1.226599  2.028192
O    -1.224304  -1.706478  2.958209
H    -1.463128  1.787022  1.176609
H    -1.607224  -0.845534  -0.039932
C    0.191696  -0.198064  0.931245
C    0.790018  0.658000  2.079954
C    1.891482  -0.059234  2.865516
N    1.301562  -1.222343  3.519241
C    1.892064  -2.027516  4.383007
N    1.153615  -2.975666  5.001586
N    3.202951  -1.922850  4.677715
H    0.503076  0.220540  -0.034674
H    0.606476  -1.215388  0.959234
H    0.012106  0.958037  2.799131
H    1.217043  1.586815  1.680961
H    2.321073  0.624820  3.615272
H    2.701511  -0.368036  2.181742
H    0.286831  -1.420212  3.269595
H    1.599069  -3.774551  5.433422
H    0.180265  -3.078898  4.734137
H    3.771077  -1.206767  4.246722
H    3.599673  -2.413098  5.468204
N    -3.219580  -1.479212  1.907362
C    -3.963407  -2.294329  2.855255
H    -3.693864  -1.048139  1.097061
H    -3.854262  -1.904608  3.875374
H    -3.610428  -3.334230  2.842661
H    -5.020116  -2.274520  2.574837
