36
Energy: -21201.0789031 eV PBE+vdW (tier 2 basis)
C    -0.348741  -0.001965  0.952678
C    -0.972595  -0.417613  2.267518
O    -0.388533  -1.134776  3.070972
H    -1.073620  0.199067  0.156150
H    0.258463  0.901838  1.105228
H    0.331393  -0.799894  0.638954
N    -2.259526  0.019286  2.560629
C    -3.065141  1.073878  1.946158
C    -3.715098  0.714812  0.579660
O    -4.165282  1.608152  -0.132424
H    -2.560710  -0.324377  3.468399
H    -3.934373  1.182775  2.615638
C    -2.368810  2.448471  1.834440
C    -1.654482  2.915502  3.105102
C    -2.598088  3.212745  4.269615
N    -1.821080  3.666463  5.433545
C    -2.300895  3.859789  6.662371
N    -1.463816  4.090768  7.688284
N    -3.621922  3.812053  6.886353
H    -3.125396  3.176133  1.513079
H    -1.634743  2.421889  1.019601
H    -0.921949  2.158721  3.427962
H    -1.091953  3.832000  2.866744
H    -3.158930  2.311237  4.560456
H    -3.319316  3.992818  3.973803
H    -0.838389  3.867176  5.274973
H    -0.466341  3.948448  7.594543
H    -1.801154  4.441574  8.575379
H    -3.996280  3.803722  7.826295
H    -4.281404  3.813054  6.119221
N    -3.780095  -0.608677  0.299354
C    -4.399738  -1.129791  -0.907484
H    -3.363658  -1.249798  0.966008
H    -4.766418  -0.279389  -1.490933
H    -5.244042  -1.787246  -0.661857
H    -3.673869  -1.692818  -1.508803
