36
Energy: -21202.1070466 eV PBE+vdW (tier 2 basis)
C    -0.443068  1.763501  -0.304240
C    -0.343555  1.608397  1.187990
O    0.640349  2.067801  1.817648
H    -1.362808  1.341364  -0.722268
H    0.420681  1.268299  -0.766674
H    -0.382606  2.828255  -0.561241
N    -1.351487  0.965323  1.803798
C    -1.340120  0.517518  3.189431
C    -1.932096  -0.912738  3.151406
O    -2.711884  -1.215041  2.248380
H    -2.067731  0.486897  1.250017
H    -0.298471  0.503278  3.538255
C    -2.233817  1.382173  4.114062
C    -1.890666  2.871360  4.264756
C    -0.634845  3.220110  5.075746
N    0.574851  3.037782  4.278185
C    1.748695  3.615548  4.488691
N    2.664614  3.590404  3.499506
N    2.044853  4.229959  5.650415
H    -2.255909  0.913932  5.110297
H    -3.259640  1.307422  3.724359
H    -2.738821  3.344962  4.778476
H    -1.832650  3.359313  3.279666
H    -0.592103  2.599073  5.987495
H    -0.701048  4.272691  5.394494
H    0.493413  2.557036  3.342254
H    3.646452  3.732101  3.695544
H    2.410533  3.140772  2.622140
H    2.849438  4.837837  5.726643
H    1.383987  4.235462  6.414838
N    -1.596950  -1.764838  4.149869
C    -0.624482  -1.563939  5.214262
H    -2.057854  -2.668194  4.086364
H    -0.514324  -2.505808  5.759864
H    -0.945556  -0.798397  5.935778
H    0.364625  -1.292616  4.819794
