36
Energy: -21201.3867137 eV PBE+vdW (tier 2 basis)
C    -0.746962  -1.053424  0.400536
C    -0.714930  -0.157357  1.617047
O    0.168881  0.694436  1.776227
H    -1.557228  -1.791605  0.409507
H    -0.844078  -0.426217  -0.494660
H    0.214239  -1.576373  0.324747
N    -1.722527  -0.341878  2.521557
C    -1.901959  0.377561  3.786446
C    -2.331490  1.868219  3.679076
O    -3.259018  2.263179  4.389492
H    -2.456502  -0.992553  2.269293
H    -2.772445  -0.087816  4.265609
C    -0.683924  0.206897  4.724039
C    -0.829663  0.993900  6.028688
C    0.342371  0.804158  6.993946
N    0.466933  -0.557067  7.546809
C    -0.180973  -1.017241  8.618151
N    -1.161559  -0.302163  9.187105
N    0.157882  -2.205676  9.150556
H    0.222691  0.531942  4.194495
H    -0.575273  -0.871290  4.925721
H    -0.892268  2.070079  5.811832
H    -1.786083  0.744282  6.518725
H    0.280333  1.502764  7.840491
H    1.293878  1.014496  6.488430
H    1.043193  -1.218784  7.038274
H    -1.583258  0.482532  8.706326
H    -1.504737  -0.527579  10.111918
H    1.030482  -2.658506  8.911305
H    -0.448295  -2.678269  9.808505
N    -1.598553  2.642143  2.848870
C    -1.880780  4.051773  2.638143
H    -0.824716  2.190493  2.349283
H    -1.009643  4.667459  2.899693
H    -2.725160  4.333791  3.274853
H    -2.142469  4.244962  1.589178
