36
Energy: -21201.9862615 eV PBE+vdW (tier 2 basis)
C    -0.991972  -1.983529  1.277170
C    -1.206528  -0.629095  1.905281
O    -1.504172  0.367245  1.234251
H    -1.858353  -2.225450  0.650543
H    -0.119593  -1.923507  0.613059
H    -0.829709  -2.790400  2.000921
N    -1.052975  -0.560844  3.262329
C    -1.033627  0.664685  4.070349
C    -2.389872  1.393510  4.212800
O    -2.705879  1.867594  5.336459
H    -0.855489  -1.424812  3.752572
H    -0.819571  0.308169  5.085668
C    0.101910  1.658014  3.647979
C    1.138074  1.986381  4.737709
C    0.739571  3.063376  5.759314
N    -0.441249  2.712373  6.545628
C    -0.483344  2.165000  7.755647
N    0.543919  2.238916  8.622511
N    -1.598587  1.490440  8.100782
H    -0.335756  2.584487  3.248864
H    0.629116  1.201609  2.802401
H    2.048914  2.355966  4.243598
H    1.432809  1.066823  5.268703
H    0.514358  4.007653  5.243534
H    1.588266  3.271954  6.423643
H    -1.330217  2.564268  6.013965
H    0.508811  1.754364  9.509087
H    1.298833  2.895200  8.478877
H    -1.861379  1.381841  9.071941
H    -2.326471  1.405995  7.389093
N    -3.131221  1.533935  3.118637
C    -4.403941  2.237774  3.087873
H    -2.702384  1.195048  2.239185
H    -4.310977  3.174707  2.522415
H    -4.713932  2.465979  4.111258
H    -5.163382  1.611330  2.604955
