36
Energy: -21201.4591246 eV PBE+vdW (tier 2 basis)
C    2.981359  -0.239788  1.918725
C    2.045015  -0.756456  2.985440
O    2.263745  -0.575470  4.189306
H    3.966339  -0.700631  2.066452
H    3.107243  0.841249  2.054026
H    2.646090  -0.438501  0.894199
N    0.943584  -1.433390  2.537988
C    -0.070641  -2.094020  3.367252
C    -1.012221  -1.168239  4.185361
O    -2.226160  -1.415387  4.171555
H    0.791371  -1.454057  1.537161
H    -0.763506  -2.549068  2.647338
C    0.561457  -3.206910  4.243474
C    -0.342895  -3.803664  5.330481
C    -1.682832  -4.396543  4.869636
N    -1.577694  -5.421041  3.815738
C    -1.330366  -6.715956  4.003479
N    -1.474424  -7.588605  2.988258
N    -0.940920  -7.172241  5.203131
H    1.445387  -2.788145  4.740422
H    0.929606  -3.997074  3.570208
H    -0.596142  -3.030301  6.070859
H    0.251314  -4.551640  5.881218
H    -2.313039  -3.593576  4.462737
H    -2.230536  -4.833308  5.717195
H    -1.711243  -5.112919  2.858727
H    -1.090712  -8.523118  3.040422
H    -1.967462  -7.333213  2.142774
H    -0.983243  -8.157838  5.427211
H    -0.690655  -6.530152  5.943829
N    -0.427316  -0.191781  4.901832
C    -1.178871  0.745250  5.720115
H    0.598899  -0.142199  4.865946
H    -0.936354  0.618539  6.784188
H    -2.246962  0.559260  5.572130
H    -0.946905  1.777903  5.429939
