36
Energy: -21201.621197 eV PBE+vdW (tier 2 basis)
C    -0.278433  -0.235533  0.391816
C    0.033227  0.265438  1.786520
O    1.097030  0.058542  2.347475
H    0.631799  -0.685254  -0.012533
H    -0.607182  0.571017  -0.278176
H    -1.067290  -1.001323  0.408760
N    -0.942702  1.028226  2.430429
C    -2.353600  1.108634  2.090322
C    -2.897722  2.544775  2.280438
O    -4.096140  2.758968  2.549688
H    -0.681414  1.221217  3.396498
H    -2.432704  0.922982  1.008107
C    -3.245785  0.070361  2.793749
C    -3.346379  0.260827  4.309626
C    -4.462689  -0.544509  4.977498
N    -5.805429  -0.470366  4.355862
C    -6.608433  0.603364  4.233822
N    -7.942680  0.405748  4.278254
N    -6.122752  1.831323  4.064318
H    -2.853734  -0.930030  2.559228
H    -4.243637  0.125933  2.336409
H    -3.469655  1.324172  4.555655
H    -2.412850  -0.052296  4.801078
H    -4.546255  -0.252539  6.034799
H    -4.213890  -1.612758  4.955236
H    -6.269990  -1.362975  4.233508
H    -8.584298  1.094790  3.906681
H    -8.339537  -0.418739  4.710398
H    -6.767471  2.610576  4.135591
H    -5.238762  2.033235  3.535655
N    -2.001763  3.523036  2.088685
C    -2.311340  4.942577  2.143804
H    -1.049029  3.224554  1.893042
H    -1.663253  5.446765  2.871173
H    -3.356106  5.057602  2.445896
H    -2.169828  5.407205  1.159432
