36
Energy: -21201.9783123 eV PBE+vdW (tier 2 basis)
C    0.381815  1.655763  0.740663
C    0.006012  0.958437  2.026643
O    -0.081470  1.532816  3.102692
H    -0.449537  2.307504  0.440130
H    0.608310  0.970017  -0.084824
H    1.247417  2.301503  0.925992
N    -0.226606  -0.409949  1.921332
C    -0.788814  -1.138895  3.045840
C    0.082577  -2.335356  3.469612
O    -0.399455  -3.337301  4.045764
H    -0.276060  -0.817145  0.993011
H    -0.711171  -0.415180  3.879741
C    -2.277816  -1.483019  2.887171
C    -2.624229  -2.536678  1.807049
C    -3.504666  -3.671087  2.340119
N    -2.789301  -4.344599  3.422027
C    -3.263037  -5.299750  4.203125
N    -4.448978  -5.890976  3.963555
N    -2.540989  -5.683681  5.278127
H    -2.800928  -0.541205  2.679474
H    -2.645265  -1.812776  3.869188
H    -1.710985  -2.987730  1.386703
H    -3.148684  -2.072671  0.962691
H    -3.728917  -4.381096  1.527600
H    -4.460355  -3.264440  2.713552
H    -1.846070  -3.940097  3.673023
H    -5.012802  -5.613280  3.172186
H    -4.876994  -6.500647  4.647245
H    -2.715315  -6.572744  5.727746
H    -1.631787  -5.260114  5.429040
N    1.395211  -2.205763  3.237696
C    2.400245  -3.163702  3.669710
H    1.690919  -1.344869  2.786357
H    3.176812  -3.254655  2.902450
H    1.920798  -4.135480  3.819470
H    2.866115  -2.850154  4.614099
