36
Energy: -21201.0182521 eV PBE+vdW (tier 2 basis)
C    -0.082491  -2.511221  2.683924
C    -0.449694  -1.153050  3.243077
O    0.128845  -0.666057  4.206136
H    -0.145295  -2.583865  1.592415
H    0.934211  -2.741770  3.013284
H    -0.756300  -3.274225  3.099682
N    -1.507286  -0.459560  2.675121
C    -2.314173  -0.744459  1.494969
C    -2.874071  -2.191549  1.461043
O    -2.664698  -2.931028  0.495526
H    -1.667539  0.428201  3.143069
H    -3.192070  -0.080637  1.578041
C    -1.581341  -0.407357  0.182137
C    -2.499418  -0.338868  -1.042650
C    -1.689116  -0.246378  -2.331752
N    -2.584540  -0.291173  -3.499076
C    -2.235087  -0.020152  -4.756177
N    -0.953272  0.220257  -5.066791
N    -3.167968  0.034259  -5.723969
H    -0.807539  -1.169401  0.012603
H    -1.067638  0.553694  0.329231
H    -3.177486  0.526349  -0.970186
H    -3.106402  -1.255980  -1.074749
H    -0.981780  -1.091090  -2.377675
H    -1.117496  0.694113  -2.366293
H    -3.513726  -0.668701  -3.338836
H    -0.693102  0.604366  -5.965890
H    -0.213756  0.045539  -4.399036
H    -2.911800  0.007267  -6.702421
H    -4.154615  0.007409  -5.501944
N    -3.621317  -2.597062  2.519615
C    -3.982502  -1.871621  3.730465
H    -3.932034  -3.560993  2.438050
H    -4.851214  -2.364844  4.179182
H    -4.271582  -0.837534  3.504771
H    -3.168365  -1.852754  4.467660
