36
Energy: -21201.6099503 eV PBE+vdW (tier 2 basis)
C    0.638862  0.282165  1.370671
C    0.072395  0.625886  2.732812
O    0.770780  0.904792  3.693414
H    0.203777  0.893535  0.568009
H    0.463346  -0.774829  1.122633
H    1.717554  0.454047  1.404829
N    -1.317694  0.652249  2.864695
C    -2.287537  0.040477  1.971864
C    -3.520608  0.958015  1.781621
O    -4.648351  0.503252  1.506061
H    -1.594146  0.758148  3.840694
H    -1.815105  -0.012629  0.978003
C    -2.695526  -1.388236  2.388545
C    -3.227752  -2.222835  1.217407
C    -3.978155  -3.492643  1.620949
N    -5.060413  -3.333960  2.618988
C    -6.224426  -2.675933  2.468257
N    -7.304708  -3.130109  3.137253
N    -6.322195  -1.600967  1.688753
H    -3.444300  -1.325796  3.193244
H    -1.811975  -1.876473  2.823374
H    -2.389519  -2.549438  0.582560
H    -3.863711  -1.610389  0.567259
H    -3.284951  -4.207110  2.082318
H    -4.394143  -3.975496  0.724317
H    -5.030333  -3.979704  3.399638
H    -8.110023  -2.536648  3.290885
H    -7.358825  -4.086319  3.464000
H    -7.247657  -1.237433  1.491022
H    -5.535137  -0.918428  1.570028
N    -3.271114  2.270095  1.896059
C    -4.260462  3.315661  1.693368
H    -2.323693  2.519917  2.170656
H    -3.934202  4.000639  0.900787
H    -4.412860  3.888553  2.617041
H    -5.204037  2.847874  1.398871
