36
Energy: -21201.658263 eV PBE+vdW (tier 2 basis)
C    -1.074953  -0.095691  0.326721
C    -0.569809  0.451938  1.645904
O    0.409121  1.188494  1.716769
H    -2.048099  -0.597478  0.388625
H    -1.136125  0.726851  -0.394790
H    -0.336157  -0.810682  -0.058842
N    -1.301994  0.060934  2.748338
C    -1.005082  0.258293  4.165826
C    -1.837465  1.339871  4.890484
O    -2.275209  1.067930  6.032985
H    -2.101734  -0.532319  2.560720
H    -1.371917  -0.656600  4.652343
C    0.502995  0.388515  4.495744
C    0.813940  0.446366  5.997206
C    0.456169  -0.837750  6.759004
N    0.512541  -0.689207  8.214728
C    -0.523329  -0.327828  8.987815
N    -1.682613  0.049372  8.458073
N    -0.367530  -0.367027  10.329582
H    0.916147  1.276750  4.008780
H    1.015163  -0.468215  4.032367
H    0.294526  1.298572  6.459173
H    1.888942  0.644675  6.116493
H    1.141893  -1.652136  6.489484
H    -0.554767  -1.186262  6.512808
H    1.422441  -0.738364  8.659552
H    -2.487188  0.157434  9.063214
H    -1.807126  0.352175  7.463144
H    -1.062264  0.035428  10.943919
H    0.365235  -0.918755  10.755536
N    -2.088944  2.542798  4.352564
C    -1.676868  3.127046  3.080312
H    -2.677798  3.116293  4.952563
H    -1.619257  4.213095  3.208672
H    -0.692435  2.762140  2.771098
H    -2.402439  2.907588  2.284642
