36
Energy: -21201.9128646 eV PBE+vdW (tier 2 basis)
C    1.761317  -3.124612  -0.942047
C    0.354465  -2.993739  -0.414222
O    -0.570652  -3.717501  -0.851766
H    1.762371  -2.816398  -1.996330
H    2.064984  -4.178182  -0.915763
H    2.492570  -2.516243  -0.398832
N    0.167172  -2.076775  0.554124
C    -1.094106  -1.584521  1.096450
C    -0.663731  -0.517209  2.139261
O    0.501521  -0.477006  2.539466
H    0.967362  -1.586607  0.965933
H    -1.648949  -1.083240  0.284628
C    -2.063407  -2.627045  1.705529
C    -1.558315  -3.526660  2.843717
C    -0.609933  -4.663866  2.421398
N    -1.061885  -5.364414  1.219434
C    -1.712289  -6.512871  1.142681
N    -2.146425  -7.177757  2.232295
N    -1.943159  -7.051291  -0.074614
H    -2.460317  -3.239224  0.885559
H    -2.925517  -2.061952  2.087811
H    -2.443515  -3.966752  3.327439
H    -1.047406  -2.934719  3.617743
H    -0.469208  -5.378185  3.244886
H    0.387723  -4.269369  2.194825
H    -0.932595  -4.820990  0.331512
H    -2.370026  -8.162873  2.173423
H    -1.983668  -6.801472  3.156230
H    -2.680672  -7.732109  -0.202430
H    -1.633674  -6.549864  -0.899838
N    -1.640952  0.313344  2.564170
C    -1.416575  1.370063  3.541696
H    -2.551538  0.257630  2.121926
H    -0.400591  1.259966  3.931362
H    -2.133898  1.288205  4.367598
H    -1.514483  2.360241  3.077746
