36
Energy: -21201.8954108 eV PBE+vdW (tier 2 basis)
C    -1.639110  1.315744  -0.215280
C    -0.948452  0.950833  1.076044
O    -0.116709  1.695421  1.611115
H    -2.433765  0.620578  -0.509043
H    -2.054582  2.325949  -0.123327
H    -0.885694  1.347982  -1.013534
N    -1.304066  -0.245077  1.632523
C    -0.654894  -0.926216  2.757999
C    -0.742613  -0.249197  4.139317
O    -0.567914  -0.958766  5.159117
H    -2.018561  -0.780071  1.152996
H    -1.247311  -1.840399  2.895129
C    0.804892  -1.394878  2.455731
C    1.963689  -0.451731  2.855916
C    2.927241  -1.068463  3.879192
N    2.194092  -1.433524  5.099613
C    2.217160  -2.615963  5.716577
N    1.107110  -3.021680  6.350409
N    3.313947  -3.395071  5.690875
H    0.846957  -1.614310  1.381989
H    0.932363  -2.363083  2.960235
H    2.551634  -0.169897  1.973532
H    1.579863  0.500008  3.248031
H    3.727869  -0.355145  4.121699
H    3.396795  -1.974701  3.468713
H    1.307732  -0.933624  5.254300
H    1.134463  -3.714015  7.087046
H    0.240836  -2.510606  6.163114
H    3.286187  -4.344288  6.038576
H    4.217067  -3.006550  5.453786
N    -0.960381  1.065650  4.196706
C    -1.047508  1.792105  5.455035
H    -0.823148  1.585370  3.319571
H    -0.051484  2.051276  5.843551
H    -1.560993  1.176070  6.199808
H    -1.612082  2.715389  5.292334
