36
Energy: -21201.9066781 eV PBE+vdW (tier 2 basis)
C    1.703433  -3.141349  -1.081986
C    0.316538  -2.998879  -0.506674
O    -0.635122  -3.696230  -0.930286
H    1.986620  -4.200832  -1.094158
H    2.462957  -2.562057  -0.545802
H    1.677730  -2.804041  -2.127028
N    0.175706  -2.103320  0.489159
C    -1.060545  -1.605877  1.081965
C    -0.582778  -0.571836  2.137345
O    0.595198  -0.556603  2.500356
H    0.996029  -1.634920  0.886403
H    -1.631597  -1.076036  0.300016
C    -2.026765  -2.649669  1.693297
C    -1.507465  -3.575105  2.803691
C    -0.574749  -4.711921  2.346021
N    -1.045869  -5.388994  1.136523
C    -1.845152  -6.442103  1.054843
N    -2.144176  -7.204412  2.121969
N    -2.386932  -6.751620  -0.142588
H    -2.447812  -3.241431  0.870477
H    -2.874428  -2.083296  2.104998
H    -2.386162  -4.020313  3.293939
H    -0.979234  -3.001983  3.580434
H    -0.426361  -5.435980  3.159624
H    0.423621  -4.326105  2.110655
H    -0.914449  -4.834282  0.258227
H    -2.800082  -7.970211  2.054510
H    -1.715076  -7.032611  3.020110
H    -2.762299  -7.674087  -0.320126
H    -2.137540  -6.194566  -0.952596
N    -1.534723  0.259443  2.615101
C    -1.265018  1.287605  3.611410
H    -2.460133  0.225678  2.202419
H    -1.950599  1.188302  4.462084
H    -1.373086  2.290537  3.178166
H    -0.235681  1.160104  3.958503
