36
Energy: -21201.5117222 eV PBE+vdW (tier 2 basis)
C    -0.029260  -1.217956  -0.279340
C    0.162251  -0.765789  1.146554
O    1.269384  -0.852334  1.719137
H    0.944876  -1.189724  -0.776522
H    -0.742329  -0.592034  -0.827955
H    -0.386627  -2.257759  -0.316530
N    -0.896988  -0.265882  1.829737
C    -2.316514  -0.570526  1.700591
C    -3.077737  0.767876  1.830057
O    -2.767019  1.538842  2.735380
H    -0.666731  0.199464  2.707163
H    -2.494593  -1.057609  0.732254
C    -2.765599  -1.471475  2.876626
C    -2.292167  -2.932985  2.933672
C    -0.782025  -3.268264  2.921959
N    0.115506  -2.395008  3.681241
C    0.351272  -2.432923  4.983498
N    -0.400974  -3.169920  5.822602
N    1.377242  -1.717972  5.487999
H    -3.865853  -1.492298  2.882927
H    -2.481340  -0.942579  3.799560
H    -2.727850  -3.503020  2.098529
H    -2.753719  -3.365034  3.836466
H    -0.396136  -3.239678  1.897102
H    -0.643787  -4.308422  3.255870
H    0.690013  -1.739680  3.100797
H    -0.078016  -3.380146  6.757964
H    -1.198514  -3.687766  5.480426
H    1.974607  -1.189812  4.862493
H    1.414022  -1.482520  6.471179
N    -4.075067  0.978697  0.938196
C    -4.913028  2.170114  0.955443
H    -4.228221  0.291746  0.209146
H    -4.608609  2.780299  1.811033
H    -5.971013  1.899123  1.061916
H    -4.781791  2.753273  0.034999
