36
Energy: -21201.6493626 eV PBE+vdW (tier 2 basis)
C    -0.914988  0.999706  -0.121541
C    -0.964968  0.886090  1.381571
O    -0.315807  1.657533  2.107331
H    0.128161  0.898741  -0.446699
H    -1.248169  2.002213  -0.417431
H    -1.525433  0.252474  -0.641084
N    -1.740770  -0.114586  1.885637
C    -1.900838  -0.362323  3.314269
C    -2.067954  -1.871919  3.624827
O    -2.867429  -2.244297  4.477830
H    -2.299187  -0.659466  1.236367
H    -0.947100  -0.048465  3.770449
C    -3.035205  0.462218  3.953441
C    -2.828827  0.673024  5.463965
C    -3.335627  2.002993  6.038226
N    -2.991071  3.229003  5.280595
C    -1.946713  3.429899  4.466197
N    -2.044341  4.346792  3.484935
N    -0.788643  2.768594  4.586923
H    -3.996751  -0.035329  3.771940
H    -3.067851  1.423603  3.423717
H    -1.766818  0.530327  5.715568
H    -3.341796  -0.121110  6.020924
H    -2.993090  2.108977  7.078080
H    -4.433176  1.995678  6.067388
H    -3.699604  3.955233  5.280778
H    -1.209858  4.643229  2.993781
H    -2.940391  4.671538  3.146842
H    -0.369658  2.404692  3.707637
H    -0.653421  2.204383  5.415987
N    -1.262482  -2.703407  2.914408
C    -1.232654  -4.143135  3.129531
H    -0.589542  -2.294017  2.275845
H    -1.273999  -4.672817  2.170325
H    -2.105522  -4.413145  3.731428
H    -0.324617  -4.446842  3.668292
