36
Energy: -21201.9628631 eV PBE+vdW (tier 2 basis)
C    -0.187990  2.523192  1.407645
C    -0.453151  1.090472  1.794432
O    0.050942  0.140481  1.167705
H    -0.499178  2.669780  0.365489
H    0.891790  2.713514  1.451812
H    -0.704656  3.253678  2.040464
N    -1.290032  0.887285  2.843625
C    -1.628473  -0.437348  3.358344
C    -3.133279  -0.585216  3.706402
O    -3.494827  -1.415563  4.531664
H    -1.597823  1.697989  3.372635
H    -1.451149  -1.123921  2.515944
C    -0.760045  -0.847091  4.558584
C    0.724124  -1.052607  4.235944
C    0.974378  -2.264954  3.331509
N    2.386995  -2.444549  2.983385
C    2.975297  -2.063636  1.841420
N    4.245636  -2.463878  1.610766
N    2.346418  -1.310869  0.942073
H    -1.203645  -1.760024  4.979139
H    -0.855913  -0.082001  5.343276
H    1.271579  -1.193516  5.180090
H    1.151342  -0.152642  3.767447
H    0.411290  -2.188675  2.393737
H    0.642437  -3.187811  3.827123
H    2.996723  -2.817068  3.703571
H    4.641151  -3.256466  2.098742
H    4.783155  -2.071387  0.849760
H    2.742657  -1.215216  0.015534
H    1.463940  -0.791608  1.122239
N    -3.980011  0.229482  3.022186
C    -5.426222  0.138430  3.163008
H    -3.599589  0.803350  2.278482
H    -5.644932  -0.357193  4.113704
H    -5.874424  -0.451168  2.350838
H    -5.867515  1.141757  3.164279
