36
Energy: -21201.6781613 eV PBE+vdW (tier 2 basis)
C    -0.421854  1.219504  0.115576
C    0.168003  0.593921  1.364784
O    1.344044  0.709892  1.672764
H    0.387122  1.727965  -0.414668
H    -1.198496  1.959697  0.356635
H    -0.865834  0.469085  -0.553668
N    -0.686933  -0.127172  2.186058
C    -2.072792  -0.501114  1.946623
C    -2.833785  -0.243576  3.258109
O    -2.905738  -1.100618  4.161472
H    -0.213203  -0.554838  2.979123
H    -2.470541  0.179209  1.180433
C    -2.195544  -1.943371  1.419210
C    -3.619846  -2.424006  1.086574
C    -4.367187  -3.174224  2.197660
N    -3.728992  -4.444693  2.564747
C    -3.070289  -4.718544  3.701436
N    -2.758819  -6.006283  3.965787
N    -2.717022  -3.760223  4.551794
H    -1.701125  -2.627853  2.124619
H    -1.581772  -1.979278  0.509089
H    -3.578461  -3.078440  0.203030
H    -4.251956  -1.574081  0.783730
H    -5.385577  -3.410800  1.859203
H    -4.465746  -2.570379  3.105639
H    -3.771436  -5.191279  1.878829
H    -2.107844  -6.242300  4.702589
H    -3.231485  -6.768941  3.499511
H    -2.405336  -4.013771  5.480998
H    -2.757531  -2.739712  4.316777
N    -3.368631  0.982112  3.391455
C    -3.984091  1.469388  4.618782
H    -3.204207  1.649463  2.645491
H    -4.845534  2.099683  4.373005
H    -3.269005  2.052883  5.215019
H    -4.315937  0.610654  5.208940
