36
Energy: -21201.5814436 eV PBE+vdW (tier 2 basis)
C    0.067419  -1.111032  -0.410270
C    0.015966  -0.131596  0.738546
O    0.884186  0.749719  0.890059
H    0.958722  -1.741062  -0.291345
H    -0.814792  -1.757203  -0.474276
H    0.183751  -0.562895  -1.353190
N    -1.019333  -0.274147  1.591643
C    -1.214967  0.477332  2.818711
C    -2.307626  -0.306989  3.582745
O    -2.997639  -1.137296  2.989697
H    -1.719064  -1.013799  1.475747
H    -0.275749  0.464670  3.394528
C    -1.639823  1.960888  2.580493
C    -0.514229  2.963556  2.866678
C    -0.681957  4.332043  2.192820
N    -0.806581  4.272056  0.721160
C    0.019621  3.611937  -0.099384
N    -0.419802  3.198108  -1.299074
N    1.297672  3.352333  0.224390
H    -2.525294  2.205375  3.184664
H    -1.964313  2.026587  1.533001
H    0.437930  2.505992  2.567769
H    -0.436937  3.155798  3.946925
H    0.146914  5.001625  2.468161
H    -1.598136  4.827702  2.537791
H    -1.654394  4.651080  0.313805
H    0.247008  2.935958  -2.014584
H    -1.405410  3.152626  -1.522026
H    1.574564  2.365127  0.115512
H    1.650564  3.777485  1.074350
N    -2.477152  -0.033164  4.899528
C    -1.730465  0.888594  5.740431
H    -3.238761  -0.554571  5.324686
H    -2.114648  1.918675  5.681768
H    -0.665908  0.892051  5.476526
H    -1.807277  0.556861  6.781077
