36
Energy: -21201.2187896 eV PBE+vdW (tier 2 basis)
C    0.286075  -0.423767  -0.625440
C    0.523355  0.080849  0.784318
O    1.638054  0.330970  1.218584
H    1.241610  -0.392612  -1.154851
H    -0.447628  0.186048  -1.170257
H    -0.074961  -1.462606  -0.621225
N    -0.592165  0.290602  1.586984
C    -1.951966  -0.171139  1.366353
C    -2.999768  0.973370  1.447910
O    -4.200682  0.723461  1.589483
H    -0.332402  0.539173  2.540685
H    -2.005209  -0.538545  0.330632
C    -2.312399  -1.337071  2.317197
C    -3.533271  -2.148786  1.871780
C    -3.941017  -3.185857  2.913813
N    -5.204273  -3.821096  2.506450
C    -5.725394  -4.930944  3.027283
N    -5.157666  -5.512762  4.093743
N    -6.817894  -5.490945  2.476973
H    -2.488128  -0.928201  3.325441
H    -1.428372  -1.988793  2.385159
H    -3.322077  -2.654421  0.916107
H    -4.362583  -1.443921  1.708534
H    -4.074477  -2.696983  3.893475
H    -3.172249  -3.967906  3.015102
H    -5.767054  -3.302521  1.838082
H    -4.423857  -5.047736  4.611747
H    -5.419158  -6.445739  4.384850
H    -7.363292  -6.180157  2.978236
H    -7.185481  -5.161922  1.593634
N    -2.492224  2.218665  1.319705
C    -3.313211  3.416851  1.312170
H    -1.484354  2.295266  1.220274
H    -3.224750  3.944999  0.353593
H    -3.016329  4.097284  2.120690
H    -4.354674  3.114673  1.460005
