36
Energy: -21201.8214538 eV PBE+vdW (tier 2 basis)
C    -1.023586  1.597285  -2.308158
C    -0.480547  1.476797  -0.899883
O    0.705446  1.562997  -0.628235
H    -0.199842  1.887346  -2.964929
H    -1.828573  2.341129  -2.385207
H    -1.424103  0.634252  -2.657561
N    -1.408312  1.273647  0.122162
C    -2.826067  0.990654  -0.012514
C    -3.699204  2.255131  -0.153069
O    -4.869475  2.178485  -0.580664
H    -0.966358  1.081254  1.018664
H    -2.997698  0.427292  -0.942734
C    -3.265770  0.123163  1.193320
C    -4.750335  -0.247449  1.278412
C    -5.233772  -1.099314  0.096174
N    -6.688578  -1.250393  0.042674
C    -7.517216  -0.410484  -0.598302
N    -8.822930  -0.741668  -0.692815
N    -7.067667  0.717073  -1.139751
H    -2.992945  0.656932  2.116754
H    -2.651301  -0.790113  1.169022
H    -5.362027  0.661905  1.347262
H    -4.914298  -0.803600  2.213032
H    -4.804241  -2.108973  0.141135
H    -4.919166  -0.667502  -0.862481
H    -7.113548  -1.964859  0.623082
H    -9.133073  -1.694861  -0.558097
H    -9.503773  -0.075968  -1.032708
H    -7.676266  1.246462  -1.751737
H    -6.147770  1.156458  -0.899858
N    -3.123448  3.406364  0.214051
C    -3.771571  4.706329  0.158216
H    -2.144412  3.343143  0.485312
H    -3.757703  5.182423  1.146457
H    -4.807875  4.563550  -0.160832
H    -3.260489  5.362012  -0.558456
