36
Energy: -21201.4932193 eV PBE+vdW (tier 2 basis)
C    -0.317360  -0.693234  1.727091
C    0.178893  0.724659  1.720199
O    1.399720  0.975755  1.625981
H    -0.654528  -0.961633  2.738668
H    -1.175442  -0.854356  1.062987
H    0.508634  -1.351113  1.446234
N    -0.706233  1.756573  1.838491
C    -2.149446  1.790238  1.556569
C    -2.945342  0.701170  2.326835
O    -3.569099  -0.166492  1.724433
H    -0.250936  2.661682  1.918625
H    -2.487461  2.763242  1.947518
C    -2.479643  1.736920  0.057326
C    -1.947223  2.912820  -0.793679
C    -0.736905  2.619581  -1.696327
N    0.547740  2.482985  -1.002402
C    1.378371  3.474096  -0.644548
N    2.230171  3.260098  0.360672
N    1.332754  4.667172  -1.268276
H    -3.573236  1.701069  -0.018930
H    -2.144631  0.773342  -0.354454
H    -1.727268  3.794065  -0.169274
H    -2.749193  3.233798  -1.473454
H    -0.648555  3.403377  -2.460067
H    -0.892701  1.685273  -2.251837
H    0.740675  1.596529  -0.543147
H    3.040878  3.851087  0.494355
H    2.084831  2.417138  0.960919
H    1.929201  5.424539  -0.962367
H    0.902907  4.759334  -2.179043
N    -2.921034  0.769014  3.685950
C    -2.272420  1.747625  4.546057
H    -3.463930  0.033311  4.129624
H    -2.424826  2.771461  4.178648
H    -1.192913  1.566593  4.648595
H    -2.726554  1.689781  5.540340
