36
Energy: -21201.3083669 eV PBE+vdW (tier 2 basis)
C    1.296201  -0.444519  0.377137
C    0.784507  -0.590271  1.793557
O    1.356418  -1.268047  2.642949
H    2.360701  -0.185615  0.407629
H    0.755635  0.303806  -0.214897
H    1.214590  -1.416870  -0.126231
N    -0.379603  0.090052  2.077428
C    -1.066605  -0.067936  3.354586
C    -2.576132  -0.183239  3.056530
O    -3.274270  0.830414  2.977682
H    -0.852608  0.601203  1.339665
H    -0.661270  -0.989380  3.794530
C    -0.831283  1.093543  4.333073
C    0.647371  1.402954  4.574966
C    0.877493  2.465880  5.648267
N    0.201296  3.721904  5.285786
C    0.426173  4.915488  5.829459
N    -0.165123  6.013683  5.323326
N    1.257993  5.044014  6.874004
H    -1.325687  0.835562  5.283646
H    -1.385791  1.957644  3.927193
H    1.130443  1.721662  3.639756
H    1.177924  0.495074  4.893604
H    1.954485  2.666442  5.747297
H    0.494600  2.113502  6.621041
H    -0.584045  3.632780  4.646059
H    -0.208971  6.875316  5.851809
H    -0.704075  5.967431  4.468242
H    1.592936  5.951610  7.169835
H    1.624787  4.230620  7.350135
N    -3.066382  -1.429039  2.840602
C    -2.345623  -2.696214  2.885184
H    -4.057819  -1.447970  2.619739
H    -2.995390  -3.473674  2.471620
H    -2.080912  -2.988310  3.911531
H    -1.431801  -2.666896  2.278852
