36
Energy: -21201.3430623 eV PBE+vdW (tier 2 basis)
C    0.583375  -0.200009  2.343023
C    -0.705583  0.592319  2.324424
O    -0.872507  1.544868  3.074806
H    0.424175  -1.262145  2.568040
H    1.114411  -0.133460  1.385279
H    1.213166  0.231658  3.125054
N    -1.735631  0.284759  1.437628
C    -2.065898  -0.769427  0.483156
C    -3.288408  -1.618480  0.908987
O    -4.148491  -1.899783  0.037236
H    -2.481840  0.966851  1.561266
H    -2.447124  -0.241690  -0.405457
C    -0.895289  -1.651711  0.003793
C    -1.210299  -2.674320  -1.103930
C    -1.687189  -2.128006  -2.456888
N    -3.104321  -1.768861  -2.406185
C    -3.823855  -1.316069  -3.419653
N    -3.313726  -1.210431  -4.660598
N    -5.098928  -0.930107  -3.195875
H    -0.472341  -2.211735  0.846954
H    -0.103153  -0.976719  -0.351034
H    -1.930053  -3.429372  -0.753178
H    -0.279003  -3.224274  -1.295537
H    -1.535079  -2.911271  -3.217321
H    -1.080715  -1.252852  -2.749877
H    -3.577393  -1.829498  -1.459155
H    -3.836346  -0.778655  -5.410640
H    -2.357679  -1.475191  -4.852397
H    -5.744743  -0.801908  -3.963582
H    -5.501605  -1.082467  -2.278047
N    -3.456960  -2.052601  2.166694
C    -2.606246  -1.911371  3.346550
H    -4.325408  -2.569070  2.286272
H    -1.568413  -2.182601  3.126600
H    -2.975637  -2.607328  4.105873
H    -2.635451  -0.895495  3.757935
