36
Energy: -21201.376627 eV PBE+vdW (tier 2 basis)
C    0.978650  -0.171539  1.068615
C    0.251914  0.900114  1.828127
O    0.571349  2.104821  1.724956
H    2.040283  -0.110481  1.342207
H    0.916689  0.030909  -0.007838
H    0.613500  -1.182747  1.270955
N    -0.766734  0.569227  2.663283
C    -1.581891  -0.635520  2.824013
C    -2.235554  -1.224529  1.549970
O    -2.720651  -2.346436  1.622270
H    -1.050789  1.339547  3.261663
H    -0.982244  -1.457992  3.241045
C    -2.693708  -0.283753  3.835976
C    -3.783447  0.692546  3.348425
C    -3.384242  2.090180  2.854222
N    -2.659437  2.869315  3.887842
C    -1.896611  3.970097  3.663921
N    -1.075158  4.044524  2.619223
N    -1.972595  4.982076  4.549424
H    -2.211203  0.091436  4.752906
H    -3.190871  -1.220652  4.114617
H    -4.515036  0.806149  4.164404
H    -4.345567  0.229459  2.524289
H    -4.297146  2.639846  2.576279
H    -2.756874  2.043349  1.959889
H    -3.089057  2.838387  4.809381
H    -0.644259  4.944077  2.430619
H    -0.522677  3.208643  2.244598
H    -2.774414  5.094950  5.157273
H    -1.247070  5.687099  4.599558
N    -2.290889  -0.435752  0.442096
C    -2.863180  -0.899495  -0.814321
H    -1.814433  0.457197  0.453487
H    -3.376500  -1.845855  -0.618066
H    -2.083288  -1.069079  -1.569126
H    -3.583648  -0.169161  -1.202735
