36
Energy: -21201.9526962 eV PBE+vdW (tier 2 basis)
C    -2.487883  0.763757  0.116604
C    -1.434465  0.378294  1.125070
O    -0.290668  0.045552  0.783121
H    -2.085141  1.547445  -0.535857
H    -3.427173  1.109542  0.562757
H    -2.696785  -0.108254  -0.516900
N    -1.810210  0.419464  2.436928
C    -1.029526  -0.067497  3.580950
C    0.223761  0.757455  3.933793
O    0.483781  0.961891  5.143660
H    -2.745665  0.748532  2.644002
H    -1.688125  0.072277  4.447630
C    -0.673743  -1.582579  3.474559
C    -0.847118  -2.383723  4.772646
C    0.102074  -2.074404  5.933848
N    1.499215  -2.412034  5.616522
C    2.597493  -1.704785  5.928370
N    2.545142  -0.397082  6.164902
N    3.781310  -2.355677  5.978517
H    0.341190  -1.703746  3.071368
H    -1.343472  -2.020572  2.723341
H    -0.770470  -3.455671  4.527175
H    -1.870202  -2.249348  5.156829
H    -0.200644  -2.661759  6.814124
H    0.055548  -1.016333  6.209733
H    1.664017  -3.355441  5.278510
H    1.753287  0.202961  5.815379
H    3.353303  0.063326  6.564248
H    4.654444  -1.845468  5.982204
H    3.825893  -3.356994  6.113842
N    0.999560  1.160911  2.926820
C    2.212249  1.938087  3.119506
H    0.732078  0.824705  1.983898
H    2.379489  2.564868  2.237590
H    3.091382  1.290570  3.257013
H    2.103943  2.576961  4.002705
