36
Energy: -21201.6412642 eV PBE+vdW (tier 2 basis)
C    1.801017  -0.110742  0.702218
C    1.638611  -0.929905  1.957315
O    2.470756  -1.814318  2.248410
H    1.498169  -0.707014  -0.169836
H    2.867080  0.111596  0.582867
H    1.230600  0.824052  0.701482
N    0.590154  -0.692658  2.776505
C    -0.680243  -0.055290  2.470745
C    -1.397690  0.082820  3.830674
O    -1.134199  -0.711913  4.737070
H    0.579582  -1.176918  3.679111
H    -0.509663  0.934734  2.024913
C    -1.540153  -0.896771  1.486405
C    -2.125007  -2.209951  2.031249
C    -1.164551  -3.341500  2.409264
N    -0.493878  -3.926173  1.230462
C    0.653640  -4.635828  1.249437
N    0.789095  -5.654048  0.374580
N    1.636041  -4.342778  2.099223
H    -0.932389  -1.087874  0.589212
H    -2.380068  -0.273967  1.146428
H    -2.843710  -2.594329  1.288437
H    -2.724708  -2.005815  2.929761
H    -1.741058  -4.135868  2.909173
H    -0.404531  -3.009909  3.118929
H    -1.106476  -4.124812  0.444009
H    1.701734  -6.034508  0.157950
H    -0.015749  -6.106720  -0.039414
H    2.417453  -4.986567  2.156786
H    1.864022  -3.341922  2.347408
N    -2.344470  1.041574  3.952163
C    -2.661663  2.118659  3.021148
H    -2.789565  1.056658  4.865711
H    -3.437707  2.742335  3.474493
H    -3.057693  1.740650  2.069151
H    -1.792279  2.760340  2.821128
