36
Energy: -21201.0243457 eV PBE+vdW (tier 2 basis)
C    -0.394245  1.231572  -0.995336
C    -0.589576  1.975015  0.292317
O    0.063419  3.008903  0.556588
H    -1.031721  1.665660  -1.777722
H    -0.625370  0.164237  -0.916618
H    0.646366  1.368849  -1.306070
N    -1.483513  1.549963  1.222389
C    -2.537670  0.537270  1.312947
C    -3.108341  0.004301  -0.021078
O    -3.069396  -1.203235  -0.227101
H    -1.330026  2.030236  2.102611
H    -2.116863  -0.365164  1.779321
C    -3.680328  1.071752  2.231445
C    -3.224382  2.014064  3.363624
C    -3.136311  3.493408  2.925302
N    -2.285940  4.300140  3.805641
C    -1.249121  5.085890  3.453824
N    -0.868439  6.039294  4.332350
N    -0.602834  4.966148  2.296615
H    -4.174126  0.192430  2.662196
H    -4.447344  1.583053  1.633646
H    -2.258046  1.687881  3.783604
H    -3.935019  1.936307  4.198090
H    -4.144590  3.934492  2.913005
H    -2.744893  3.595131  1.908461
H    -2.568109  4.357017  4.779183
H    0.039166  6.480100  4.258522
H    -1.490850  6.370465  5.057911
H    0.042069  5.708839  2.048928
H    -0.485768  4.093586  1.703175
N    -3.675040  0.862047  -0.922416
C    -3.909897  2.295467  -0.861859
H    -4.065432  0.364507  -1.718835
H    -3.922022  2.695639  -1.882338
H    -3.108610  2.807557  -0.319912
H    -4.872941  2.547356  -0.389644
