36
Energy: -21202.1070905 eV PBE+vdW (tier 2 basis)
C    -0.391138  1.606111  -0.311733
C    -0.313861  1.504818  1.186418
O    0.649047  2.007308  1.815632
H    0.490453  1.113767  -0.742463
H    -0.348420  2.662404  -0.604685
H    -1.294662  1.150239  -0.729717
N    -1.318037  0.861333  1.807887
C    -1.320663  0.462691  3.208479
C    -1.880239  -0.981036  3.211438
O    -2.638368  -1.331980  2.307574
H    -2.014420  0.348463  1.259689
H    -0.285105  0.484251  3.574587
C    -2.248935  1.338762  4.087203
C    -1.941336  2.839698  4.190775
C    -0.707508  3.245082  5.009180
N    0.519384  3.061951  4.238459
C    1.675898  3.674976  4.445393
N    2.608293  3.634543  3.472307
N    1.938601  4.339184  5.587617
H    -2.277749  0.905210  5.098865
H    -3.266035  1.227219  3.683674
H    -2.808372  3.311606  4.673611
H    -1.877403  3.294106  3.190118
H    -0.666676  2.657847  5.943132
H    -0.802262  4.306526  5.288944
H    0.464635  2.545913  3.319626
H    3.583111  3.807661  3.677834
H    2.378890  3.147510  2.608176
H    2.727509  4.968433  5.653444
H    1.265450  4.357160  6.341087
N    -1.542555  -1.790230  4.244163
C    -0.591978  -1.530490  5.315614
H    -1.982203  -2.705481  4.205155
H    -0.940878  -0.746818  6.003985
H    0.397498  -1.252072  4.927060
H    -0.470966  -2.449669  5.896469
