36
Energy: -21201.36192 eV PBE+vdW (tier 2 basis)
C    0.519712  -0.551189  0.189348
C    0.339411  -0.321604  1.668624
O    1.317844  -0.147584  2.415049
H    -0.423577  -0.609520  -0.365738
H    1.072718  -1.488891  0.047474
H    1.134950  0.254009  -0.229251
N    -0.943835  -0.325482  2.125745
C    -1.263549  -0.246656  3.547144
C    -2.412521  -1.164129  4.017486
O    -2.238075  -1.831216  5.033643
H    -1.678063  -0.497459  1.450377
H    -0.393171  -0.673523  4.058540
C    -1.438328  1.203249  4.068642
C    -1.254762  1.280725  5.597641
C    -0.563493  2.540975  6.138771
N    0.662136  2.980617  5.435078
C    1.513950  2.239288  4.711256
N    2.235115  2.833860  3.741856
N    1.700827  0.930633  4.912514
H    -2.415946  1.611608  3.777626
H    -0.690942  1.817073  3.548085
H    -0.737776  0.377360  5.949748
H    -2.228143  1.234853  6.104494
H    -0.342398  2.400946  7.207136
H    -1.245806  3.398480  6.067881
H    0.803501  3.984343  5.392238
H    2.983330  2.317559  3.294714
H    1.933337  3.698898  3.313234
H    1.307298  0.510200  5.744770
H    1.740775  0.338591  4.057474
N    -3.606585  -1.170180  3.356576
C    -4.035737  -0.440378  2.174320
H    -4.269460  -1.824230  3.765025
H    -5.121245  -0.298883  2.218787
H    -3.814157  -0.978584  1.237074
H    -3.586633  0.559059  2.131351
