36
Energy: -21201.2049688 eV PBE+vdW (tier 2 basis)
C    -0.180615  -1.010752  0.028244
C    0.226580  -0.206903  1.246169
O    1.399255  0.004329  1.514272
H    -1.165513  -1.486019  0.097437
H    0.584014  -1.777792  -0.132702
H    -0.168109  -0.353732  -0.852450
N    -0.756576  0.276590  2.113430
C    -2.208111  0.394670  1.965881
C    -2.984450  -0.916067  2.257313
O    -4.221309  -0.945358  2.168836
H    -0.330985  0.834190  2.849603
H    -2.509774  1.057993  2.792325
C    -2.605423  1.094435  0.638780
C    -4.070846  1.470758  0.381622
C    -4.705303  2.513051  1.312521
N    -5.078931  2.028047  2.652596
C    -6.001289  1.099349  2.916992
N    -6.085227  0.591133  4.161757
N    -6.905852  0.737819  1.998483
H    -2.292865  0.458867  -0.198845
H    -1.981955  1.999915  0.577733
H    -4.685246  0.562745  0.349994
H    -4.112720  1.909850  -0.626893
H    -5.593257  2.957529  0.834935
H    -4.017696  3.351551  1.482366
H    -4.617778  2.443181  3.453444
H    -6.841249  -0.043409  4.387808
H    -5.237619  0.477336  4.703745
H    -7.332188  -0.179205  2.050043
H    -6.920808  1.189461  1.093605
N    -2.235714  -1.962486  2.656035
C    -2.784198  -3.263456  2.996998
H    -1.237702  -1.797772  2.750487
H    -3.849653  -3.262932  2.747844
H    -2.664586  -3.474473  4.068333
H    -2.279871  -4.052060  2.425008
