36
Energy: -21201.7475645 eV PBE+vdW (tier 2 basis)
C    1.577562  -1.081754  1.074703
C    0.742356  -0.851357  2.312370
O    1.088316  -1.216906  3.430942
H    1.800134  -2.152493  0.992980
H    1.101389  -0.741104  0.147548
H    2.536071  -0.561744  1.196285
N    -0.461589  -0.204764  2.109944
C    -1.316383  0.152558  3.229822
C    -2.743903  -0.367876  2.987777
O    -3.704398  0.408563  2.790076
H    -0.700867  0.123162  1.180775
H    -0.874411  -0.383871  4.086287
C    -1.292643  1.657291  3.521854
C    -1.997852  2.016804  4.832865
C    -2.254261  3.510695  5.031976
N    -2.902624  4.232722  3.912013
C    -4.131624  4.039135  3.398893
N    -4.785423  5.109831  2.898817
N    -4.699279  2.836187  3.363567
H    -1.749882  2.192780  2.675794
H    -0.239133  1.968333  3.561486
H    -1.385106  1.692367  5.687613
H    -2.944111  1.468965  4.927695
H    -1.301475  4.035446  5.175605
H    -2.851208  3.664914  5.943202
H    -2.478211  5.121524  3.672580
H    -5.560729  4.994150  2.258774
H    -4.553930  6.051090  3.189004
H    -5.679431  2.779646  3.111011
H    -4.155562  1.944281  3.248420
N    -2.939185  -1.698668  2.977509
C    -1.962882  -2.770377  3.134764
H    -3.896755  -1.965559  2.761504
H    -1.133482  -2.461292  3.779123
H    -1.549196  -3.082260  2.165442
H    -2.458436  -3.629065  3.599921
