36
Energy: -21201.6539183 eV PBE+vdW (tier 2 basis)
C    -1.688096  1.040104  -0.075931
C    -0.907049  0.321275  1.006421
O    0.290728  0.077364  0.879734
H    -2.777078  0.967386  0.029677
H    -1.407600  2.102149  -0.059537
H    -1.391927  0.636444  -1.049907
N    -1.656877  -0.015088  2.109712
C    -1.257707  -0.581738  3.403563
C    -0.382766  0.394006  4.214572
O    0.573696  1.010896  3.723959
H    -2.625766  0.276512  2.067978
H    -2.211420  -0.667803  3.940110
C    -0.712373  -2.036828  3.382696
C    0.632146  -2.338298  2.704771
C    1.876374  -1.952123  3.522826
N    3.081256  -1.844863  2.695866
C    3.517258  -0.713757  2.115881
N    4.648965  -0.774438  1.376153
N    2.883359  0.440128  2.270888
H    -1.486700  -2.636119  2.883371
H    -0.694529  -2.388565  4.428196
H    0.670735  -3.418510  2.499021
H    0.671982  -1.819281  1.741004
H    2.084590  -2.697273  4.302735
H    1.751428  -0.992937  4.035546
H    3.482067  -2.709535  2.348860
H    4.968890  0.034057  0.860753
H    5.309291  -1.530066  1.500410
H    1.904460  0.517143  2.602846
H    3.291770  1.285180  1.893267
N    -0.689660  0.540621  5.526616
C    -1.803108  -0.025845  6.280584
H    -0.078235  1.193693  6.009849
H    -1.796542  -1.123513  6.263431
H    -2.775386  0.336425  5.917825
H    -1.700758  0.287172  7.324039
