36
Energy: -21202.0229281 eV PBE+vdW (tier 2 basis)
C    -0.792331  4.251510  1.109980
C    -0.530562  2.872139  1.650875
O    0.634466  2.400076  1.678076
H    -1.849046  4.535731  1.146369
H    -0.445993  4.292887  0.069295
H    -0.204289  4.982080  1.679935
N    -1.588836  2.181203  2.093010
C    -1.574802  0.794255  2.526325
C    -3.053926  0.349764  2.376123
O    -3.934902  1.206171  2.278684
H    -2.545087  2.547573  2.016183
H    -0.928809  0.223024  1.841485
C    -1.071957  0.597418  3.996217
C    0.081991  -0.419072  4.181145
C    1.408788  0.184768  4.646221
N    1.909229  1.124076  3.648555
C    3.030145  1.833632  3.731690
N    3.946154  1.590659  4.687309
N    3.227765  2.822366  2.842240
H    -1.921662  0.299443  4.623343
H    -0.773469  1.585875  4.371289
H    0.264483  -0.968671  3.245803
H    -0.199564  -1.176684  4.923307
H    2.133541  -0.632774  4.794641
H    1.274449  0.695973  5.615298
H    1.275255  1.422655  2.871945
H    4.759269  2.180638  4.797686
H    3.839154  0.816189  5.327031
H    4.143114  3.226908  2.700665
H    2.493613  2.988683  2.148217
N    -3.336187  -0.973784  2.384437
C    -2.427640  -2.105675  2.466733
H    -4.332560  -1.168870  2.337147
H    -2.923835  -2.983095  2.039482
H    -2.144580  -2.344102  3.502537
H    -1.518380  -1.927968  1.879721
