36
Energy: -21200.9082995 eV PBE+vdW (tier 2 basis)
C    0.302643  0.107711  0.900031
C    0.031417  -0.749276  2.117154
O    0.894995  -1.058075  2.928604
H    -0.222659  1.071549  0.964983
H    -0.026424  -0.379970  -0.028049
H    1.377988  0.293922  0.847646
N    -1.267429  -1.200037  2.294971
C    -2.451954  -0.762288  1.583519
C    -2.925235  0.700684  1.793503
O    -3.473461  1.264513  0.843928
H    -1.382751  -1.709999  3.166972
H    -2.243593  -0.788777  0.503538
C    -3.607349  -1.745200  1.860729
C    -4.846062  -1.494076  0.994341
C    -5.975789  -2.496178  1.215761
N    -5.599912  -3.833201  0.722343
C    -6.231432  -4.973321  1.003045
N    -5.712684  -6.149975  0.609373
N    -7.379647  -4.960800  1.694869
H    -3.888184  -1.695993  2.926480
H    -3.208464  -2.758728  1.691188
H    -4.573389  -1.478861  -0.073799
H    -5.249811  -0.491822  1.188699
H    -6.880572  -2.154021  0.688693
H    -6.206880  -2.579284  2.289253
H    -4.860508  -3.868163  0.026946
H    -6.269035  -6.995216  0.605662
H    -4.771657  -6.212320  0.242776
H    -7.775237  -5.812511  2.071728
H    -7.881098  -4.097916  1.859897
N    -2.763877  1.324429  2.991957
C    -2.217705  0.850012  4.259642
H    -3.099341  2.283439  2.965889
H    -1.125211  0.745661  4.241548
H    -2.660993  -0.107072  4.564904
H    -2.477332  1.584210  5.029432
