36
Energy: -21201.8027331 eV PBE+vdW (tier 2 basis)
C    -1.644576  -0.117772  -0.041404
C    -1.274083  0.463781  1.300905
O    -0.509486  1.436860  1.392089
H    -0.727665  -0.401806  -0.572554
H    -2.132064  0.663586  -0.638562
H    -2.309173  -0.987039  0.017845
N    -1.829655  -0.131428  2.388836
C    -1.698683  0.302236  3.789416
C    -1.779327  1.852239  3.925833
O    -0.949348  2.506035  4.552804
H    -2.417115  -0.940339  2.217841
H    -2.620693  -0.067537  4.265517
C    -0.555191  -0.367225  4.588593
C    0.883783  0.159927  4.489736
C    1.629674  -0.131748  3.183199
N    2.845358  0.688508  3.056295
C    2.842431  2.015814  2.865257
N    3.974665  2.714939  3.095987
N    1.750437  2.648286  2.446260
H    -0.591181  -1.444912  4.361174
H    -0.844061  -0.280556  5.645611
H    1.456400  -0.280787  5.319304
H    0.854554  1.241224  4.663866
H    1.004533  0.049724  2.302849
H    1.956041  -1.177464  3.126465
H    3.740039  0.248476  3.233809
H    4.091618  3.648985  2.727075
H    4.755591  2.305570  3.589764
H    1.686601  3.653024  2.547387
H    0.888711  2.153709  2.156604
N    -2.890880  2.396948  3.369524
C    -3.148780  3.827773  3.376694
H    -3.508849  1.800824  2.831547
H    -4.226273  4.008139  3.458636
H    -2.773016  4.313176  2.463855
H    -2.642865  4.267795  4.241596
