36
Energy: -21201.1734091 eV PBE+vdW (tier 2 basis)
C    0.503542  1.412865  2.064721
C    0.347324  -0.092683  2.165311
O    1.298444  -0.845515  2.317274
H    -0.127092  1.946654  2.788832
H    0.241557  1.776096  1.060055
H    1.551987  1.652729  2.258494
N    -0.942620  -0.605502  2.113150
C    -2.136430  0.064514  1.623615
C    -3.382577  -0.240138  2.499234
O    -4.517299  -0.175123  2.022577
H    -0.945162  -1.624859  2.097903
H    -1.963424  1.146868  1.726454
C    -2.417390  -0.249434  0.135953
C    -3.323367  0.773096  -0.559880
C    -3.810698  0.315123  -1.935108
N    -2.738497  0.042666  -2.911697
C    -2.180693  0.936458  -3.728251
N    -1.331760  0.533697  -4.691221
N    -2.460882  2.243238  -3.614086
H    -2.877502  -1.248969  0.071212
H    -1.441980  -0.305156  -0.371722
H    -2.802513  1.743745  -0.633068
H    -4.217542  0.930815  0.058576
H    -4.500420  1.043405  -2.385045
H    -4.376606  -0.620572  -1.837884
H    -2.336464  -0.888750  -2.909794
H    -0.723520  1.190400  -5.163019
H    -1.243566  -0.443316  -4.938979
H    -2.252323  2.889140  -4.364598
H    -2.976149  2.597629  -2.819051
N    -3.109513  -0.535433  3.790133
C    -4.139750  -0.795412  4.781581
H    -2.130992  -0.589150  4.055716
H    -4.029638  -1.802500  5.204079
H    -5.112643  -0.717985  4.286526
H    -4.091075  -0.060898  5.596074
