36
Energy: -21201.6388333 eV PBE+vdW (tier 2 basis)
C    0.302843  3.623270  2.547970
C    0.409876  2.327877  3.305896
O    1.517285  1.799658  3.515825
H    -0.648463  3.731913  2.012413
H    0.371501  4.438275  3.283741
H    1.136989  3.719021  1.847025
N    -0.782087  1.764928  3.691415
C    -1.036375  1.048079  4.950042
C    -0.950925  2.094242  6.104490
O    -0.216461  3.070554  5.997891
H    -1.576906  2.343853  3.433815
H    -2.068340  0.674478  4.866014
C    -0.124348  -0.147035  5.293128
C    -0.266101  -1.417810  4.439926
C    0.278655  -1.327415  3.006223
N    1.630354  -0.779687  2.970783
C    2.774506  -1.430921  2.868831
N    3.921810  -0.720793  2.784025
N    2.850803  -2.778044  2.833099
H    -0.366028  -0.427687  6.327734
H    0.917577  0.194912  5.325875
H    -1.321947  -1.724743  4.382521
H    0.260544  -2.228344  4.967081
H    -0.343870  -0.658264  2.398211
H    0.244418  -2.308936  2.512444
H    1.669865  0.251169  3.198580
H    4.806479  -1.152006  3.019155
H    3.874765  0.290107  2.851964
H    3.677605  -3.229567  2.463513
H    2.007113  -3.333800  2.864026
N    -1.699945  1.856593  7.215036
C    -2.705217  0.824677  7.429869
H    -1.579428  2.559618  7.938435
H    -2.274088  -0.186715  7.445626
H    -3.503338  0.859303  6.674504
H    -3.169151  0.997232  8.405599
