36
Energy: -21201.3783474 eV PBE+vdW (tier 2 basis)
C    -0.443489  1.006567  0.635996
C    -0.606649  0.554399  2.063925
O    0.333263  0.544932  2.871050
H    -0.916876  1.989997  0.506599
H    -0.931769  0.334500  -0.082269
H    0.621047  1.096496  0.405297
N    -1.863528  0.166876  2.471584
C    -2.882534  -0.477111  1.639376
C    -3.757275  0.469757  0.784778
O    -4.318473  0.013323  -0.206479
H    -1.889490  -0.048012  3.465503
H    -2.392031  -1.122770  0.895168
C    -3.822194  -1.342139  2.508686
C    -3.185927  -2.333120  3.497134
C    -2.481499  -3.581070  2.943930
N    -1.341995  -3.363754  2.032249
C    -0.243297  -2.635399  2.267156
N    0.547604  -2.292232  1.236110
N    0.108692  -2.225160  3.493934
H    -4.493414  -1.869209  1.816760
H    -4.463898  -0.665058  3.093752
H    -3.996639  -2.727796  4.127791
H    -2.530220  -1.807857  4.209058
H    -3.196887  -4.174868  2.361882
H    -2.163279  -4.223812  3.779898
H    -1.392724  -3.827537  1.131789
H    1.451662  -1.870135  1.411017
H    0.240517  -2.378649  0.276263
H    0.498974  -1.272042  3.572913
H    -0.397603  -2.578391  4.295685
N    -3.857915  1.744665  1.230098
C    -4.685241  2.747493  0.576753
H    -3.331203  1.996820  2.059761
H    -5.490480  3.085898  1.241740
H    -5.126832  2.289221  -0.313640
H    -4.083253  3.614485  0.275885
