36
Energy: -21201.7318534 eV PBE+vdW (tier 2 basis)
C    -0.173501  1.552491  0.490042
C    -0.171788  0.689141  1.735051
O    0.798509  0.607265  2.469815
H    -0.483456  2.571125  0.762676
H    -0.831355  1.196049  -0.311635
H    0.854363  1.609639  0.119501
N    -1.319659  -0.047258  2.036488
C    -2.659076  0.071765  1.469167
C    -2.733514  -0.514408  0.036743
O    -3.581195  -0.135475  -0.801050
H    -1.250339  -0.479057  2.954901
H    -3.276305  -0.616294  2.070590
C    -3.302405  1.475822  1.590724
C    -4.843780  1.465928  1.759088
C    -5.592885  2.350767  0.761820
N    -5.366363  1.831090  -0.584595
C    -5.968845  2.225672  -1.692320
N    -5.748413  1.543473  -2.837568
N    -6.807879  3.279149  -1.708720
H    -3.013740  2.089199  0.726078
H    -2.847462  1.954125  2.466226
H    -5.111088  1.800202  2.769321
H    -5.236638  0.442009  1.666464
H    -5.236949  3.393001  0.836331
H    -6.670065  2.341825  0.994520
H    -4.651990  1.058862  -0.660277
H    -5.956221  1.961227  -3.734992
H    -5.081108  0.779827  -2.826919
H    -7.405744  3.456721  -2.504823
H    -7.004157  3.792916  -0.860672
N    -1.865949  -1.495895  -0.229811
C    -1.821509  -2.203824  -1.500603
H    -1.169089  -1.690508  0.484036
H    -1.170912  -3.076326  -1.393889
H    -1.427611  -1.560760  -2.299668
H    -2.826767  -2.536418  -1.783980
