36
Energy: -21201.9073833 eV PBE+vdW (tier 2 basis)
C    0.036130  1.476593  -0.405582
C    -0.076375  1.012522  1.021305
O    0.508590  -0.026529  1.400019
H    -0.478109  2.424773  -0.594549
H    -0.385724  0.702590  -1.059744
H    1.096124  1.577962  -0.668628
N    -0.819195  1.777057  1.850223
C    -1.215527  1.373898  3.186833
C    -2.731881  1.669624  3.275801
O    -3.216625  2.537056  2.550067
H    -1.418827  2.509237  1.462006
H    -1.019024  0.298437  3.276021
C    -0.497570  2.151156  4.322709
C    1.008355  2.402459  4.176443
C    1.933713  1.191377  4.008173
N    1.728246  0.140701  5.011714
C    1.395231  -1.135101  4.770465
N    1.459268  -2.015419  5.799243
N    0.971106  -1.537201  3.576095
H    -0.977939  3.135872  4.418612
H    -0.700258  1.624204  5.267142
H    1.326692  2.979985  5.058227
H    1.196047  3.057186  3.313211
H    2.979131  1.525106  4.077990
H    1.813900  0.740014  3.019102
H    1.891809  0.389345  5.982065
H    1.157337  -2.971804  5.667312
H    2.073673  -1.842433  6.584597
H    0.917203  -2.529802  3.383585
H    0.766019  -0.884883  2.773069
N    -3.471200  0.982804  4.182009
C    -3.048418  -0.053277  5.109015
H    -4.440256  1.288182  4.223929
H    -3.894306  -0.720592  5.307497
H    -2.702491  0.357885  6.069826
H    -2.246233  -0.662431  4.675266
