36
Energy: -21201.3087237 eV PBE+vdW (tier 2 basis)
C    -2.028994  0.717582  -0.799754
C    -1.710051  0.970843  0.658135
O    -0.647551  1.467511  1.030068
H    -1.383256  -0.092995  -1.163088
H    -3.074032  0.440007  -0.982448
H    -1.782164  1.612522  -1.381841
N    -2.686823  0.599091  1.550027
C    -2.482939  0.643552  2.995199
C    -3.118363  -0.628901  3.594192
O    -4.286842  -0.625911  3.979858
H    -3.546408  0.185112  1.204591
H    -1.393149  0.653773  3.139305
C    -3.085261  1.889269  3.660640
C    -2.472223  3.187261  3.134400
C    -3.043527  4.414356  3.837090
N    -2.397735  5.629359  3.313289
C    -2.788875  6.880737  3.546527
N    -3.772357  7.130173  4.423431
N    -2.212117  7.906893  2.894875
H    -2.919022  1.803544  4.746011
H    -4.175253  1.875235  3.515416
H    -2.654657  3.276634  2.053125
H    -1.378779  3.163657  3.267814
H    -2.871790  4.345524  4.924332
H    -4.128009  4.486540  3.659351
H    -1.551359  5.490130  2.769110
H    -4.203933  8.043093  4.483964
H    -4.149888  6.393493  5.004791
H    -2.328872  8.861074  3.210270
H    -1.555967  7.745489  2.141875
N    -2.338761  -1.742076  3.625910
C    -0.956329  -1.882299  3.186461
H    -2.810288  -2.560627  3.999156
H    -0.686582  -2.941601  3.239486
H    -0.257192  -1.326024  3.827348
H    -0.820033  -1.553820  2.147839
