36
Energy: -21201.3427609 eV PBE+vdW (tier 2 basis)
C    0.349772  -0.287670  0.145205
C    -0.248948  -0.901992  1.390422
O    -0.104156  -2.085144  1.686009
H    0.129649  0.780121  0.027130
H    -0.026742  -0.829950  -0.731011
H    1.437194  -0.429043  0.169624
N    -0.987516  -0.049046  2.180652
C    -1.608768  -0.509485  3.410901
C    -3.077964  -0.039355  3.473741
O    -3.445019  0.796294  4.305515
H    -1.081720  0.925076  1.915798
H    -1.564761  -1.609004  3.345500
C    -0.823544  -0.055315  4.649062
C    -1.308318  -0.724906  5.937734
C    -0.588986  -0.168709  7.161799
N    -1.144091  -0.766352  8.387470
C    -0.607387  -0.686988  9.603797
N    -1.124776  -1.396337  10.623473
N    0.464899  0.087938  9.822659
H    -0.917585  1.036570  4.745104
H    0.235371  -0.293067  4.471087
H    -1.151006  -1.813700  5.883021
H    -2.387615  -0.535561  6.044674
H    -0.713498  0.926369  7.197023
H    0.486587  -0.400192  7.117238
H    -2.059336  -1.198366  8.302108
H    -0.893620  -1.179553  11.584273
H    -1.834015  -2.099969  10.464257
H    0.999883  0.015618  10.678219
H    0.793398  0.732752  9.115923
N    -3.940877  -0.585956  2.577484
C    -3.666934  -1.531730  1.504554
H    -4.875061  -0.188807  2.629446
H    -4.577364  -2.105642  1.299715
H    -2.880909  -2.239715  1.789737
H    -3.354723  -1.027921  0.577761
