36
Energy: -21201.7321265 eV PBE+vdW (tier 2 basis)
C    -0.475481  0.196994  -0.881148
C    -0.485995  -0.404955  0.500618
O    -0.098371  -1.560747  0.724179
H    -1.033638  -0.458488  -1.560349
H    0.561423  0.226715  -1.240071
H    -0.895741  1.208204  -0.925972
N    -0.949269  0.389086  1.510170
C    -0.874695  0.003956  2.919735
C    -2.045390  -0.927276  3.332170
O    -2.829079  -0.641102  4.261565
H    -1.312247  1.310047  1.288383
H    0.041674  -0.601935  3.008738
C    -0.755216  1.282548  3.760998
C    -0.704262  1.168684  5.290677
C    0.385056  0.301564  5.919588
N    0.343147  -1.168014  5.689476
C    -0.493719  -2.039345  6.285758
N    -0.025595  -3.252928  6.636773
N    -1.764479  -1.704653  6.517665
H    -1.610269  1.934536  3.522650
H    0.145244  1.807249  3.405519
H    -1.687581  0.888459  5.679873
H    -0.515664  2.180647  5.681595
H    0.382152  0.468882  7.006587
H    1.372042  0.608343  5.549127
H    1.204906  -1.574971  5.342059
H    -0.656690  -4.023452  6.818580
H    0.964382  -3.418428  6.768371
H    -2.329918  -2.317793  7.094122
H    -2.264794  -1.145774  5.787215
N    -2.103611  -2.067718  2.628658
C    -3.152673  -3.060275  2.787117
H    -1.387995  -2.183423  1.893241
H    -3.628583  -3.264756  1.820078
H    -3.904217  -2.674271  3.482567
H    -2.746266  -4.004031  3.177032
