36
Energy: -21201.7897664 eV PBE+vdW (tier 2 basis)
C    0.476100  -0.629898  -0.980970
C    0.415205  -0.483145  0.519466
O    1.430524  -0.450337  1.224223
H    0.836779  -1.640006  -1.218384
H    -0.487330  -0.477034  -1.480479
H    1.209266  0.078658  -1.383368
N    -0.833904  -0.381298  1.067927
C    -1.105702  -0.435523  2.511152
C    -0.718821  0.860320  3.256392
O    -0.669819  0.891480  4.493888
H    -1.624083  -0.505643  0.444549
H    -2.204136  -0.412770  2.577403
C    -0.658928  -1.799493  3.142185
C    0.287874  -1.905376  4.348786
C    1.743951  -1.473788  4.160926
N    1.916824  -0.033349  4.399393
C    2.868698  0.748780  3.902540
N    3.608655  0.363405  2.848641
N    3.101525  1.941309  4.490841
H    -0.231213  -2.391784  2.322195
H    -1.578017  -2.326037  3.431037
H    0.318090  -2.975502  4.600622
H    -0.140539  -1.405890  5.227452
H    2.087172  -1.734090  3.154494
H    2.376937  -2.009280  4.884736
H    1.133222  0.426203  4.878607
H    4.420134  0.907097  2.584655
H    3.127813  -0.158250  2.110866
H    3.627022  2.665394  4.020141
H    2.764749  2.128210  5.426565
N    -0.537259  1.953675  2.487217
C    -0.297107  3.276625  3.036630
H    -0.588098  1.835342  1.481696
H    -0.628185  3.285955  4.079960
H    -0.863050  4.024850  2.470430
H    0.770362  3.540413  3.000998
