36
Energy: -21201.6472055 eV PBE+vdW (tier 2 basis)
C    -2.104223  -0.043919  -1.538663
C    -0.848133  -0.292954  -0.728868
O    0.235823  -0.481038  -1.257047
H    -3.039993  -0.295947  -1.026831
H    -2.027230  -0.625393  -2.462933
H    -2.136366  1.016869  -1.823736
N    -0.941446  -0.335025  0.664435
C    -2.028451  0.104010  1.535724
C    -3.212327  -0.891603  1.559775
O    -4.340794  -0.571569  1.983071
H    -0.018869  -0.399240  1.088209
H    -1.612022  0.040109  2.555351
C    -2.449284  1.578597  1.322867
C    -3.209989  2.217395  2.505457
C    -4.660595  2.563119  2.139677
N    -5.506329  2.862062  3.298310
C    -6.159091  1.936788  4.016727
N    -6.964505  2.343670  5.021506
N    -6.018930  0.640242  3.753711
H    -3.044256  1.665656  0.403126
H    -1.521874  2.133656  1.135982
H    -2.695037  3.129604  2.837455
H    -3.208926  1.537184  3.368925
H    -5.120820  1.732679  1.590194
H    -4.698161  3.441045  1.481973
H    -5.483140  3.804225  3.672213
H    -7.393433  1.674463  5.646216
H    -7.287689  3.300249  5.077480
H    -6.650630  -0.025590  4.180040
H    -5.317919  0.262755  3.082821
N    -2.935828  -2.133310  1.143064
C    -3.912798  -3.211489  1.149619
H    -1.995941  -2.297160  0.793205
H    -3.474660  -4.084857  0.658716
H    -4.819497  -2.911649  0.609664
H    -4.194484  -3.481505  2.176000
