36
Energy: -21201.8554324 eV PBE+vdW (tier 2 basis)
C    -0.580508  -1.269451  -0.357659
C    -0.065094  -0.788585  0.980455
O    1.145236  -0.652449  1.201993
H    -0.222914  -0.585708  -1.137366
H    -1.672380  -1.342479  -0.420054
H    -0.144908  -2.254492  -0.569455
N    -1.016256  -0.544310  1.922368
C    -0.833401  -0.018337  3.281804
C    0.651717  0.154969  3.677938
O    1.314007  -0.768893  4.182960
H    -1.984182  -0.642421  1.632765
H    -1.279981  0.987859  3.286424
C    -1.666512  -0.823693  4.312556
C    -1.220691  -2.190464  4.869062
C    -0.899653  -3.326530  3.891313
N    0.402496  -3.101493  3.269630
C    0.970262  -3.861345  2.344348
N    1.993327  -3.362371  1.630320
N    0.514598  -5.109611  2.096974
H    -2.671458  -0.929592  3.870411
H    -1.805714  -0.162408  5.180406
H    -2.048037  -2.542912  5.501168
H    -0.362960  -2.059440  5.541561
H    -1.675536  -3.418925  3.112401
H    -0.893155  -4.268540  4.464866
H    0.889835  -2.218583  3.575912
H    2.575367  -3.960807  1.060294
H    2.048713  -2.345273  1.503027
H    0.905691  -5.660377  1.344541
H    -0.025274  -5.603300  2.795817
N    1.163201  1.397275  3.584416
C    0.616507  2.540590  2.863163
H    2.135486  1.449099  3.877082
H    -0.304493  2.916891  3.328247
H    0.425859  2.301151  1.808105
H    1.354148  3.347644  2.898119
