36
Energy: -21201.0720681 eV PBE+vdW (tier 2 basis)
C    0.099257  -0.507637  0.052839
C    0.424524  -0.540922  1.532466
O    1.508591  -0.172729  1.961288
H    1.014548  -0.760806  -0.492713
H    -0.706543  -1.181545  -0.258032
H    -0.167866  0.520124  -0.229801
N    -0.520959  -1.035432  2.429268
C    -1.937900  -1.353845  2.260354
C    -2.232582  -2.707562  1.562153
O    -3.402298  -3.035996  1.341296
H    -0.172641  -0.981035  3.382653
H    -2.297373  -1.536633  3.287604
C    -2.734722  -0.149427  1.687482
C    -4.250743  -0.286712  1.481795
C    -5.065972  -0.757038  2.688869
N    -4.941942  0.088928  3.890573
C    -5.650574  1.188741  4.146018
N    -5.585288  1.769771  5.358375
N    -6.444354  1.726379  3.208797
H    -2.307698  0.129428  0.716724
H    -2.520082  0.699765  2.355458
H    -4.457830  -1.010183  0.684487
H    -4.618056  0.691247  1.125246
H    -4.751230  -1.768838  2.971584
H    -6.133309  -0.831163  2.436200
H    -4.229938  -0.161249  4.567830
H    -5.924707  2.711020  5.508369
H    -5.176327  1.290519  6.149817
H    -7.155211  2.404356  3.451091
H    -6.401728  1.409780  2.248769
N    -1.160128  -3.483065  1.298752
C    -1.263072  -4.808889  0.712361
H    -0.251485  -3.128901  1.579666
H    -0.882515  -5.571956  1.403833
H    -0.694075  -4.863336  -0.224613
H    -2.319118  -5.007277  0.505257
