36
Energy: -21201.4855544 eV PBE+vdW (tier 2 basis)
C    0.285753  0.873797  1.963185
C    -0.232934  0.014726  3.087755
O    0.504703  -0.401971  3.995774
H    1.213765  1.347348  2.296089
H    -0.430764  1.640094  1.644927
H    0.526796  0.253725  1.086555
N    -1.562780  -0.312424  3.094037
C    -2.519967  -0.328715  1.981775
C    -3.655526  0.728222  2.080423
O    -4.591342  0.664609  1.291734
H    -1.861534  -0.783826  3.948155
H    -1.973663  -0.056546  1.066951
C    -3.120992  -1.741259  1.823661
C    -2.378931  -2.741145  0.915201
C    -0.860253  -2.891262  1.049865
N    -0.420733  -3.130486  2.436130
C    0.780955  -3.607723  2.813380
N    1.368474  -4.596852  2.120654
N    1.358541  -3.087191  3.897828
H    -4.128250  -1.610546  1.407298
H    -3.266823  -2.169776  2.829551
H    -2.557293  -2.460750  -0.133670
H    -2.850004  -3.725297  1.050781
H    -0.347127  -1.991227  0.670943
H    -0.533352  -3.724012  0.415889
H    -0.803861  -2.463493  3.101120
H    0.833098  -5.173956  1.485155
H    2.321880  -4.873830  2.314517
H    2.137299  -3.547157  4.353259
H    1.104393  -2.124784  4.177530
N    -3.498347  1.686176  3.025942
C    -4.447253  2.775500  3.204289
H    -2.683936  1.639323  3.626981
H    -4.853389  2.773820  4.223699
H    -5.264090  2.628243  2.491077
H    -3.971414  3.745424  3.009574
