36
Energy: -21201.2553028 eV PBE+vdW (tier 2 basis)
C    -0.627299  -0.296042  0.054979
C    -0.505115  0.201687  1.478938
O    0.513015  0.733194  1.910640
H    -1.638034  -0.623951  -0.215668
H    0.068818  -1.133426  -0.085130
H    -0.314240  0.503089  -0.626807
N    -1.631927  0.028020  2.265546
C    -1.571837  0.227468  3.712808
C    -2.840228  -0.254040  4.430234
O    -2.783088  -0.618065  5.603882
H    -2.289072  -0.673452  1.937380
H    -0.744718  -0.366846  4.133560
C    -1.325707  1.714256  4.075475
C    -0.830512  1.863921  5.514749
C    -0.532120  3.316990  5.868014
N    -0.081339  3.402345  7.266668
C    0.581193  4.418442  7.815545
N    1.097284  4.303905  9.052864
N    0.750538  5.564847  7.140139
H    -2.252110  2.288638  3.916293
H    -0.566168  2.094566  3.381122
H    0.088888  1.271049  5.639925
H    -1.575013  1.452534  6.214989
H    -1.430807  3.941162  5.731394
H    0.266876  3.707648  5.219193
H    -0.340685  2.626592  7.869229
H    1.390723  5.118201  9.576630
H    1.123461  3.411272  9.528391
H    1.422276  6.257656  7.444023
H    0.280159  5.723083  6.258832
N    -3.997280  -0.201317  3.712499
C    -5.285609  -0.554852  4.289350
H    -3.983173  0.263130  2.810621
H    -5.908535  -1.049578  3.535693
H    -5.818395  0.328240  4.671219
H    -5.110227  -1.240266  5.124175
