36
Energy: -21201.3240776 eV PBE+vdW (tier 2 basis)
C    -0.434042  0.273467  -0.159395
C    -0.500010  1.065495  1.110822
O    0.388246  1.907642  1.373669
H    0.066453  0.875563  -0.924746
H    0.184637  -0.614370  0.035988
H    -1.397017  -0.111618  -0.500720
N    -1.499215  0.885153  2.026092
C    -2.902345  0.475806  1.885528
C    -3.080488  -1.045550  1.671941
O    -2.292815  -1.698571  0.996618
H    -1.303444  1.407724  2.875480
H    -3.344601  0.736328  2.857316
C    -3.668215  1.290007  0.814622
C    -3.528253  2.818584  0.994508
C    -2.465273  3.456080  0.083323
N    -2.165017  4.849644  0.422632
C    -1.242534  5.275427  1.301425
N    -1.239279  6.586103  1.638339
N    -0.358800  4.457486  1.865979
H    -4.727904  1.008756  0.876649
H    -3.343837  0.983011  -0.190378
H    -3.285539  3.051624  2.042671
H    -4.493452  3.303439  0.791452
H    -2.804447  3.451106  -0.960800
H    -1.524434  2.899089  0.092071
H    -2.762022  5.559982  0.015117
H    -1.909676  7.229530  1.239322
H    -0.428784  6.997996  2.082023
H    -0.161737  3.455092  1.608418
H    0.281222  4.846144  2.548490
N    -4.183743  -1.606338  2.241730
C    -5.157069  -1.005492  3.142888
H    -4.266210  -2.600751  2.049660
H    -5.702228  -0.172613  2.676098
H    -4.698330  -0.655145  4.079357
H    -5.896036  -1.768546  3.405783
