36
Energy: -21201.7114971 eV PBE+vdW (tier 2 basis)
C    -0.078662  -0.580906  -0.074285
C    -0.581171  0.178272  1.127067
O    -0.329974  1.394454  1.263408
H    1.018877  -0.562293  -0.064906
H    -0.402251  -0.067556  -0.987818
H    -0.417175  -1.622132  -0.104313
N    -1.294347  -0.532893  2.026943
C    -1.768735  -0.024263  3.298469
C    -1.912195  -1.262121  4.212869
O    -2.156199  -2.360075  3.716420
H    -1.444372  -1.536825  1.908845
H    -1.010965  0.671938  3.693386
C    -3.124347  0.725489  3.171513
C    -3.330633  1.790241  4.260446
C    -4.179601  3.010303  3.864173
N    -3.879826  3.622526  2.551971
C    -2.718815  3.584921  1.878037
N    -2.739029  3.670178  0.535055
N    -1.529086  3.475426  2.477980
H    -3.946935  -0.003236  3.173413
H    -3.135128  1.182230  2.174382
H    -2.350414  2.126414  4.631898
H    -3.827857  1.354724  5.138432
H    -4.110721  3.774159  4.652824
H    -5.235637  2.716707  3.802233
H    -4.682107  3.971115  2.038050
H    -1.864911  3.788924  0.036384
H    -3.561223  3.421752  0.000338
H    -0.870262  2.770961  2.062998
H    -1.490048  3.612170  3.479432
N    -1.816623  -1.028407  5.543412
C    -1.965387  -2.083655  6.538482
H    -1.484965  -0.121934  5.851794
H    -0.988805  -2.455610  6.877280
H    -2.513948  -2.911538  6.079787
H    -2.526282  -1.707048  7.401406
