36
Energy: -21201.8245214 eV PBE+vdW (tier 2 basis)
C    -1.588071  0.058893  -0.490147
C    -1.068821  0.149817  0.926179
O    -0.164192  -0.555359  1.356037
H    -2.449918  0.706367  -0.690954
H    -0.777309  0.331489  -1.177869
H    -1.856685  -0.982712  -0.702364
N    -1.666590  1.120137  1.721709
C    -1.360502  1.146749  3.151430
C    -2.378522  1.944110  3.958085
O    -2.656276  1.618813  5.127821
H    -2.600012  1.404306  1.440354
H    -1.411920  0.116200  3.534417
C    0.065529  1.707974  3.405520
C    0.496232  1.704795  4.876437
C    0.584184  0.289022  5.467774
N    0.662627  0.267997  6.930049
C    -0.395138  0.195948  7.751013
N    -1.639447  0.306351  7.291582
N    -0.174669  -0.008392  9.068369
H    0.113112  2.734044  3.013582
H    0.753230  1.100501  2.803185
H    1.478023  2.192713  4.959767
H    -0.197262  2.307408  5.481230
H    1.466560  -0.239018  5.084306
H    -0.282894  -0.320732  5.186396
H    1.570873  0.403150  7.360060
H    -1.898530  0.738491  6.375750
H    -2.409593  0.075424  7.907081
H    0.698234  -0.398004  9.398718
H    -0.920205  0.100724  9.742435
N    -2.918705  3.029978  3.370465
C    -3.853678  3.920761  4.046361
H    -2.555566  3.309944  2.464773
H    -3.326946  4.694368  4.622399
H    -4.471213  3.334398  4.733399
H    -4.495203  4.402658  3.301731
