36
Energy: -21201.4308838 eV PBE+vdW (tier 2 basis)
C    0.806527  -1.004851  1.610453
C    0.167663  0.069748  2.465385
O    0.750692  0.604026  3.408953
H    0.893942  -1.920694  2.210105
H    0.241223  -1.238291  0.700113
H    1.822846  -0.693830  1.343898
N    -1.116388  0.405067  2.129248
C    -1.909968  1.331289  2.910029
C    -3.355386  1.221233  2.395240
O    -3.583652  0.935070  1.217605
H    -1.596103  -0.021683  1.340174
H    -1.853231  1.042200  3.971934
C    -1.392633  2.791211  2.816468
C    -1.328458  3.324891  1.384235
C    -0.525367  4.619025  1.309435
N    -0.473512  5.102969  -0.080117
C    0.383436  6.002965  -0.559648
N    0.449384  6.241812  -1.882066
N    1.196653  6.674791  0.268284
H    -0.388793  2.786523  3.264669
H    -2.030636  3.434063  3.441540
H    -0.851893  2.570600  0.739925
H    -2.342840  3.492053  0.988065
H    0.504015  4.435496  1.653796
H    -0.975991  5.393483  1.952342
H    -1.182859  4.742870  -0.711421
H    -0.037054  5.653373  -2.545805
H    0.918019  7.061769  -2.244900
H    1.984257  7.202984  -0.084338
H    1.096344  6.598069  1.271917
N    -4.315303  1.509331  3.308204
C    -5.737150  1.485823  3.001033
H    -4.031298  1.643380  4.272145
H    -5.844840  1.322233  1.924497
H    -6.210122  2.437780  3.274193
H    -6.242116  0.670200  3.535320
