36
Energy: -21201.2166692 eV PBE+vdW (tier 2 basis)
C    0.178513  1.795752  1.223687
C    0.253650  0.510711  2.022095
O    1.233815  0.185896  2.676749
H    1.082351  2.373886  1.430565
H    -0.704281  2.395588  1.484749
H    0.135128  1.589893  0.144272
N    -0.865929  -0.311190  2.003436
C    -2.092241  -0.143552  1.244281
C    -3.221958  0.608977  1.998359
O    -4.294988  0.844032  1.433428
H    -0.727526  -1.179042  2.516673
H    -1.873763  0.477428  0.362452
C    -2.589642  -1.521916  0.750720
C    -3.649421  -1.434073  -0.351126
C    -4.217194  -2.801677  -0.717527
N    -5.297861  -2.629770  -1.701513
C    -6.047626  -3.605576  -2.211902
N    -7.105040  -3.314919  -2.989696
N    -5.756385  -4.887532  -1.947691
H    -2.990804  -2.083615  1.611017
H    -1.711857  -2.077108  0.385977
H    -3.207372  -0.971538  -1.248495
H    -4.457000  -0.771717  -0.004892
H    -4.624653  -3.297173  0.178589
H    -3.430758  -3.445202  -1.146872
H    -5.508915  -1.674965  -1.975016
H    -7.585791  -4.032407  -3.516368
H    -7.406878  -2.359542  -3.129836
H    -6.373081  -5.637986  -2.229710
H    -4.924006  -5.135202  -1.429494
N    -2.932401  0.969012  3.267510
C    -3.853348  1.704463  4.116463
H    -2.007320  0.733348  3.613488
H    -3.412050  2.658216  4.433482
H    -4.114622  1.121119  5.009234
H    -4.761268  1.902862  3.538231
