36
Energy: -21201.2005106 eV PBE+vdW (tier 2 basis)
C    0.498172  -0.816628  1.596593
C    -0.806401  -1.024195  0.855014
O    -0.953172  -1.868552  -0.016913
H    0.938922  0.162253  1.357812
H    0.368658  -0.866693  2.686503
H    1.193821  -1.597071  1.278892
N    -1.873617  -0.211526  1.215136
C    -1.886085  0.886089  2.165806
C    -2.268312  0.483917  3.616335
O    -2.256873  1.329228  4.516672
H    -2.702145  -0.370845  0.646026
H    -0.866987  1.294752  2.240543
C    -2.821588  2.006779  1.655177
C    -2.608431  3.353227  2.355303
C    -3.700080  4.363659  1.997433
N    -3.583187  5.624532  2.746976
C    -2.888343  6.699553  2.373264
N    -2.984505  7.840899  3.078738
N    -2.104204  6.672320  1.285671
H    -3.867493  1.682003  1.786286
H    -2.655925  2.110838  0.571628
H    -1.613629  3.752890  2.094992
H    -2.599992  3.187049  3.442042
H    -4.690141  3.954591  2.239515
H    -3.726476  4.604488  0.923870
H    -3.952933  5.626007  3.692624
H    -3.702419  7.964040  3.781200
H    -2.294931  8.575364  2.983571
H    -1.772805  7.527795  0.858898
H    -1.863786  5.798580  0.836871
N    -2.598664  -0.814009  3.790795
C    -2.960605  -1.377189  5.079983
H    -2.553162  -1.415292  2.973906
H    -2.901942  -0.578655  5.826281
H    -2.270086  -2.183417  5.359523
H    -3.982736  -1.777585  5.059420
