36
Energy: -21202.1071946 eV PBE+vdW (tier 2 basis)
C    -0.522745  1.659602  -0.353608
C    -0.407215  1.528452  1.139756
O    0.586563  1.991959  1.750603
H    -0.454272  2.719153  -0.629313
H    -1.451604  1.240043  -0.753696
H    0.330313  1.147528  -0.817585
N    -1.411797  0.901598  1.777402
C    -1.386799  0.475735  3.169747
C    -1.987225  -0.951441  3.161422
O    -2.778924  -1.263660  2.272237
H    -2.137130  0.418600  1.239647
H    -0.341251  0.460838  3.506657
C    -2.264498  1.360277  4.090887
C    -1.909866  2.849217  4.215056
C    -0.642193  3.201494  5.005818
N    0.556613  2.999151  4.196708
C    1.737094  3.570911  4.385277
N    2.641336  3.524228  3.386151
N    2.051375  4.199797  5.534452
H    -2.278405  0.907424  5.094354
H    -3.295097  1.286437  3.713825
H    -2.748727  3.336207  4.731498
H    -1.860307  3.321921  3.222101
H    -0.592614  2.593729  5.926110
H    -0.697662  4.259095  5.309626
H    0.460723  2.505470  3.268861
H    3.626377  3.661646  3.568741
H    2.373913  3.063520  2.518565
H    2.860990  4.803000  5.592210
H    1.398786  4.222603  6.305660
N    -1.645263  -1.789530  4.169400
C    -0.661431  -1.576547  5.220910
H    -2.112687  -2.690718  4.126123
H    0.323120  -1.309538  4.812468
H    -0.544812  -2.512283  5.775654
H    -0.974679  -0.802921  5.937273
