36
Energy: -21201.3344906 eV PBE+vdW (tier 2 basis)
C    0.043895  -2.028063  0.172200
C    -0.353117  -1.856424  1.614475
O    0.419816  -2.162384  2.540486
H    -0.151739  -1.137223  -0.438101
H    -0.538457  -2.842833  -0.280847
H    1.103001  -2.295024  0.133261
N    -1.606656  -1.392450  1.916824
C    -2.500730  -0.521724  1.133378
C    -2.791441  -1.062412  -0.290460
O    -2.407179  -0.451666  -1.285007
H    -1.790390  -1.431098  2.916366
H    -3.455726  -0.529166  1.682164
C    -1.977769  0.924312  1.060178
C    -1.840783  1.584309  2.441281
C    -0.726468  2.636755  2.555499
N    0.607905  2.175712  2.122131
C    1.193160  1.015781  2.456106
N    2.132270  0.494583  1.647934
N    0.888753  0.357692  3.580481
H    -1.014310  0.902906  0.531663
H    -2.645268  1.508422  0.414147
H    -1.689116  0.817766  3.214016
H    -2.776250  2.091457  2.717624
H    -0.672647  3.026640  3.583279
H    -0.950915  3.497412  1.913633
H    1.065707  2.719558  1.399258
H    2.189962  0.755156  0.671986
H    2.660816  -0.314314  1.953700
H    0.854042  -0.677253  3.530445
H    0.320707  0.815732  4.281114
N    -3.487283  -2.226628  -0.372602
C    -4.045809  -3.032957  0.704662
H    -3.658959  -2.524215  -1.328912
H    -4.653770  -2.428787  1.392641
H    -3.268183  -3.551928  1.281418
H    -4.705269  -3.786127  0.263122
