36
Energy: -21201.5819669 eV PBE+vdW (tier 2 basis)
C    0.154153  -0.166050  -0.114374
C    0.200951  -0.219260  1.403741
O    1.121956  -0.778234  1.998035
H    1.177777  -0.142100  -0.501674
H    -0.419042  0.682147  -0.511142
H    -0.312195  -1.089571  -0.485310
N    -0.855506  0.415872  2.008674
C    -1.316776  0.370233  3.396118
C    -2.128414  1.654358  3.635326
O    -1.924434  2.681471  2.958372
H    -1.522223  0.843916  1.375245
H    -1.997679  -0.492335  3.493723
C    -0.213241  0.169015  4.474149
C    0.421409  1.380191  5.179743
C    0.985688  2.543827  4.351322
N    1.727810  2.139412  3.154928
C    1.555395  2.641574  1.927474
N    2.523631  2.460070  1.006275
N    0.458306  3.335190  1.610450
H    0.559067  -0.449357  4.004697
H    -0.652396  -0.452433  5.265632
H    1.224042  0.973422  5.813129
H    -0.293312  1.836680  5.882174
H    1.657963  3.135892  4.990962
H    0.185038  3.214641  4.033442
H    2.409847  1.392412  3.248389
H    2.306296  2.499822  0.019178
H    3.422146  2.075048  1.267852
H    0.441624  3.875929  0.755501
H    -0.440506  3.145977  2.097939
N    -3.056773  1.647983  4.610848
C    -3.428678  0.565798  5.514541
H    -3.517082  2.546269  4.737265
H    -4.436357  0.761018  5.894191
H    -2.744050  0.491052  6.371150
H    -3.450700  -0.397124  4.991535
