36
Energy: -21201.6040835 eV PBE+vdW (tier 2 basis)
C    0.701455  -2.035358  1.212454
C    0.185738  -1.000480  2.190024
O    0.880907  -0.507307  3.071091
H    -0.012828  -2.289030  0.419014
H    0.949504  -2.949456  1.767222
H    1.632452  -1.669576  0.763633
N    -1.129801  -0.623325  2.017009
C    -1.784551  0.197120  3.025090
C    -3.291079  0.025101  2.855777
O    -3.787659  -0.307119  1.756137
H    -1.737090  -1.197943  1.442033
H    -1.481629  -0.184249  4.012773
C    -1.322633  1.691666  2.979387
C    -2.226110  2.772343  2.365426
C    -2.715440  2.610699  0.918939
N    -1.676717  2.183318  -0.024661
C    -1.769908  1.160055  -0.883548
N    -0.905555  1.101325  -1.918360
N    -2.694552  0.211024  -0.734991
H    -0.345143  1.682909  2.482222
H    -1.106789  2.006271  4.008784
H    -1.673211  3.720885  2.447432
H    -3.131384  2.917929  2.975093
H    -3.119226  3.573148  0.570216
H    -3.533139  1.889081  0.859863
H    -0.841560  2.756584  -0.089272
H    -0.390251  1.916734  -2.222688
H    -0.780959  0.246474  -2.443886
H    -2.884269  -0.423451  -1.500113
H    -3.145942  0.025333  0.187774
N    -4.078955  0.263333  3.918125
C    -3.678597  0.634148  5.271732
H    -5.072407  0.160991  3.726146
H    -4.538967  0.498502  5.933420
H    -3.359531  1.683663  5.333153
H    -2.867870  -0.007372  5.637274
