36
Energy: -21201.3771576 eV PBE+vdW (tier 2 basis)
C    0.292965  -0.481894  0.884431
C    -0.448122  0.357728  1.905946
O    -0.345604  1.579912  1.955270
H    0.067717  -0.095804  -0.117075
H    1.371982  -0.356417  1.040482
H    0.051797  -1.551080  0.919295
N    -1.254181  -0.349870  2.774513
C    -2.012479  0.223046  3.883702
C    -3.357569  0.908845  3.509925
O    -3.994274  1.481841  4.394293
H    -1.263684  -1.358561  2.683610
H    -2.313321  -0.633141  4.508730
C    -1.214470  1.200632  4.764735
C    -0.018973  0.573341  5.478286
C    0.817326  1.606926  6.233687
N    -0.021362  2.328035  7.203984
C    0.416179  3.109465  8.188102
N    1.723307  3.384558  8.311529
N    -0.448984  3.613328  9.087497
H    -1.968598  1.583671  5.471126
H    -0.884843  2.041765  4.140478
H    0.652468  0.096983  4.749361
H    -0.342600  -0.217978  6.173341
H    1.250447  2.325155  5.517344
H    1.634917  1.112231  6.778357
H    -1.019905  2.325589  7.010415
H    2.092958  3.814870  9.149100
H    2.377792  3.141684  7.579801
H    -0.194268  4.394348  9.678111
H    -1.420138  3.328587  9.090267
N    -3.760136  0.782162  2.228338
C    -4.989048  1.371806  1.724944
H    -3.120148  0.342150  1.577680
H    -4.777830  2.225735  1.066634
H    -5.572043  1.721106  2.582683
H    -5.572275  0.627248  1.169080
