36
Energy: -21201.2445056 eV PBE+vdW (tier 2 basis)
C    0.003454  0.038355  0.583862
C    -0.373711  -0.551732  1.917432
O    0.383634  -1.345003  2.508636
H    -0.540508  -0.504885  -0.201639
H    -0.266795  1.096459  0.476584
H    1.077567  -0.093588  0.428611
N    -1.573642  -0.228960  2.480510
C    -2.472473  0.891478  2.202860
C    -2.945135  0.870247  0.717219
O    -3.092169  -0.202486  0.147314
H    -1.815741  -0.833794  3.259107
H    -3.394821  0.663792  2.761412
C    -1.886847  2.207189  2.775509
C    -1.674701  2.127927  4.301360
C    -0.467560  2.897602  4.858755
N    0.828047  2.574120  4.231745
C    1.328071  1.348695  4.000953
N    2.290290  1.200970  3.073473
N    0.921404  0.263932  4.667324
H    -2.554525  3.054041  2.562454
H    -0.936397  2.421198  2.263947
H    -2.558736  2.516516  4.826248
H    -1.599678  1.074923  4.600968
H    -0.404680  2.754645  5.948607
H    -0.597189  3.975540  4.701092
H    1.378589  3.355263  3.893519
H    2.408754  1.877193  2.330322
H    2.718079  0.289989  2.948830
H    0.827151  -0.613373  4.116659
H    0.331207  0.375989  5.481226
N    -3.206923  2.075983  0.146296
C    -3.772523  2.195313  -1.191374
H    -3.101525  2.919846  0.694330
H    -3.744351  1.205964  -1.657370
H    -3.185229  2.898960  -1.793944
H    -4.814813  2.539219  -1.151738
