36
Energy: -21201.8906912 eV PBE+vdW (tier 2 basis)
C    1.734313  0.134708  0.558767
C    1.277473  0.162246  1.994783
O    2.107955  0.266187  2.918095
H    1.905695  1.174639  0.245005
H    1.002926  -0.311413  -0.125269
H    2.684538  -0.403010  0.482676
N    -0.066355  0.042430  2.182711
C    -0.884232  0.513588  3.306265
C    -1.089767  2.050507  3.152399
O    -0.200354  2.755715  2.691094
H    -0.589250  -0.007299  1.313996
H    -1.851529  -0.002458  3.194333
C    -0.331325  0.217741  4.711190
C    -0.050564  -1.270478  4.995985
C    1.136072  -1.471863  5.942620
N    2.323375  -0.935479  5.281578
C    3.525275  -0.755764  5.804159
N    4.427755  -0.032765  5.109237
N    3.860688  -1.260874  7.006169
H    -1.065584  0.600378  5.433964
H    0.571684  0.824196  4.852927
H    0.166649  -1.804306  4.058601
H    -0.934417  -1.757044  5.428179
H    1.264543  -2.544748  6.158137
H    0.964268  -0.948470  6.898933
H    2.167917  -0.502454  4.336975
H    5.416273  -0.103448  5.310575
H    4.157612  0.322180  4.195404
H    4.721400  -0.994944  7.464829
H    3.205558  -1.822270  7.532144
N    -2.289874  2.507841  3.594489
C    -2.645320  3.919645  3.599461
H    -2.978988  1.837733  3.916140
H    -3.522867  4.103866  2.966494
H    -1.793595  4.478963  3.200715
H    -2.859284  4.266591  4.618751
