36
Energy: -21201.064307 eV PBE+vdW (tier 2 basis)
C    -0.426116  -1.690118  -0.227533
C    -0.074523  -1.042228  1.095051
O    1.078141  -0.779604  1.409525
H    -0.559245  -0.909767  -0.989977
H    0.424748  -2.305720  -0.534563
H    -1.333172  -2.304727  -0.201308
N    -1.103276  -0.751747  1.986363
C    -2.548570  -0.750248  1.777369
C    -3.190687  -2.164106  1.677309
O    -4.289331  -2.306089  1.139849
H    -0.750554  -0.285128  2.817589
H    -2.958495  -0.345337  2.717924
C    -3.020599  0.148640  0.607402
C    -4.438441  0.718463  0.761521
C    -4.585016  1.824866  1.809946
N    -3.845223  3.061845  1.495474
C    -4.295440  4.065507  0.740242
N    -3.599274  5.213863  0.662286
N    -5.449019  3.955639  0.066417
H    -2.994726  -0.430202  -0.323537
H    -2.286864  0.961244  0.486748
H    -5.122957  -0.100524  1.022553
H    -4.773132  1.091991  -0.220270
H    -4.217746  1.497020  2.791331
H    -5.639758  2.093720  1.962780
H    -2.882229  3.123408  1.807593
H    -3.783351  5.890788  -0.066983
H    -2.844734  5.416262  1.305326
H    -5.907217  4.769763  -0.322405
H    -5.903186  3.059167  -0.050785
N    -2.485026  -3.157848  2.262048
C    -2.945045  -4.535633  2.309604
H    -1.569732  -2.922213  2.631786
H    -3.947083  -4.572959  1.871186
H    -2.990344  -4.893249  3.346180
H    -2.278106  -5.192843  1.735804
