36
Energy: -21201.2458572 eV PBE+vdW (tier 2 basis)
C    -1.147520  -0.166243  0.155542
C    -0.965792  0.352551  1.565877
O    -0.086629  1.184848  1.836571
H    -1.896386  -0.960847  0.060794
H    -1.440700  0.672166  -0.490360
H    -0.185137  -0.539222  -0.214697
N    -1.843729  -0.139267  2.480602
C    -1.977847  0.109843  3.923125
C    -3.139953  1.027726  4.390084
O    -3.539895  0.853482  5.539041
H    -2.513117  -0.809541  2.118723
H    -2.291320  -0.859762  4.332948
C    -0.680712  0.484560  4.680260
C    -0.392510  1.983918  4.799433
C    0.970805  2.298446  5.423668
N    2.118749  1.698009  4.711439
C    2.406230  1.862806  3.417851
N    3.192676  0.975337  2.789056
N    1.972213  2.931662  2.725228
H    0.153429  -0.040511  4.196551
H    -0.785311  0.065388  5.690789
H    -1.146933  2.458437  5.443696
H    -0.474429  2.451824  3.810499
H    1.028347  1.902238  6.445181
H    1.120985  3.385155  5.513574
H    2.676214  1.021764  5.221232
H    3.580743  1.195463  1.880629
H    3.333776  0.042105  3.152312
H    1.598561  2.734375  1.797807
H    1.454085  3.637657  3.234522
N    -3.686413  1.981860  3.586408
C    -3.312251  2.474842  2.267435
H    -4.458136  2.453883  4.050489
H    -3.666156  1.822108  1.456658
H    -2.227891  2.605713  2.171801
H    -3.776319  3.457614  2.132393
