36
Energy: -21201.0834748 eV PBE+vdW (tier 2 basis)
C    0.145483  -0.331437  0.396919
C    0.047024  -0.178949  1.899613
O    1.034071  -0.021954  2.608353
H    1.107356  -0.802322  0.171691
H    0.151875  0.662183  -0.073747
H    -0.665616  -0.919008  -0.047186
N    -1.209735  -0.236876  2.490443
C    -2.539508  -0.122192  1.893146
C    -3.048765  -1.384848  1.141661
O    -3.985489  -1.287213  0.353527
H    -1.143346  -0.132182  3.499309
H    -3.223734  -0.046579  2.754023
C    -2.752988  1.120931  0.998915
C    -2.195422  2.431672  1.561684
C    -2.851028  2.872419  2.874611
N    -2.338587  4.157327  3.374611
C    -2.818572  5.364247  3.067615
N    -2.355582  6.452948  3.706931
N    -3.775011  5.511796  2.139780
H    -3.830806  1.200405  0.803229
H    -2.298155  0.947792  0.015478
H    -2.325327  3.219110  0.801977
H    -1.110190  2.349685  1.726107
H    -2.664551  2.143388  3.673201
H    -3.944775  2.948693  2.782869
H    -1.473610  4.130292  3.905421
H    -2.514448  7.383191  3.341518
H    -1.784808  6.370854  4.538552
H    -4.302976  6.371976  2.066151
H    -4.027312  4.752927  1.520477
N    -2.426355  -2.542361  1.468611
C    -2.807809  -3.828518  0.909602
H    -1.653834  -2.490448  2.123892
H    -3.131365  -4.518405  1.700004
H    -1.970818  -4.281792  0.362372
H    -3.639848  -3.660938  0.218474
