36
Energy: -21201.2944446 eV PBE+vdW (tier 2 basis)
C    0.688197  0.608018  0.652311
C    0.384847  0.134008  2.052993
O    1.276973  0.061894  2.908196
H    0.669503  1.707368  0.662278
H    -0.034377  0.259624  -0.095377
H    1.695211  0.289255  0.366815
N    -0.928037  -0.208685  2.270464
C    -1.630979  -0.240811  3.556074
C    -1.370926  1.098668  4.322658
O    -0.897003  2.069832  3.749843
H    -1.530114  -0.013051  1.479048
H    -2.698803  -0.204181  3.290252
C    -1.425591  -1.546832  4.360725
C    0.042165  -1.748662  4.713013
C    0.387475  -2.856465  5.687682
N    1.845115  -3.122156  5.742174
C    2.910231  -2.322815  5.542646
N    4.087698  -2.732638  6.070636
N    2.898915  -1.181862  4.852649
H    -1.800662  -2.387174  3.758670
H    -2.056320  -1.522035  5.263307
H    0.414896  -0.797283  5.110029
H    0.568689  -1.945916  3.771997
H    -0.074770  -3.807498  5.387987
H    0.034279  -2.621864  6.704513
H    2.086118  -4.038925  6.103582
H    4.966361  -2.369217  5.725569
H    4.124043  -3.412932  6.817632
H    3.715881  -0.585299  4.904102
H    2.161929  -0.865300  4.199631
N    -1.749137  1.117276  5.631313
C    -1.717792  2.348815  6.410355
H    -2.267054  0.333012  6.007227
H    -2.599443  2.977261  6.218846
H    -0.826035  2.920176  6.133887
H    -1.677281  2.101832  7.476511
