36
Energy: -21201.5127984 eV PBE+vdW (tier 2 basis)
C    -0.678248  0.431393  -0.133503
C    -0.460702  0.427750  1.360780
O    0.675348  0.596194  1.847508
H    -0.171738  -0.445555  -0.558499
H    -1.734383  0.401765  -0.422798
H    -0.204721  1.320046  -0.567036
N    -1.572021  0.234121  2.112145
C    -1.617389  -0.053105  3.539163
C    -2.906827  -0.881725  3.739443
O    -3.802251  -0.821039  2.895114
H    -2.472291  0.041253  1.662651
H    -0.721407  -0.637430  3.800819
C    -1.649750  1.221033  4.424388
C    -0.399590  2.039859  4.125785
C    -0.125406  3.268692  4.969417
N    0.963970  4.101571  4.404346
C    2.073511  3.776707  3.714391
N    3.079230  4.682895  3.714909
N    2.249757  2.650782  3.019913
H    -1.687220  0.924234  5.482847
H    -2.566796  1.789304  4.209619
H    -0.467339  2.360636  3.078173
H    0.452552  1.355086  4.208468
H    0.135813  2.997933  6.004446
H    -1.005027  3.925716  5.010891
H    0.932418  5.074776  4.689150
H    3.795239  4.665629  3.000517
H    3.139794  5.404867  4.420210
H    3.180585  2.446166  2.676543
H    1.513931  1.993864  2.705967
N    -3.021472  -1.632677  4.861614
C    -2.059493  -1.840904  5.932013
H    -3.921782  -2.098654  4.939014
H    -2.179814  -1.114930  6.750435
H    -1.032459  -1.780958  5.554569
H    -2.197658  -2.846485  6.344304
