36
Energy: -21200.9797412 eV PBE+vdW (tier 2 basis)
C    -1.795981  0.722702  0.364646
C    -1.381885  1.145931  1.756469
O    -0.992793  2.281140  2.009760
H    -0.983698  0.146388  -0.101281
H    -2.689249  0.088003  0.336251
H    -1.960460  1.626431  -0.227825
N    -1.396917  0.201248  2.770112
C    -1.965654  -1.143042  2.814566
C    -1.484077  -2.070481  1.665833
O    -2.292116  -2.612493  0.914843
H    -1.027829  0.580239  3.637467
H    -1.582549  -1.583789  3.749831
C    -3.505034  -1.167866  2.869599
C    -4.083080  -0.234191  3.933647
C    -5.608553  -0.226192  3.886663
N    -6.148166  0.750043  4.847449
C    -7.406528  1.188845  4.881498
N    -8.344380  0.614743  4.114761
N    -7.745078  2.216935  5.679295
H    -3.825158  -2.205020  3.042577
H    -3.898070  -0.900976  1.878497
H    -3.715077  0.789798  3.766115
H    -3.749246  -0.543301  4.938942
H    -6.002948  -1.229698  4.116821
H    -5.945995  0.056413  2.877478
H    -5.509898  1.096471  5.556760
H    -9.252615  1.041870  3.986784
H    -8.155848  -0.243524  3.613475
H    -8.713435  2.433171  5.877272
H    -7.040505  2.789714  6.125572
N    -0.142825  -2.260788  1.542968
C    0.942216  -1.735340  2.358962
H    0.100826  -2.867870  0.765782
H    0.702525  -1.790518  3.429098
H    1.190258  -0.694390  2.109447
H    1.829630  -2.354855  2.192280
