36
Energy: -21202.1073157 eV PBE+vdW (tier 2 basis)
C    -1.143615  4.113281  1.088896
C    -0.753151  2.810774  1.730483
O    0.406952  2.350624  1.596332
H    -2.173499  4.412285  1.309865
H    -1.023829  4.018510  0.001781
H    -0.457057  4.900668  1.423605
N    -1.696784  2.176403  2.448721
C    -1.593661  0.814359  2.953620
C    -2.970591  0.172570  2.653906
O    -3.964643  0.894425  2.578273
H    -2.665672  2.507014  2.426465
H    -0.792354  0.302809  2.403071
C    -1.357819  0.750847  4.483844
C    -0.081239  1.393113  5.045912
C    1.245059  0.672183  4.767106
N    1.721335  0.948192  3.414373
C    2.973624  0.861176  2.989497
N    3.925622  0.221890  3.696439
N    3.296852  1.442336  1.816547
H    -1.399928  -0.303903  4.796845
H    -2.221324  1.239565  4.958518
H    -0.195803  1.430012  6.138201
H    0.001742  2.442085  4.722451
H    1.120732  -0.414436  4.917151
H    1.996778  1.022926  5.492174
H    1.072626  1.439209  2.742442
H    4.904993  0.336998  3.472323
H    3.698703  -0.246787  4.562465
H    4.122358  1.159554  1.305603
H    2.566989  1.941129  1.311497
N    -3.029066  -1.175256  2.530747
C    -1.925180  -2.123900  2.505991
H    -3.969314  -1.530190  2.380799
H    -1.418014  -2.201249  3.478840
H    -1.184650  -1.871207  1.734389
H    -2.328171  -3.112010  2.264830
