36
Energy: -21201.372599 eV PBE+vdW (tier 2 basis)
C    0.203623  1.928991  1.751381
C    -0.117302  0.924705  2.835056
O    0.661358  0.719272  3.778437
H    1.179420  1.678296  1.317872
H    0.299936  2.921207  2.210530
H    -0.542140  1.978394  0.949801
N    -1.314719  0.286514  2.714785
C    -1.909345  -0.742578  3.581891
C    -2.255198  -0.363645  5.046366
O    -3.151013  -0.996899  5.604163
H    -1.898104  0.578212  1.939558
H    -2.898799  -0.919463  3.142851
C    -1.185321  -2.112445  3.551319
C    0.021545  -2.242921  4.485634
C    0.610014  -3.649681  4.448613
N    1.795834  -3.709327  5.318099
C    2.369187  -4.816580  5.785028
N    3.343547  -4.739252  6.709802
N    1.976575  -6.022324  5.348075
H    -0.892322  -2.319814  2.511187
H    -1.939190  -2.862627  3.832301
H    -0.288370  -2.018233  5.517591
H    0.787842  -1.503234  4.211918
H    0.894781  -3.922923  3.418680
H    -0.127314  -4.381963  4.812988
H    2.238011  -2.820215  5.532850
H    3.946521  -5.527998  6.904299
H    3.559614  -3.864682  7.170172
H    2.244349  -6.868695  5.833351
H    1.332742  -6.109873  4.572941
N    -1.537427  0.624345  5.627207
C    -1.785038  1.032044  7.000290
H    -0.676342  0.917137  5.160219
H    -1.441979  2.062959  7.138303
H    -1.267992  0.384169  7.725313
H    -2.859053  0.974657  7.205470
