36
Energy: -21201.0543907 eV PBE+vdW (tier 2 basis)
C    0.125032  -0.391671  -0.142919
C    0.284753  -0.348899  1.363933
O    1.357191  -0.595590  1.912180
H    -0.892804  -0.188415  -0.496544
H    0.809876  0.341409  -0.587716
H    0.436317  -1.380897  -0.499545
N    -0.850354  0.004569  2.054053
C    -1.061167  0.078659  3.498899
C    -1.120409  1.499305  4.122646
O    -1.973865  1.696325  4.994524
H    -1.669232  0.213816  1.494978
H    -2.091493  -0.270530  3.662295
C    -0.138690  -0.843602  4.326217
C    -0.632182  -0.996260  5.769000
C    0.335760  -1.845457  6.596125
N    -0.041573  -1.943640  8.015780
C    -0.872365  -2.843451  8.542827
N    -1.013963  -2.929354  9.878171
N    -1.557748  -3.689573  7.760548
H    0.891054  -0.466086  4.312170
H    -0.102871  -1.825010  3.830672
H    -0.745668  -0.010109  6.241944
H    -1.642851  -1.439024  5.778969
H    1.342287  -1.407621  6.575290
H    0.442108  -2.866317  6.199772
H    0.256911  -1.187021  8.622938
H    -1.809673  -3.398716  10.291011
H    -0.377927  -2.452549  10.504205
H    -1.999342  -4.515047  8.144140
H    -1.632073  -3.533612  6.763904
N    -0.248611  2.473111  3.757719
C    0.861242  2.462999  2.813460
H    -0.446504  3.350992  4.230691
H    1.574898  3.237161  3.116240
H    0.532437  2.682526  1.786781
H    1.384910  1.501216  2.813794
