36
Energy: -21201.3316682 eV PBE+vdW (tier 2 basis)
C    0.522925  -1.163979  1.755157
C    -0.459409  -0.168962  2.332357
O    -0.628241  0.949312  1.831146
H    0.156414  -1.485203  0.771121
H    1.482674  -0.660239  1.591423
H    0.679985  -2.051323  2.379595
N    -1.153039  -0.587078  3.433413
C    -2.196648  0.162826  4.141881
C    -3.570566  0.277010  3.421310
O    -4.594263  0.065623  4.068645
H    -1.041871  -1.556461  3.706131
H    -2.433186  -0.435991  5.030994
C    -1.752632  1.565017  4.603526
C    -0.533542  1.557609  5.526980
C    -0.124562  2.988166  5.889057
N    1.025086  3.071453  6.803728
C    0.962045  3.073187  8.136268
N    -0.193992  2.834254  8.772077
N    2.065847  3.328345  8.861653
H    -2.616732  2.009241  5.121216
H    -1.543813  2.186003  3.722362
H    0.312887  1.056293  5.034088
H    -0.748492  0.975583  6.439647
H    -0.957652  3.548009  6.339726
H    0.156711  3.541995  4.984040
H    1.950474  3.042768  6.388113
H    -0.310149  3.066766  9.750054
H    -0.999996  2.476338  8.276485
H    2.105880  3.114068  9.849758
H    2.894608  3.723216  8.436153
N    -3.527374  0.650246  2.120837
C    -4.727464  0.830200  1.321234
H    -2.615302  0.889046  1.726377
H    -5.581112  0.455537  1.894478
H    -4.648714  0.271823  0.379840
H    -4.895782  1.891304  1.089127
