36
Energy: -21201.532714 eV PBE+vdW (tier 2 basis)
C    -0.469608  0.342292  0.472589
C    -0.240905  0.383254  1.971111
O    0.656346  1.056479  2.457780
H    -0.149007  1.305575  0.064898
H    -1.495778  0.132411  0.153770
H    0.179744  -0.431670  0.038750
N    -1.007649  -0.412801  2.812602
C    -2.234638  -1.178894  2.616824
C    -2.266925  -1.959759  1.290343
O    -3.184327  -1.818991  0.450695
H    -0.713304  -0.297404  3.780257
H    -2.201722  -1.975220  3.381882
C    -3.523612  -0.380231  2.916974
C    -3.714082  0.960036  2.167814
C    -5.050631  1.075978  1.433060
N    -5.121171  0.026631  0.418411
C    -6.119944  -0.188751  -0.420818
N    -7.158975  0.661182  -0.517159
N    -6.101269  -1.298622  -1.190538
H    -3.514846  -0.183440  3.997112
H    -4.380692  -1.050185  2.751109
H    -2.908114  1.126941  1.441546
H    -3.647363  1.797296  2.872625
H    -5.119753  2.069167  0.960343
H    -5.891044  0.975797  2.141545
H    -4.341776  -0.680467  0.436431
H    -7.977769  0.430363  -1.063376
H    -7.203240  1.489817  0.059689
H    -6.687419  -1.369435  -2.011700
H    -5.289627  -1.905311  -1.148514
N    -1.291758  -2.858432  1.069998
C    -0.161618  -3.219121  1.919236
H    -1.373206  -3.332381  0.174177
H    -0.461910  -3.280975  2.971584
H    0.664389  -2.501503  1.832309
H    0.193035  -4.207918  1.612152
