36
Energy: -21202.1937966 eV PBE+vdW (tier 2 basis)
C    0.366038  1.052219  0.193156
C    0.125781  0.614144  1.611350
O    1.086982  0.410811  2.392396
H    0.965481  1.970922  0.195808
H    -0.557958  1.223788  -0.368707
H    0.957026  0.280337  -0.316859
N    -1.154095  0.458651  1.994224
C    -1.593734  -0.173276  3.230468
C    -2.771335  -1.091549  2.808484
O    -3.426688  -0.811039  1.805605
H    -1.903515  0.495366  1.296792
H    -0.760980  -0.772778  3.627023
C    -2.113870  0.838096  4.282514
C    -1.153125  1.927178  4.782726
C    -0.029485  1.487708  5.731420
N    1.067558  0.862979  4.997339
C    2.320572  0.741891  5.411529
N    3.269670  0.426720  4.507103
N    2.669421  0.933605  6.698486
H    -2.496076  0.266952  5.143235
H    -2.988531  1.337248  3.839921
H    -1.759036  2.660046  5.333483
H    -0.718039  2.481200  3.936744
H    -0.429979  0.793015  6.490249
H    0.351051  2.374854  6.262718
H    0.929851  0.646347  3.973684
H    4.153689  0.030450  4.796882
H    2.986808  0.310425  3.536069
H    3.639344  1.039114  6.964381
H    1.970165  1.140451  7.398037
N    -3.023161  -2.140876  3.622717
C    -4.131417  -3.062933  3.411020
H    -2.394710  -2.313112  4.398894
H    -4.692458  -2.718295  2.537546
H    -4.795966  -3.077753  4.284115
H    -3.762276  -4.078908  3.221448
