36
Energy: -21201.4272301 eV PBE+vdW (tier 2 basis)
C    0.976519  0.151875  0.544055
C    0.308914  1.186807  1.397024
O    0.761751  2.347741  1.497493
H    2.050933  0.185851  0.763707
H    0.841022  0.405738  -0.514000
H    0.602716  -0.862025  0.718355
N    -0.781183  0.869336  2.161755
C    -1.950319  0.020263  1.927926
C    -2.103197  -0.428472  0.461569
O    -1.835275  0.325487  -0.475837
H    -0.988005  1.622109  2.812608
H    -1.895186  -0.862076  2.582028
C    -3.188879  0.848772  2.366526
C    -3.694092  2.001248  1.465217
C    -2.711716  2.982852  0.787103
N    -1.690856  3.626140  1.620696
C    -1.807146  4.762428  2.291529
N    -0.697841  5.332223  2.804976
N    -2.999705  5.361429  2.484911
H    -2.959986  1.234697  3.373335
H    -4.033152  0.159946  2.512191
H    -4.430126  2.556084  2.068616
H    -4.265876  1.574692  0.627970
H    -3.297096  3.759998  0.270829
H    -2.159142  2.440369  0.011786
H    -0.719478  3.230432  1.562853
H    -0.758151  6.039073  3.525670
H    0.200841  4.883691  2.662911
H    -3.042450  6.333248  2.763830
H    -3.830035  4.976126  2.054990
N    -2.604224  -1.673004  0.260279
C    -2.963035  -2.691685  1.241347
H    -2.742157  -1.893021  -0.722285
H    -3.300433  -3.580049  0.698889
H    -3.785646  -2.370388  1.895126
H    -2.104935  -2.987478  1.859944
