36
Energy: -21201.7277951 eV PBE+vdW (tier 2 basis)
C    -3.590003  0.623466  0.786951
C    -2.135301  0.416037  1.118011
O    -1.226595  0.841575  0.384663
H    -3.705188  1.626489  0.362042
H    -4.253698  0.512285  1.651421
H    -3.899551  -0.089872  0.009868
N    -1.817238  -0.253591  2.268511
C    -2.530958  -1.371423  2.869207
C    -1.618944  -1.897974  3.992809
O    -0.388929  -1.961069  3.841346
H    -0.813444  -0.323585  2.434421
H    -3.476655  -1.021829  3.310535
C    -2.858899  -2.541494  1.879948
C    -1.988142  -2.735686  0.621850
C    -0.466011  -2.900421  0.761942
N    0.237957  -1.612816  0.676438
C    1.421018  -1.310304  1.204620
N    2.057766  -0.202871  0.775982
N    1.997395  -2.110269  2.123533
H    -3.890311  -2.401178  1.528183
H    -2.872198  -3.477175  2.458976
H    -2.188916  -1.941849  -0.113219
H    -2.361170  -3.651138  0.142026
H    -0.099225  -3.537938  -0.056178
H    -0.217884  -3.401510  1.703681
H    -0.253837  -0.819725  0.235112
H    2.737774  0.253594  1.371242
H    1.629245  0.368009  0.055041
H    2.929822  -1.882281  2.446649
H    1.368998  -2.517099  2.817347
N    -2.240553  -2.325788  5.104523
C    -1.523986  -2.926777  6.224127
H    -3.242878  -2.198893  5.181201
H    -0.777490  -2.229583  6.624018
H    -1.010453  -3.843938  5.909419
H    -2.244042  -3.171856  7.009595
