36
Energy: -21201.8888165 eV PBE+vdW (tier 2 basis)
C    -0.152542  -0.532154  0.485958
C    -1.183642  -0.206976  1.545218
O    -2.389085  -0.193746  1.325878
H    -0.164853  0.262704  -0.271131
H    -0.441682  -1.461598  -0.018117
H    0.868055  -0.631715  0.876107
N    -0.680670  0.069532  2.800804
C    -1.559164  0.579263  3.847229
C    -0.704515  1.329430  4.867277
O    0.423430  0.904183  5.208550
H    0.314673  0.228774  2.910999
H    -2.268803  1.276118  3.371506
C    -2.437405  -0.518984  4.507846
C    -1.807899  -1.530055  5.478883
C    -0.702778  -2.450295  4.941471
N    0.599095  -1.782626  4.986972
C    1.775873  -2.374016  4.886471
N    2.899225  -1.656826  5.112972
N    1.892558  -3.679087  4.572647
H    -2.923388  -1.046697  3.675610
H    -3.246098  -0.005295  5.048671
H    -2.625299  -2.182534  5.816087
H    -1.437086  -1.033887  6.389692
H    -0.936368  -2.762857  3.909917
H    -0.655183  -3.351835  5.572202
H    0.585824  -0.735290  5.077740
H    3.795124  -1.975025  4.768043
H    2.819460  -0.678911  5.365348
H    2.758329  -4.176115  4.735690
H    1.070173  -4.234209  4.378811
N    -1.249866  2.434783  5.393315
C    -0.622446  3.245209  6.428698
H    -2.138913  2.744488  5.014662
H    -0.271383  4.200121  6.016377
H    0.232873  2.694455  6.829170
H    -1.339622  3.444669  7.233426
