36
Energy: -21201.0804937 eV PBE+vdW (tier 2 basis)
C    -0.001440  0.007130  0.506611
C    0.011792  0.144637  2.013749
O    1.038411  0.378863  2.640389
H    -0.097464  1.002323  0.049206
H    -0.805097  -0.629725  0.121064
H    0.968273  -0.397122  0.199818
N    -1.182617  -0.019095  2.706266
C    -2.563218  0.006763  2.223539
C    -3.046922  -1.283089  1.502235
O    -4.066368  -1.251398  0.818564
H    -1.040432  0.098359  3.705855
H    -3.175408  0.025861  3.140154
C    -2.934276  1.240218  1.369281
C    -2.458566  2.582851  1.930259
C    -3.139805  2.985227  3.237879
N    -2.570899  4.250962  3.724726
C    -3.127443  5.071009  4.616663
N    -2.579791  6.274069  4.863126
N    -4.243822  4.713661  5.267444
H    -4.023161  1.230790  1.229686
H    -2.518192  1.125230  0.360687
H    -2.647722  3.366262  1.181734
H    -1.368618  2.551177  2.095401
H    -3.005216  2.206856  4.006633
H    -4.218511  3.124955  3.070014
H    -1.633723  4.474904  3.402671
H    -2.839990  6.812546  5.679373
H    -1.832459  6.638421  4.286370
H    -4.784941  5.389599  5.791175
H    -4.607237  3.772005  5.203680
N    -2.303995  -2.390766  1.738331
C    -2.636872  -3.695321  1.191334
H    -1.475825  -2.284952  2.314426
H    -2.818447  -4.421872  1.994166
H    -1.828315  -4.069238  0.549512
H    -3.547799  -3.586734  0.594262
