36
Energy: -21201.3457363 eV PBE+vdW (tier 2 basis)
C    -0.037525  -1.766205  -0.809289
C    0.557633  -1.055656  0.386686
O    1.635736  -1.399087  0.853589
H    -0.137787  -1.094680  -1.671123
H    -1.025189  -2.195482  -0.598782
H    0.646395  -2.576940  -1.072967
N    -0.084027  0.029003  0.981515
C    -1.373222  0.708022  0.891769
C    -2.238211  0.548674  2.165479
O    -2.829453  1.563807  2.610669
H    0.508026  0.382605  1.731081
H    -1.131835  1.782908  0.907323
C    -2.192856  0.458071  -0.390325
C    -3.482810  1.283260  -0.555513
C    -3.339356  2.810568  -0.625766
N    -3.196113  3.387882  0.711113
C    -3.274615  4.673832  1.009548
N    -3.294226  5.047606  2.307303
N    -3.349238  5.623315  0.057116
H    -2.475780  -0.599511  -0.460576
H    -1.530673  0.661142  -1.244277
H    -4.218008  1.031436  0.223569
H    -3.937708  0.963652  -1.502864
H    -4.241390  3.225783  -1.102970
H    -2.473046  3.078941  -1.256056
H    -3.041757  2.706484  1.509656
H    -3.068783  5.996330  2.576082
H    -3.221033  4.335267  3.024689
H    -3.602727  6.574732  0.288374
H    -3.332836  5.374241  -0.922181
N    -2.369429  -0.624748  2.801665
C    -1.837718  -1.947786  2.481422
H    -2.945289  -0.551680  3.637261
H    -0.764125  -2.023518  2.690584
H    -2.367616  -2.676409  3.102454
H    -2.021423  -2.210445  1.434377
