36
Energy: -21201.2498157 eV PBE+vdW (tier 2 basis)
C    -0.747813  -0.293524  0.059687
C    -1.005390  0.310855  1.422997
O    -0.688156  1.460878  1.709577
H    0.336792  -0.385127  -0.084439
H    -1.119807  0.394605  -0.708120
H    -1.210468  -1.277201  -0.084379
N    -1.639305  -0.522572  2.329819
C    -1.720313  -0.164016  3.745065
C    -2.222892  -1.320263  4.620402
O    -1.892252  -1.385726  5.803267
H    -1.584813  -1.515302  2.122197
H    -0.714355  0.081934  4.121855
C    -2.630034  1.070356  3.970197
C    -2.390258  1.700646  5.342924
C    -3.215373  2.967209  5.541717
N    -2.936197  3.531121  6.872975
C    -3.518725  4.606834  7.398639
N    -4.351709  5.352308  6.657906
N    -3.290761  4.948036  8.679837
H    -3.684665  0.775086  3.852394
H    -2.389680  1.795225  3.182440
H    -1.321321  1.954851  5.430937
H    -2.615422  0.977267  6.141374
H    -4.292099  2.745848  5.468360
H    -2.954767  3.707455  4.766891
H    -2.218702  3.064339  7.419266
H    -4.911773  6.085878  7.071640
H    -4.457659  5.182620  5.666397
H    -3.546963  5.860248  9.034305
H    -2.754908  4.348161  9.293481
N    -3.070042  -2.205178  4.023379
C    -3.681074  -3.307460  4.750669
H    -3.415798  -1.988533  3.094510
H    -4.687624  -3.050299  5.111548
H    -3.051390  -3.536082  5.616011
H    -3.747971  -4.190225  4.104707
