36
Energy: -21200.8841264 eV PBE+vdW (tier 2 basis)
C    -1.733123  -0.819404  -1.393158
C    -0.803214  -0.087226  -0.450905
O    0.377738  0.122029  -0.697969
H    -2.530695  -0.158273  -1.762313
H    -1.145597  -1.173376  -2.243620
H    -2.217058  -1.677984  -0.907267
N    -1.340355  0.358703  0.746273
C    -2.736305  0.392639  1.126970
C    -3.660354  1.430682  0.436734
O    -4.873489  1.200080  0.428434
H    -0.667213  0.880315  1.301169
H    -3.194523  -0.569144  0.853127
C    -2.862021  0.551150  2.661905
C    -4.212025  0.069141  3.202143
C    -4.468165  0.390015  4.673122
N    -4.655396  1.829758  4.925828
C    -3.828364  2.657436  5.563550
N    -2.568675  2.301379  5.859601
N    -4.254898  3.882174  5.922860
H    -2.692801  1.612051  2.917809
H    -2.046610  -0.032854  3.120120
H    -4.280364  -1.023428  3.091894
H    -5.024376  0.481207  2.584593
H    -3.664161  0.026947  5.328462
H    -5.385508  -0.110569  5.011954
H    -5.498326  2.242220  4.535759
H    -2.040653  2.797830  6.565913
H    -2.156621  1.465690  5.466104
H    -3.600529  4.614436  6.167029
H    -5.239036  4.117882  5.917861
N    -3.164702  2.570472  -0.118746
C    -1.817015  3.131328  -0.174571
H    -3.902789  3.116606  -0.554745
H    -1.149767  2.580284  -0.848496
H    -1.350752  3.181769  0.818046
H    -1.902835  4.157779  -0.546508
