36
Energy: -21201.6783959 eV PBE+vdW (tier 2 basis)
C    -1.915206  1.219371  0.897710
C    -1.289616  0.232331  1.861875
O    -0.077609  0.169203  2.039597
H    -1.475821  2.207841  1.072657
H    -1.648710  0.922659  -0.125382
H    -3.007342  1.289898  0.968090
N    -2.193881  -0.577648  2.520308
C    -1.941418  -1.737432  3.375198
C    -2.137842  -1.495677  4.891000
O    -2.769191  -2.369925  5.539818
H    -3.170435  -0.414111  2.305137
H    -2.768929  -2.425337  3.147535
C    -0.623589  -2.487270  3.060314
C    -0.373844  -3.799113  3.823312
C    -1.365128  -4.951639  3.606750
N    -2.574620  -4.765950  4.410796
C    -3.477491  -5.693931  4.674250
N    -3.469037  -6.894052  4.060824
N    -4.434290  -5.439876  5.594579
H    0.228006  -1.821217  3.230698
H    -0.626439  -2.689665  1.978612
H    -0.272882  -3.617964  4.904530
H    0.609665  -4.163098  3.496123
H    -0.879542  -5.895215  3.903117
H    -1.624666  -5.030042  2.536330
H    -2.704106  -3.816632  4.868378
H    -2.760069  -7.113193  3.374461
H    -4.013336  -7.665288  4.424221
H    -4.448839  -4.532190  6.045884
H    -5.294179  -5.972493  5.604399
N    -1.658407  -0.420779  5.527028
C    -0.870528  0.706457  5.038483
H    -1.904556  -0.415389  6.514887
H    -1.517337  1.534849  4.717791
H    -0.229267  0.414913  4.201033
H    -0.234905  1.057222  5.858344
