36
Energy: -21201.8004134 eV PBE+vdW (tier 2 basis)
C    -1.640683  -0.128065  0.123244
C    -1.172711  -0.383845  1.537009
O    -0.107454  -0.922787  1.804262
H    -0.973332  0.610829  -0.339248
H    -2.673265  0.235490  0.056189
H    -1.544593  -1.054504  -0.454618
N    -2.044554  0.022018  2.540025
C    -1.632807  -0.034896  3.931956
C    -2.674350  -0.731905  4.825065
O    -2.833479  -0.417630  6.022120
H    -2.859405  0.568209  2.281570
H    -0.750786  -0.701277  3.910755
C    -1.166728  1.307198  4.513825
C    -2.274963  2.350364  4.681115
C    -1.890097  3.545089  5.558288
N    -1.236358  3.238856  6.850473
C    -1.747849  2.581782  7.907635
N    -1.313748  2.926584  9.138523
N    -2.651493  1.614646  7.766263
H    -0.365200  1.691237  3.866830
H    -0.697744  1.095410  5.484887
H    -3.183938  1.883745  5.083323
H    -2.562011  2.772166  3.705701
H    -2.777967  4.165529  5.750313
H    -1.162523  4.174347  5.030895
H    -0.391455  3.764556  7.042468
H    -1.418551  2.295986  9.923140
H    -0.887872  3.827366  9.314566
H    -3.108308  1.269208  8.602967
H    -2.667076  0.953998  6.947787
N    -3.359425  -1.729135  4.243135
C    -4.311854  -2.580600  4.937322
H    -3.142495  -1.922003  3.269835
H    -5.230488  -2.678627  4.346948
H    -4.546487  -2.123435  5.902685
H    -3.890796  -3.580111  5.110836
