36
Energy: -21200.9944296 eV PBE+vdW (tier 2 basis)
C    -0.674386  0.484328  -1.243915
C    0.362484  0.632279  -0.151213
O    1.535588  0.886236  -0.395078
H    -0.747928  -0.575909  -1.526306
H    -1.682354  0.813849  -0.968351
H    -0.323819  1.041151  -2.117309
N    -0.021168  0.427165  1.165336
C    -1.335093  0.175545  1.745797
C    -2.143399  -0.957026  1.054969
O    -3.297788  -0.760736  0.674792
H    0.772609  0.473251  1.797730
H    -1.135069  -0.180465  2.771127
C    -2.210212  1.437554  1.842117
C    -1.589337  2.537313  2.703183
C    -2.332749  3.869053  2.609093
N    -3.732981  3.725696  3.043021
C    -4.770132  4.437553  2.603632
N    -6.024949  4.027206  2.860041
N    -4.578103  5.564133  1.901978
H    -3.194589  1.128351  2.219850
H    -2.393860  1.817936  0.826211
H    -1.524062  2.224936  3.759428
H    -0.555959  2.733676  2.381035
H    -2.339508  4.210573  1.563306
H    -1.833424  4.634850  3.222381
H    -3.927500  3.004211  3.730640
H    -6.217026  3.073755  3.140011
H    -6.814550  4.651027  2.753657
H    -5.332708  5.991021  1.380112
H    -3.671497  6.011725  1.868089
N    -1.535499  -2.164087  0.912993
C    -0.218459  -2.598714  1.358942
H    -2.122982  -2.847638  0.444290
H    0.007715  -2.224659  2.365716
H    0.583454  -2.280467  0.678780
H    -0.217612  -3.692637  1.409918
