36
Energy: -21201.1251285 eV PBE+vdW (tier 2 basis)
C    -1.122998  0.169755  0.025644
C    -1.083410  -0.332452  1.455586
O    -0.198772  -1.104142  1.840190
H    -1.006421  -0.681550  -0.654572
H    -0.260108  0.830400  -0.133458
H    -2.036029  0.717850  -0.235188
N    -2.081720  0.150330  2.257643
C    -2.330816  -0.027225  3.693826
C    -2.167822  1.265073  4.539991
O    -3.038310  1.519591  5.369074
H    -2.741603  0.772848  1.804065
H    -3.407804  -0.227931  3.795585
C    -1.576595  -1.179204  4.374524
C    -1.909692  -2.566799  3.800149
C    -0.683012  -3.477964  3.881978
N    -0.846318  -4.762226  3.184070
C    -1.353243  -5.879791  3.700886
N    -1.285435  -7.035150  3.013271
N    -1.924461  -5.879193  4.914791
H    -1.850461  -1.133434  5.437996
H    -0.496320  -1.003963  4.313246
H    -2.193666  -2.482016  2.742990
H    -2.776589  -3.001184  4.323805
H    -0.377841  -3.683374  4.918900
H    0.152581  -2.966198  3.389214
H    -0.620221  -4.768656  2.194356
H    -1.866519  -7.826130  3.258526
H    -0.699487  -7.122658  2.193233
H    -2.085233  -6.742178  5.417614
H    -2.132715  -5.011015  5.390180
N    -1.074264  2.060203  4.378303
C    0.086789  1.917916  3.511736
H    -1.106697  2.878131  4.980826
H    -0.082315  2.345491  2.511744
H    0.384696  0.870412  3.394978
H    0.927250  2.450097  3.970976
