36
Energy: -21201.4447706 eV PBE+vdW (tier 2 basis)
C    -0.382781  -0.829017  0.303421
C    -0.689317  -1.052524  1.758290
O    0.123291  -1.645388  2.500297
H    -1.262213  -0.580445  -0.293431
H    0.385866  -0.047242  0.210620
H    0.057577  -1.756594  -0.080375
N    -1.833505  -0.575681  2.332838
C    -2.823652  0.406048  1.885913
C    -3.772072  -0.139200  0.786319
O    -3.392303  -0.943900  -0.057670
H    -1.944785  -0.918835  3.283809
H    -3.430856  0.597053  2.782207
C    -2.191276  1.755963  1.473783
C    -1.499565  2.516604  2.633750
C    0.024332  2.664736  2.568813
N    0.715304  1.399033  2.829075
C    1.997461  1.124322  2.547560
N    2.409520  -0.143832  2.568118
N    2.838409  2.124218  2.220168
H    -2.991769  2.384922  1.062674
H    -1.496883  1.594269  0.638523
H    -1.768984  2.068637  3.603914
H    -1.895275  3.540018  2.672958
H    0.330820  3.416498  3.314845
H    0.324024  3.035507  1.575727
H    0.169019  0.624578  3.197422
H    1.698140  -0.905695  2.554618
H    3.393833  -0.372334  2.521208
H    3.783710  1.924622  1.920974
H    2.617793  3.085184  2.444961
N    -5.041038  0.354920  0.795114
C    -5.683633  1.214776  1.779639
H    -5.615867  -0.017229  0.044274
H    -5.201292  2.199878  1.854376
H    -5.716417  0.754320  2.778146
H    -6.717241  1.383698  1.462753
