36
Energy: -21201.7524949 eV PBE+vdW (tier 2 basis)
C    -0.443573  1.059010  0.274701
C    -0.561544  1.122483  1.777394
O    -0.316016  2.166517  2.400760
H    -0.661548  0.071540  -0.147630
H    -1.133083  1.793849  -0.160652
H    0.569809  1.360150  -0.018048
N    -0.951696  -0.019865  2.401350
C    -1.265409  -0.151682  3.826463
C    -2.134459  1.040000  4.339734
O    -1.788021  1.725876  5.300832
H    -1.141138  -0.822424  1.812538
H    -1.920970  -1.033220  3.873791
C    -0.067454  -0.420626  4.783913
C    1.340781  -0.553623  4.190673
C    2.115628  0.751614  3.947098
N    2.331060  1.541304  5.163372
C    1.601629  2.589451  5.575669
N    1.816805  3.078828  6.816116
N    0.698059  3.173872  4.792705
H    -0.291093  -1.350117  5.322152
H    -0.090824  0.370625  5.545908
H    1.325994  -1.105167  3.238634
H    1.935037  -1.174300  4.878377
H    1.623030  1.388645  3.206702
H    3.108437  0.517221  3.540572
H    3.062496  1.222427  5.788859
H    1.438366  3.978001  7.081988
H    2.506656  2.671416  7.432013
H    -0.022979  3.722875  5.248115
H    0.370345  2.726671  3.918385
N    -3.322446  1.249221  3.715461
C    -3.948395  0.516395  2.626254
H    -3.833559  2.039192  4.098359
H    -3.784251  -0.564278  2.722881
H    -3.592807  0.842873  1.637940
H    -5.029678  0.683604  2.672584
