36
Energy: -21202.1073284 eV PBE+vdW (tier 2 basis)
C    -3.526483  2.607756  -0.040260
C    -3.103672  1.169150  0.117554
O    -3.796419  0.227556  -0.286125
H    -3.590787  2.834901  -1.112338
H    -4.532421  2.732002  0.377632
H    -2.845257  3.324420  0.433093
N    -1.902120  0.950953  0.735122
C    -1.272195  -0.368992  0.796568
C    -1.862732  -1.262428  1.925279
O    -1.173958  -1.749779  2.854652
H    -1.384952  1.749872  1.082754
H    -1.548392  -0.878008  -0.141612
C    0.254876  -0.247071  0.832387
C    0.858984  0.601621  1.983529
C    1.954355  -0.125924  2.768084
N    1.355020  -1.285909  3.418766
C    1.938606  -2.097409  4.281276
N    1.192301  -3.040917  4.897549
N    3.250097  -2.003670  4.577002
H    0.570058  0.171505  -0.132309
H    0.661860  -1.267599  0.858150
H    0.082929  0.905880  2.702941
H    1.293370  1.528092  1.587048
H    2.388773  0.553029  3.519698
H    2.762407  -0.439412  2.084101
H    0.339019  -1.475503  3.167864
H    1.631246  -3.844436  5.327472
H    0.218372  -3.135957  4.629139
H    3.824120  -1.291262  4.147729
H    3.642316  -2.498303  5.367007
N    -3.166590  -1.505146  1.802686
C    -3.917208  -2.317212  2.747829
H    -3.637052  -1.068254  0.993290
H    -4.973447  -2.289402  2.466184
H    -3.806585  -1.930600  3.769014
H    -3.571440  -3.359542  2.733245
