36
Energy: -21201.2562888 eV PBE+vdW (tier 2 basis)
C    0.228507  0.055669  0.058073
C    0.167200  -0.160287  1.547671
O    1.187336  -0.237142  2.252273
H    -0.099496  1.080741  -0.167346
H    -0.437623  -0.618515  -0.497901
H    1.258233  -0.071660  -0.285457
N    -1.062607  -0.277463  2.129098
C    -2.348804  -0.541461  1.512505
C    -2.933853  0.741642  0.856501
O    -2.725805  1.839185  1.355513
H    -1.045073  -0.152595  3.135925
H    -2.210190  -1.322694  0.745367
C    -3.352227  -1.047583  2.580241
C    -2.843213  -2.017213  3.661428
C    -2.468351  -3.456859  3.278640
N    -1.389743  -3.644279  2.290528
C    -0.131149  -3.184699  2.356539
N    0.643333  -3.259435  1.259501
N    0.407867  -2.666459  3.467772
H    -4.211664  -1.488590  2.054986
H    -3.741667  -0.163424  3.107222
H    -3.656179  -2.130660  4.394636
H    -2.031756  -1.551179  4.239073
H    -3.341010  -3.955273  2.838280
H    -2.228764  -4.021475  4.193921
H    -1.595685  -4.268522  1.518615
H    1.617527  -2.986545  1.318882
H    0.245024  -3.379269  0.337865
H    0.997638  -1.824230  3.330474
H    -0.117654  -2.711499  4.331635
N    -3.689602  0.521665  -0.251552
C    -4.388712  1.588410  -0.955098
H    -3.786843  -0.426210  -0.596672
H    -5.472900  1.417233  -0.948891
H    -4.043022  1.664311  -1.993991
H    -4.170858  2.526830  -0.436077
