36
Energy: -21201.8254913 eV PBE+vdW (tier 2 basis)
C    -1.686203  -1.766324  0.347607
C    -1.749331  -0.461511  1.095110
O    -1.080455  0.524503  0.720706
H    -1.917268  -1.587406  -0.709370
H    -2.363137  -2.532517  0.742193
H    -0.656841  -2.145555  0.394023
N    -2.559677  -0.419635  2.181363
C    -2.628443  0.716364  3.100008
C    -2.327377  0.382990  4.582351
O    -1.551687  1.120322  5.183451
H    -3.088823  -1.257731  2.392442
H    -1.772833  1.346865  2.842873
C    -3.927696  1.543632  2.976260
C    -4.122317  2.310656  1.658496
C    -3.205856  3.521766  1.437879
N    -1.854051  3.100970  1.073596
C    -0.742925  3.816764  1.188850
N    -0.772191  5.138801  1.436453
N    0.441426  3.187598  1.065035
H    -3.943772  2.252958  3.817762
H    -4.794794  0.882214  3.119949
H    -5.153807  2.688409  1.638480
H    -4.042370  1.632086  0.794094
H    -3.168298  4.130196  2.357025
H    -3.627888  4.148049  0.635662
H    -1.692779  2.093283  0.853778
H    0.064025  5.636145  1.711794
H    -1.649109  5.638612  1.482808
H    1.287210  3.702195  0.859749
H    0.439443  2.183791  0.900939
N    -2.947426  -0.660788  5.202638
C    -3.919220  -1.616325  4.697083
H    -2.649339  -0.767947  6.168632
H    -4.491333  -2.015884  5.541215
H    -3.449380  -2.473419  4.186098
H    -4.645822  -1.141425  4.025538
