36
Energy: -21201.1173135 eV PBE+vdW (tier 2 basis)
C    0.068453  -0.766466  0.099395
C    -0.403451  0.083663  1.261298
O    -0.114754  1.280613  1.344280
H    1.149641  -0.631924  -0.021346
H    -0.406621  -0.395253  -0.818404
H    -0.152514  -1.835385  0.202795
N    -1.176383  -0.576939  2.181068
C    -1.820664  -0.076631  3.398327
C    -3.365387  0.083267  3.350294
O    -3.991916  -0.224660  4.363094
H    -1.344377  -1.558723  1.992377
H    -1.706754  -0.872944  4.148978
C    -1.205482  1.203110  3.989418
C    0.268084  1.045296  4.395525
C    1.051625  2.354424  4.287684
N    0.496156  3.460604  5.089464
C    0.737656  3.688415  6.379636
N    0.300034  4.821048  6.960235
N    1.434260  2.809002  7.114531
H    -1.818419  1.452820  4.866971
H    -1.305901  2.018565  3.263081
H    0.776863  0.334940  3.729755
H    0.332495  0.614135  5.408319
H    1.032772  2.689020  3.242867
H    2.108319  2.230002  4.564969
H    -0.198073  4.049158  4.641593
H    0.247834  4.907637  7.966907
H    -0.065476  5.585619  6.407686
H    1.818501  3.067192  8.014057
H    1.639282  1.883634  6.761583
N    -3.988581  0.571778  2.244273
C    -3.450911  1.090341  0.993849
H    -4.998471  0.589333  2.357742
H    -4.187361  1.778314  0.564239
H    -3.260283  0.294341  0.258597
H    -2.523066  1.651546  1.149747
