36
Energy: -21201.8957935 eV PBE+vdW (tier 2 basis)
C    1.393036  0.883681  -0.574282
C    0.833634  1.676088  0.584341
O    1.351148  2.696539  1.022424
H    2.267679  0.318760  -0.223116
H    1.743467  1.578904  -1.344685
H    0.677416  0.178759  -1.014154
N    -0.337522  1.186858  1.141955
C    -0.852243  1.738517  2.393988
C    -1.382755  3.183342  2.208833
O    -1.520082  3.962521  3.176172
H    -0.670091  0.273960  0.851947
H    -1.751285  1.141729  2.621780
C    0.147751  1.617054  3.578094
C    -0.383343  0.950017  4.857622
C    -1.554622  1.665108  5.551576
N    -1.339443  3.104727  5.667981
C    -0.725739  3.751106  6.644486
N    -0.297318  5.013855  6.424241
N    -0.505401  3.198479  7.852686
H    0.562175  2.606671  3.804603
H    0.998389  1.020424  3.228781
H    0.456720  0.873703  5.564547
H    -0.701238  -0.083892  4.649562
H    -1.763561  1.211018  6.530024
H    -2.482317  1.551159  4.973480
H    -1.418146  3.577996  4.725496
H    -0.134389  5.646585  7.196815
H    -0.462025  5.433784  5.516622
H    0.061363  3.664634  8.547428
H    -0.863475  2.281496  8.077963
N    -1.767859  3.519439  0.973828
C    -2.284830  4.834321  0.628110
H    -1.543736  2.863499  0.232760
H    -2.897781  4.752016  -0.274937
H    -1.467592  5.545990  0.444821
H    -2.899986  5.211150  1.451209
