36
Energy: -21201.8815515 eV PBE+vdW (tier 2 basis)
C    1.112966  -0.630821  1.024074
C    0.247228  0.386133  1.729987
O    0.691596  1.417533  2.222639
H    0.571348  -1.528361  0.702433
H    1.568101  -0.154717  0.146318
H    1.931307  -0.923462  1.692765
N    -1.099556  0.081454  1.797880
C    -2.048587  1.020706  2.376770
C    -2.873302  0.287336  3.441190
O    -4.061329  -0.053885  3.247113
H    -1.445232  -0.756834  1.344141
H    -1.408633  1.772521  2.865849
C    -2.874957  1.745960  1.301748
C    -3.625402  2.999641  1.789021
C    -5.072574  2.814376  2.259039
N    -5.989103  2.447721  1.170731
C    -6.578866  1.259185  0.977978
N    -7.576094  1.180049  0.067987
N    -6.194703  0.175571  1.643684
H    -3.554066  1.041586  0.797457
H    -2.146287  2.055715  0.541199
H    -3.624401  3.749096  0.983127
H    -3.069398  3.469001  2.615596
H    -5.442532  3.758051  2.683783
H    -5.155786  2.055390  3.043848
H    -6.183498  3.163969  0.478678
H    -7.932898  0.282778  -0.231501
H    -8.083527  2.003817  -0.226088
H    -6.786829  -0.645294  1.637914
H    -5.312769  0.137449  2.211235
N    -2.274299  -0.012643  4.607891
C    -0.885840  0.188250  5.006648
H    -2.862794  -0.558215  5.233666
H    -0.454134  1.068355  4.520158
H    -0.267066  -0.682503  4.747686
H    -0.849715  0.338613  6.090798
