36
Energy: -21201.4631567 eV PBE+vdW (tier 2 basis)
C    -0.178528  -0.400229  0.350585
C    -0.163425  -0.257139  1.844595
O    0.857222  -0.502372  2.512671
H    0.192527  -1.404469  0.108930
H    0.512710  0.327127  -0.090742
H    -1.171431  -0.272561  -0.093450
N    -1.317586  0.060125  2.509345
C    -2.365583  0.993083  2.118730
C    -1.829516  2.083844  1.161073
O    -0.669162  2.493281  1.234191
H    -1.181581  -0.020710  3.512319
H    -3.187717  0.453289  1.627180
C    -2.943029  1.678562  3.401792
C    -1.969786  1.873217  4.582263
C    -0.681024  2.658507  4.285344
N    0.274745  2.579671  5.391550
C    1.471964  1.969257  5.389788
N    2.316303  2.256273  6.408842
N    1.853160  1.107917  4.452828
H    -3.786449  1.079238  3.770039
H    -3.364754  2.650160  3.108450
H    -1.696067  0.899659  5.021802
H    -2.531630  2.380904  5.381288
H    -0.910398  3.719458  4.109590
H    -0.186400  2.313170  3.370465
H    0.020762  3.043571  6.257749
H    3.143400  1.696143  6.566011
H    2.238042  3.123202  6.923922
H    2.831452  0.845972  4.417710
H    1.250989  0.578337  3.775070
N    -2.716335  2.592350  0.269578
C    -4.102773  2.202940  0.034592
H    -2.329245  3.336606  -0.303573
H    -4.499768  2.830773  -0.768766
H    -4.735761  2.357170  0.919152
H    -4.188009  1.156281  -0.288947
