36
Energy: -21201.4617918 eV PBE+vdW (tier 2 basis)
C    0.380867  -2.499093  2.241314
C    0.148071  -1.268883  3.089165
O    0.877134  -0.961550  4.028481
H    0.284337  -3.387205  2.879127
H    -0.311762  -2.594438  1.396355
H    1.410686  -2.484337  1.865367
N    -0.962359  -0.516514  2.757048
C    -1.285149  0.709877  3.466732
C    -2.778092  0.844712  3.850211
O    -3.256115  1.951807  4.095133
H    -1.443304  -0.720381  1.886775
H    -0.736278  0.622378  4.420384
C    -0.805780  1.985781  2.761757
C    0.718282  2.110216  2.710549
C    1.196386  3.518463  2.343912
N    0.791026  4.554359  3.311018
C    1.413900  4.831526  4.457796
N    1.045559  5.904658  5.180813
N    2.432224  4.073625  4.888457
H    -1.257992  2.815572  3.323883
H    -1.227845  2.036040  1.744763
H    1.147599  1.414861  1.974367
H    1.139663  1.794849  3.679174
H    0.780161  3.830872  1.377376
H    2.289952  3.562670  2.240013
H    -0.100311  5.012504  3.154024
H    1.296917  5.988118  6.157454
H    0.408605  6.595207  4.804768
H    3.033133  4.385334  5.640413
H    2.591812  3.148361  4.510365
N    -3.466992  -0.319938  3.930243
C    -4.847392  -0.390180  4.380495
H    -2.951873  -1.179830  3.775701
H    -5.251498  0.626783  4.390126
H    -4.915985  -0.807255  5.394868
H    -5.441597  -1.010823  3.698752
