36
Energy: -21201.5907027 eV PBE+vdW (tier 2 basis)
C    0.433571  0.864652  0.047616
C    0.210856  0.276231  1.421030
O    1.111180  -0.359725  2.003671
H    0.591897  0.040018  -0.659980
H    -0.400685  1.479221  -0.307793
H    1.350880  1.465463  0.054472
N    -1.015530  0.495309  1.956009
C    -1.586491  -0.140353  3.135032
C    -3.116201  -0.128374  2.894855
O    -3.608006  0.681021  2.108757
H    -1.733525  0.981378  1.410483
H    -1.211467  -1.175662  3.191608
C    -1.238547  0.585774  4.460934
C    0.275269  0.570654  4.636490
C    0.857782  1.171878  5.901187
N    2.294902  0.845287  6.065385
C    3.285071  0.680653  5.169379
N    4.552651  0.772796  5.635790
N    3.118656  0.417575  3.871586
H    -1.741924  0.071328  5.293702
H    -1.632767  1.612161  4.424065
H    0.607191  -0.475373  4.560095
H    0.688167  1.111490  3.780014
H    0.365982  0.769649  6.797473
H    0.734852  2.265952  5.919194
H    2.613019  0.846902  7.028509
H    4.760309  1.219584  6.518652
H    5.327185  0.378205  5.118563
H    3.931287  0.467091  3.269027
H    2.251122  0.105251  3.404899
N    -3.829181  -1.019304  3.621106
C    -5.280792  -1.118227  3.552632
H    -3.327213  -1.693653  4.187284
H    -5.643295  -0.305844  2.916121
H    -5.722399  -1.019764  4.552194
H    -5.588271  -2.077423  3.116093
