36
Energy: -21201.3557481 eV PBE+vdW (tier 2 basis)
C    0.419351  0.742111  0.265405
C    0.074622  0.980517  1.708783
O    0.861900  1.541574  2.490246
H    -0.161726  -0.064341  -0.195138
H    0.256403  1.666736  -0.305029
H    1.486871  0.503232  0.209718
N    -1.126172  0.550065  2.199436
C    -2.405776  0.386289  1.532063
C    -2.564399  1.407720  0.380123
O    -2.294644  2.599584  0.544411
H    -1.164824  0.629652  3.207922
H    -2.493759  -0.639874  1.137057
C    -3.583203  0.642677  2.535234
C    -3.290576  0.830206  4.037910
C    -2.514537  2.086993  4.519046
N    -2.749846  3.277010  3.706835
C    -1.829059  4.097820  3.180345
N    -2.240885  5.288576  2.690884
N    -0.524247  3.828067  3.193094
H    -4.279706  -0.200997  2.454697
H    -4.139710  1.520228  2.179618
H    -2.785476  -0.052466  4.460177
H    -4.276027  0.842201  4.525251
H    -1.432058  1.927148  4.558730
H    -2.815236  2.300224  5.555855
H    -3.715593  3.513348  3.508689
H    -1.719392  5.716821  1.936086
H    -3.205620  5.577419  2.787754
H    0.104687  4.568369  2.904870
H    -0.107851  2.875105  3.138241
N    -3.067678  0.889499  -0.763462
C    -3.365906  1.687537  -1.943053
H    -3.222209  -0.111691  -0.807607
H    -3.165484  2.735305  -1.700840
H    -4.418948  1.575838  -2.230464
H    -2.732012  1.387751  -2.787663
