36
Energy: -21200.9997939 eV PBE+vdW (tier 2 basis)
C    -0.148965  -0.008774  -0.377970
C    0.135950  -0.508381  1.021962
O    1.276607  -0.777282  1.374887
H    0.803191  -0.001700  -0.914868
H    -0.851689  -0.652364  -0.922521
H    -0.554568  1.010922  -0.373855
N    -0.880531  -0.651851  1.964953
C    -2.338406  -0.594009  2.001254
C    -3.071581  -1.956435  2.149801
O    -4.087298  -1.996053  2.879971
H    -0.464238  -0.976337  2.835840
H    -2.563409  -0.136560  2.975224
C    -3.026268  0.268757  0.923303
C    -2.858758  1.793150  1.101586
C    -3.955975  2.527340  1.891888
N    -3.946545  2.318781  3.351025
C    -4.375970  1.216049  3.983723
N    -3.901656  0.923471  5.206709
N    -5.260873  0.369665  3.437980
H    -4.093247  0.007878  0.917021
H    -2.663010  -0.024405  -0.066992
H    -2.853917  2.262492  0.106685
H    -1.876642  2.021072  1.543393
H    -4.951824  2.284052  1.493703
H    -3.842672  3.608782  1.750106
H    -3.455400  3.012147  3.905989
H    -3.099319  1.397161  5.601329
H    -4.387970  0.243999  5.779554
H    -4.962531  -0.641181  3.397302
H    -5.724865  0.687210  2.594070
N    -2.646015  -3.077233  1.543318
C    -1.556437  -3.302642  0.596289
H    -3.225197  -3.881085  1.774979
H    -1.605530  -2.604748  -0.246645
H    -1.673789  -4.312917  0.193057
H    -0.571128  -3.231597  1.071320
