36
Energy: -21200.9191191 eV PBE+vdW (tier 2 basis)
C    -0.293424  1.176382  0.992939
C    -0.384727  0.465553  2.324495
O    0.531467  0.466359  3.139677
H    -0.821362  2.140017  1.041541
H    -0.727532  0.609891  0.160820
H    0.762004  1.380475  0.794526
N    -1.564218  -0.187815  2.650240
C    -2.801421  -0.373888  1.891406
C    -2.592408  -1.095547  0.525689
O    -2.916145  -0.556867  -0.530183
H    -1.473902  -0.688217  3.529412
H    -3.404920  -1.057269  2.508928
C    -3.604612  0.924439  1.653526
C    -3.548914  1.950560  2.787854
C    -4.162522  1.466694  4.105359
N    -4.064478  2.459106  5.187544
C    -4.947185  3.424997  5.448230
N    -4.815504  4.174079  6.557465
N    -5.985285  3.650229  4.630023
H    -4.646439  0.645865  1.434048
H    -3.240348  1.391810  0.730401
H    -4.061792  2.866397  2.452246
H    -2.506636  2.242133  2.982166
H    -3.642686  0.572984  4.472051
H    -5.219535  1.183336  3.991112
H    -3.190279  2.486377  5.703221
H    -5.304827  5.054297  6.656899
H    -4.168775  3.915666  7.291668
H    -6.772350  4.212662  4.926865
H    -6.020301  3.244751  3.704074
N    -2.041263  -2.338815  0.559486
C    -1.606314  -3.126885  1.702332
H    -1.903089  -2.734905  -0.365831
H    -1.522100  -4.172532  1.388571
H    -2.342872  -3.094020  2.516866
H    -0.630795  -2.802146  2.091507
