36
Energy: -21201.8882148 eV PBE+vdW (tier 2 basis)
C    -1.324250  0.754955  -0.253725
C    -1.119268  0.259889  1.162038
O    -0.078038  -0.258911  1.546877
H    -2.256780  1.315251  -0.396741
H    -1.324701  -0.109037  -0.931006
H    -0.473256  1.385323  -0.536551
N    -2.189317  0.439340  2.015126
C    -2.180115  -0.160996  3.344076
C    -3.626541  -0.306317  3.814921
O    -4.477165  0.585684  3.589961
H    -3.089276  0.703597  1.629987
H    -1.717119  -1.157365  3.252426
C    -1.301286  0.609754  4.368003
C    -1.780839  1.951492  4.943575
C    -2.001016  3.113655  3.966677
N    -3.317438  3.014917  3.335114
C    -3.833877  3.889254  2.490207
N    -5.007619  3.599324  1.879612
N    -3.210555  5.045311  2.200263
H    -0.323921  0.734587  3.881767
H    -1.127807  -0.067078  5.217804
H    -1.007074  2.277750  5.652229
H    -2.693224  1.825269  5.547848
H    -1.209701  3.121870  3.197937
H    -1.946632  4.059502  4.529169
H    -3.824528  2.101884  3.450151
H    -5.541351  4.329695  1.426093
H    -5.534959  2.797550  2.207187
H    -3.584515  5.691746  1.519105
H    -2.307744  5.259915  2.600742
N    -3.911090  -1.417452  4.507882
C    -5.211840  -1.704525  5.098217
H    -3.181576  -2.117960  4.590529
H    -5.721627  -2.504524  4.545821
H    -5.820213  -0.797248  5.053979
H    -5.088505  -2.013091  6.142838
