36
Energy: -21201.3993433 eV PBE+vdW (tier 2 basis)
C    1.093892  0.637626  0.786348
C    0.066961  1.431283  0.025538
O    0.354624  2.494033  -0.567946
H    1.160766  1.009408  1.820476
H    0.874471  -0.434723  0.826344
H    2.068351  0.800909  0.315331
N    -1.220529  0.998053  0.017242
C    -1.857205  0.155893  1.028226
C    -2.073012  -1.333427  0.653863
O    -1.785600  -2.176151  1.499016
H    -1.827500  1.522586  -0.608926
H    -1.164272  0.080166  1.874690
C    -3.151562  0.808046  1.547749
C    -2.994707  2.110182  2.361086
C    -2.841952  3.443436  1.594677
N    -1.486868  3.816055  1.185729
C    -0.558115  4.410296  1.941090
N    0.710379  4.413122  1.506201
N    -0.868925  4.976334  3.120627
H    -3.629774  0.062770  2.198568
H    -3.856881  0.971282  0.715683
H    -2.172915  2.007718  3.087169
H    -3.908591  2.215255  2.963711
H    -3.263921  4.260024  2.198086
H    -3.449345  3.433513  0.679240
H    -1.115064  3.453693  0.298623
H    0.939303  3.871574  0.663466
H    1.400064  5.041146  1.896837
H    -1.831113  5.124287  3.391657
H    -0.153629  5.395231  3.699513
N    -2.589272  -1.671552  -0.559561
C    -2.995174  -0.832417  -1.676458
H    -2.666918  -2.677799  -0.679760
H    -3.631800  0.002312  -1.352019
H    -3.599620  -1.438799  -2.358695
H    -2.139203  -0.438422  -2.243488
