36
Energy: -21201.5294697 eV PBE+vdW (tier 2 basis)
C    -0.722018  0.165685  0.298711
C    -0.445083  0.235984  1.787633
O    0.690248  0.398703  2.235392
H    -1.731277  -0.179732  0.044658
H    0.017053  -0.491601  -0.174062
H    -0.578496  1.165505  -0.132579
N    -1.546423  0.107272  2.588587
C    -1.613919  0.285476  4.044314
C    -0.356296  0.958302  4.639307
O    0.447415  0.346374  5.363593
H    -2.444656  0.035798  2.121795
H    -2.422644  1.018956  4.201946
C    -2.100791  -0.967864  4.810684
C    -1.183166  -2.139533  5.191630
C    -0.679075  -3.104573  4.118338
N    0.226833  -2.602604  3.066297
C    1.502991  -2.209170  3.212090
N    1.926410  -1.681690  4.360690
N    2.365014  -2.394932  2.191201
H    -2.972608  -1.351301  4.254330
H    -2.511163  -0.587499  5.758109
H    -1.779572  -2.780584  5.860632
H    -0.355332  -1.781649  5.809984
H    -1.530802  -3.529427  3.570814
H    -0.175778  -3.941494  4.625546
H    -0.069643  -2.769008  2.112589
H    2.922012  -1.516541  4.457925
H    1.301868  -1.001126  4.854227
H    3.130382  -1.745315  2.057057
H    2.123695  -2.991040  1.410304
N    -0.243313  2.294084  4.476237
C    -0.991284  3.169045  3.587868
H    0.605721  2.669827  4.891234
H    -0.848566  4.203565  3.915701
H    -2.066092  2.955985  3.631712
H    -0.652276  3.082264  2.545044
