36
Energy: -21201.6894728 eV PBE+vdW (tier 2 basis)
C    -1.085517  -2.008504  0.987418
C    -0.956754  -1.355096  2.342066
O    0.086519  -1.379036  2.996391
H    -2.087080  -2.415364  0.799806
H    -0.857193  -1.277549  0.198656
H    -0.346934  -2.812695  0.923517
N    -2.062409  -0.720604  2.866117
C    -3.252012  -0.226149  2.200002
C    -2.911680  0.524442  0.896495
O    -1.946385  1.306813  0.828150
H    -1.878989  -0.331138  3.785212
H    -3.926279  -1.066557  1.958310
C    -4.033668  0.720515  3.152612
C    -3.467934  2.139369  3.385593
C    -2.550426  2.405147  4.589483
N    -1.347970  1.564115  4.781601
C    -0.197928  1.598322  4.072134
N    0.953095  1.238845  4.675059
N    -0.182119  1.995863  2.802637
H    -4.175833  0.187780  4.106445
H    -5.039222  0.829360  2.725104
H    -4.322467  2.810208  3.558755
H    -2.999568  2.515946  2.468710
H    -3.122432  2.272685  5.516390
H    -2.235296  3.458408  4.553603
H    -1.265507  1.137864  5.698042
H    1.627835  0.710566  4.130006
H    0.966650  1.061120  5.672144
H    0.728678  2.084217  2.364635
H    -0.967927  1.785993  2.140841
N    -3.751087  0.308612  -0.131082
C    -3.644539  0.972627  -1.423388
H    -4.482833  -0.382998  -0.006641
H    -4.591269  1.464225  -1.678000
H    -3.393213  0.250151  -2.210522
H    -2.851259  1.722387  -1.359049
