36
Energy: -21201.308978 eV PBE+vdW (tier 2 basis)
C    0.196096  -0.918709  0.527596
C    -0.024342  -0.022059  1.728605
O    0.837445  0.747119  2.124072
H    0.054110  -0.328993  -0.388909
H    -0.450583  -1.801844  0.480380
H    1.244629  -1.235270  0.539922
N    -1.228420  -0.096424  2.435295
C    -2.503035  -0.739152  2.127312
C    -2.562310  -2.258946  2.446748
O    -3.617603  -2.902409  2.278524
H    -1.224808  0.564486  3.207482
H    -3.201274  -0.316378  2.866682
C    -3.047379  -0.406461  0.714270
C    -3.692531  0.989402  0.583624
C    -5.218926  1.076365  0.741607
N    -5.740293  0.807127  2.095028
C    -5.848865  -0.407327  2.652684
N    -5.872933  -0.529619  3.991770
N    -5.913619  -1.531402  1.923009
H    -3.744738  -1.193698  0.403738
H    -2.214840  -0.469152  0.006419
H    -3.486563  1.380452  -0.423505
H    -3.206887  1.698394  1.272623
H    -5.721725  0.415628  0.020685
H    -5.555940  2.089409  0.490984
H    -5.921245  1.613116  2.684652
H    -6.218564  -1.388603  4.403101
H    -5.682684  0.251010  4.606791
H    -5.179936  -2.254026  2.141913
H    -6.050623  -1.403858  0.926009
N    -1.449234  -2.802327  2.954192
C    -1.333704  -4.195471  3.358098
H    -0.665439  -2.173260  3.104338
H    -0.483075  -4.666656  2.850799
H    -2.255197  -4.714235  3.079484
H    -1.187776  -4.273323  4.443268
