36
Energy: -21201.7980816 eV PBE+vdW (tier 2 basis)
C    -0.551519  1.035577  0.073733
C    -0.545543  0.595041  1.513540
O    0.461111  0.053862  2.013281
H    -1.482162  1.527017  -0.230919
H    -0.386334  0.157340  -0.563681
H    0.290561  1.717688  -0.095973
N    -1.679455  0.814736  2.223063
C    -1.885927  0.360330  3.597450
C    -3.228165  -0.421766  3.639272
O    -4.254277  0.111354  4.047612
H    -2.462736  1.258596  1.752801
H    -1.059320  -0.329039  3.803596
C    -1.914344  1.489785  4.638453
C    -0.845198  2.581509  4.529693
C    0.627846  2.152776  4.537757
N    0.971735  1.259079  5.650372
C    1.529369  0.044710  5.558435
N    1.600900  -0.613282  4.402136
N    2.012747  -0.527158  6.683431
H    -1.871677  1.009856  5.628256
H    -2.904549  1.963194  4.594700
H    -1.016144  3.290833  5.354065
H    -0.989275  3.167976  3.610066
H    1.266376  3.045518  4.610093
H    0.899471  1.648231  3.606122
H    0.803215  1.609080  6.588240
H    2.213085  -1.416347  4.331882
H    1.115150  -0.308287  3.527102
H    2.273823  -1.503711  6.699478
H    2.212650  0.021414  7.508976
N    -3.205790  -1.706208  3.184130
C    -2.126280  -2.421179  2.521690
H    -4.126531  -2.137627  3.176184
H    -2.324894  -3.496015  2.587585
H    -2.031918  -2.151594  1.458536
H    -1.162140  -2.232494  3.008710
