36
Energy: -21201.7808706 eV PBE+vdW (tier 2 basis)
C    2.628286  -0.673722  2.387348
C    1.593762  -0.206858  3.377084
O    1.849738  -0.153934  4.600156
H    3.535123  -0.068322  2.507427
H    2.297339  -0.624391  1.344296
H    2.897173  -1.711352  2.624671
N    0.391975  0.160714  2.872550
C    -0.817742  0.552538  3.615451
C    -0.743197  1.914229  4.356739
O    -1.679810  2.695601  4.257975
H    0.299763  0.132577  1.863363
H    -1.570406  0.759327  2.846465
C    -1.338660  -0.619667  4.500026
C    -2.315507  -0.215030  5.627608
C    -1.797995  -0.548130  7.035076
N    -0.418972  -0.068796  7.203405
C    0.559840  -0.734371  7.818540
N    1.826841  -0.555896  7.414377
N    0.277121  -1.574623  8.830664
H    -0.465754  -1.129285  4.926640
H    -1.813683  -1.343636  3.826543
H    -3.276442  -0.731056  5.508211
H    -2.554590  0.856090  5.572702
H    -1.794608  -1.636647  7.193097
H    -2.459071  -0.098876  7.790928
H    -0.124893  0.709269  6.595461
H    2.597691  -0.874551  7.987637
H    2.003530  -0.355783  6.422132
H    0.966177  -2.231240  9.173015
H    -0.599122  -1.506883  9.332157
N    0.332790  2.133644  5.179046
C    0.535529  3.446543  5.789988
H    1.142668  1.525066  5.028894
H    1.293018  3.359761  6.576273
H    -0.405875  3.795965  6.226120
H    0.865878  4.191802  5.053030
