36
Energy: -21200.562636 eV PBE+vdW (tier 2 basis)
C    -0.334746  0.091893  2.499531
C    -1.509087  0.135934  3.456029
O    -1.473645  -0.401039  4.555116
H    0.516036  -0.341988  3.030874
H    -0.571180  -0.543695  1.634904
H    -0.051811  1.083841  2.122832
N    -2.656471  0.806679  3.062979
C    -2.975072  1.451522  1.791295
C    -2.880583  0.431289  0.611595
O    -3.548763  -0.589618  0.726914
H    -3.439861  0.581345  3.668402
H    -4.064982  1.603397  1.827365
C    -2.354605  2.862302  1.688563
C    -2.778213  3.724783  2.882167
C    -2.115736  5.099570  2.885446
N    -2.460398  5.811687  4.126625
C    -2.297331  7.115389  4.354886
N    -1.649821  7.884675  3.468174
N    -2.797115  7.674168  5.470755
H    -2.682361  3.333862  0.750605
H    -1.257633  2.809643  1.656602
H    -2.505153  3.189544  3.805877
H    -3.872807  3.848914  2.889517
H    -2.462571  5.700585  2.030856
H    -1.020536  4.990403  2.813852
H    -2.776186  5.235836  4.901608
H    -1.671338  8.894199  3.533959
H    -1.127852  7.475978  2.704362
H    -2.500796  8.591811  5.777666
H    -3.426235  7.163499  6.076973
N    -2.154223  0.655509  -0.525903
C    -1.144322  1.641656  -0.880072
H    -2.283359  -0.110983  -1.181286
H    -0.671261  1.312467  -1.810729
H    -0.351907  1.720261  -0.124200
H    -1.568543  2.638569  -1.064383
