16
Energy: -101117.0268706  eV PBE+vdW (tier 2 basis)
 N    0.01274   -0.17329   -0.06676
 C    0.11653    0.02038    1.32041
 C    1.67571   -0.08832    1.79439
 O    2.23380   -1.17117    1.87478
 H    0.26375    0.55618   -0.73373
 H   -0.22842   -1.09825   -0.42948
 H   -0.18043    1.05524    1.56735
 C   -0.72669   -0.99769    2.12124
 C   -0.15345   -2.38824    1.98546
 O    0.11311   -3.09346    3.00101
 O    0.21468   -2.79936    0.82197
 H   -1.75828   -0.97163    1.73779
 H   -0.75254   -0.71540    3.18178
 O    2.31239    1.01820    2.07326
 H    1.77697    1.83517    2.00694
Sr    2.16648   -3.74517    1.94939
