16
Energy: -101117.3316752  eV PBE+vdW (tier 2 basis)
 N    0.01545    0.22922   -0.14843
 C    0.04648    0.00126    1.22302
 C    1.55667   -0.52423    1.63092
 O    1.69285   -1.58137    2.17848
 H   -0.32482   -0.51555   -0.76144
 H    0.52330    1.00981   -0.56399
 H    0.04902    0.96393    1.77216
 C   -1.02792   -0.93308    1.76439
 C   -1.16475   -2.29962    1.11874
 O   -0.71803   -2.51494   -0.06981
 O   -1.76583   -3.21557    1.76490
 H   -2.00325   -0.43022    1.64979
 H   -0.88495   -1.07998    2.84261
 O    2.44406    0.37788    1.26934
 H    3.35276    0.10690    1.53266
Sr   -1.54315   -4.78559    0.06398
