16
Energy: -101117.0681368  eV PBE+vdW (tier 2 basis)
 N    0.43899   -0.14977    0.50915
 C    0.05305   -0.15863    1.97613
 C    1.25526   -0.73095    2.77736
 O    2.10785   -1.40111    2.12047
 H    0.70256    0.79134    0.18307
 H   -0.29962   -0.50866   -0.11392
 H   -0.15104    0.87282    2.30618
 C   -1.16399   -1.00952    2.26698
 C   -0.74581   -2.65983    2.05065
 O   -0.14490   -3.15631    3.01825
 O   -1.10363   -2.96491    0.92568
 H   -2.02110   -0.82609    1.61282
 H   -1.43784   -0.96094    3.32822
 O    1.18074   -0.67083    4.03083
 H    1.27854   -0.76831    0.43387
Sr    2.04992   -2.92727    4.12326
