16
Energy: -101117.0185569  eV PBE+vdW (tier 2 basis)
 N   -0.31324    0.39608    0.28802
 C   -0.12773   -0.11035    1.55978
 C    1.53982    0.08985    1.96206
 O    2.25902   -0.83147    1.73070
 H   -0.17508   -0.18548   -0.53874
 H   -0.48260    1.38569    0.11574
 H   -0.61313    0.52589    2.31719
 C   -0.46877   -1.58975    1.70648
 C   -0.24714   -2.15796    3.09750
 O   -0.48866   -3.39683    3.27395
 O    0.16176   -1.41126    4.05524
 H    0.09894   -2.20708    0.99459
 H   -1.53194   -1.72832    1.45172
 O    1.88017    1.26440    2.43293
 H    1.13242    1.86819    2.60794
Sr    0.14216   -3.31662    5.51790
