16
Energy: -101117.1279357  eV PBE+vdW (tier 2 basis)
 N   -0.13651    0.89187    0.61716
 C    0.19490   -0.04071    1.61709
 C    1.77521   -0.21729    1.80628
 O    2.20996   -0.97133    2.67184
 H   -0.44027    0.58021   -0.30523
 H   -0.41578    1.83961    0.86948
 H   -0.11899    0.33475    2.60990
 C   -0.42934   -1.44970    1.36766
 C   -0.13023   -2.29902    2.57663
 O   -0.26671   -1.78884    3.74811
 O    0.38134   -3.45028    2.48467
 H   -0.04247   -1.91971    0.45531
 H   -1.51900   -1.32804    1.27227
 O    2.57457    0.45440    1.03133
 H    2.06826    1.01920    0.40268
Sr    1.83303   -2.81413    4.36981
