16
Energy: -101117.2724512  eV PBE+vdW (tier 2 basis)
 N   -0.27647   -0.00875   -0.06669
 C   -0.34456   -0.12304    1.32719
 C    1.07290   -0.07391    2.03426
 O    1.19012   -0.08519    3.25599
 H   -0.10894   -0.81708   -0.66522
 H   -0.36849    0.89255   -0.53320
 H   -0.87357    0.75073    1.74849
 C   -1.07769   -1.43333    1.77641
 C   -1.22680   -1.36762    3.27703
 O   -1.63999   -0.27584    3.81114
 O   -0.81425   -2.30193    4.02295
 H   -0.52965   -2.33394    1.47472
 H   -2.07176   -1.44162    1.30612
 O    2.05912   -0.02077    1.17385
 H    2.93505    0.01621    1.62148
Sr   -0.01199   -0.56549    5.53050
