16
Energy: -101117.3173646  eV PBE+vdW (tier 2 basis)
 N   -0.71166    0.49015    1.41404
 C    0.33945   -0.23509    1.96474
 C    1.78296    0.31328    1.39179
 O    2.72800   -0.42079    1.35589
 H   -0.89515    1.45059    1.70120
 H   -1.17055    0.18222    0.55735
 H    0.46055    0.03416    3.03395
 C    0.24146   -1.74813    1.78568
 C   -0.44695   -2.44293    2.94870
 O   -0.79282   -3.66147    2.80702
 O   -0.62479   -1.83460    4.06214
 H    1.25469   -2.17575    1.71957
 H   -0.25903   -2.03055    0.84903
 O    1.69049    1.59085    1.07770
 H    2.56533    1.93968    0.79084
Sr   -1.46099   -3.84261    5.05038
