16
Energy: -101117.2468113  eV PBE+vdW (tier 2 basis)
 N   -0.23928    0.34605    0.31803
 C    0.06307   -0.18241    1.58280
 C    1.57531   -0.35655    1.85663
 O    2.00639   -0.72700    2.94832
 H    0.21170    0.00594   -0.53236
 H   -0.99967    1.01571    0.19925
 H   -0.35250    0.46160    2.37162
 C   -0.67466   -1.59390    1.72589
 C   -0.37558   -2.06864    3.16902
 O    0.26729   -3.15406    3.26046
 O   -0.63464   -1.29802    4.13671
 H   -0.30347   -2.30922    0.98451
 H   -1.75663   -1.44835    1.60083
 O    2.31769   -0.07315    0.81160
 H    3.27689   -0.18243    0.99893
Sr    1.42919   -2.01832    5.09855
