16
Energy: -101117.2117300  eV PBE+vdW (tier 2 basis)
 N   -0.79063    1.29051    0.54766
 C   -0.48706    0.59847    1.76556
 C    0.69062   -0.39599    1.55363
 O    0.66041   -1.33646    0.75251
 H   -1.66755    1.80907    0.48824
 H   -0.04395    1.65011   -0.04895
 H   -0.15734    1.31197    2.55066
 C   -1.75337   -0.14791    2.23863
 C   -2.08725   -1.12127    1.12929
 O   -2.06106   -0.68279   -0.08431
 O   -2.21021   -2.36522    1.31668
 H   -2.57083    0.57574    2.38027
 H   -1.60326   -0.67615    3.18680
 O    1.69074   -0.12667    2.35317
 H    2.42794   -0.77166    2.25872
Sr   -0.85919   -2.79974   -0.60955
