16
Energy: -101118.0745600  eV PBE+vdW (tier 2 basis)
 N   -0.59179   -0.88088   -0.70400
 C   -1.31759   -0.13485    0.32217
 C    4.17210   -1.13630    5.51220
 O    4.91628   -0.55475    6.16895
 H   -1.19754   -1.49515   -1.28310
 H    0.10040   -1.49029   -0.18623
 H   -1.70542    0.83597    0.03237
 C   -1.57017   -0.79430    1.60529
 C   -0.37937   -1.53575    2.23260
 O   -0.36246   -1.70953    3.48346
 O    0.55922   -2.00005    1.47520
 H   -2.36021   -1.58105    1.52850
 H   -1.96948   -0.07369    2.33009
 O    3.40315   -1.73777    4.83134
 H   -0.09357   -0.25720   -1.35494
Sr    1.65293   -2.93437    3.49612
