16
Energy: -101117.3318235  eV PBE+vdW (tier 2 basis)
 N   -0.35736    0.60003    0.11488
 C   -0.02129    0.06188    1.35218
 C    1.39372   -0.77311    1.19171
 O    1.43579   -1.93585    1.47836
 H   -0.99572    0.07750   -0.48994
 H    0.17936    1.36748   -0.28884
 H    0.33090    0.86040    2.03507
 C   -1.09314   -0.79252    2.01678
 C   -1.68160   -1.93676    1.21199
 O   -1.61530   -1.94044   -0.07412
 O   -2.27593   -2.87188    1.83654
 H   -1.93372   -0.13142    2.28777
 H   -0.71080   -1.20249    2.96041
 O    2.32967    0.03826    0.74727
 H    3.19578   -0.42381    0.67785
Sr   -2.84120   -4.02593   -0.10172
