16
Energy: -101117.0273979  eV PBE+vdW (tier 2 basis)
 N    0.43803   -0.44142    0.06255
 C    0.19750    0.02797    1.36416
 C    1.59513    0.11828    2.20447
 O    2.13592   -0.88841    2.63398
 H    0.30675   -1.43329   -0.14742
 H    0.83067    0.15762   -0.66325
 H   -0.16801    1.06912    1.31462
 C   -0.79831   -0.86638    2.13758
 C   -0.18580   -2.21516    2.43111
 O   -0.16134   -2.68674    3.60450
 O    0.46025   -2.82242    1.49724
 H   -1.70576   -0.98467    1.52566
 H   -1.08607   -0.38311    3.08027
 O    2.12354    1.29826    2.39431
 H    1.60665    2.04894    2.03693
Sr    2.09594   -3.39677    3.22016
