16
Energy: -101117.2098813  eV PBE+vdW (tier 2 basis)
 N    0.75360   -1.09884    0.04498
 C    0.20153   -0.35128    1.10602
 C    1.37152    0.08433    2.11704
 O    1.80656   -0.63612    3.00790
 H    1.32267   -0.65643   -0.67756
 H    0.61300   -2.10859   -0.00509
 H   -0.15006    0.62363    0.71730
 C   -0.91976   -1.10440    1.83775
 C   -0.35312   -2.26349    2.62074
 O   -0.60868   -2.42285    3.85027
 O    0.53751   -3.00751    2.06331
 H   -1.64866   -1.46431    1.09542
 H   -1.44771   -0.42796    2.52283
 O    1.78494    1.29121    1.82676
 H    2.51310    1.59046    2.41805
Sr    1.68258   -2.95785    4.21528
