16
Energy: -101118.0744403  eV PBE+vdW (tier 2 basis)
 N   -1.54595    0.06571   -0.27000
 C   -1.81208    0.14317    1.16512
 C    5.53071   -1.10088    2.94050
 O    6.44491   -0.63166    3.45747
 H   -1.45790    0.99899   -0.69691
 H   -2.27869   -0.44000   -0.80594
 H   -2.39056    0.99553    1.50529
 C   -1.39402   -0.98052    2.00635
 C    0.02067   -1.52557    1.75721
 O    0.56486   -1.39133    0.59260
 O    0.61191   -2.13203    2.69415
 H   -2.04933   -1.87588    1.87259
 H   -1.49906   -0.71976    3.06697
 O    4.58510   -1.58557    2.40440
 H   -0.63628   -0.46470   -0.36927
Sr    2.53471   -2.64551    1.42849
