16
Energy: -101117.1212144  eV PBE+vdW (tier 2 basis)
 N   -0.74484    0.58225   -0.46079
 C   -0.37226    0.53580    0.96275
 C    0.88622   -0.33974    1.11925
 O    1.16339   -1.22420    0.30075
 H   -0.10904    1.21593   -0.95865
 H   -1.67724    0.99514   -0.56282
 H   -0.10046    1.54348    1.35026
 C   -1.49060    0.12204    1.90449
 C   -2.06598   -1.44205    1.67151
 O   -1.84415   -1.90508    0.52682
 O   -2.61244   -1.79987    2.69281
 H   -2.40769    0.71264    1.76028
 H   -1.18465    0.17384    2.95362
 O    1.57583   -0.05516    2.19048
 H    2.35959   -0.64104    2.29556
Sr   -0.45767   -1.95597   -1.35831
