16
Energy: -101117.3312694  eV PBE+vdW (tier 2 basis)
 N   -0.30554    0.52782   -0.00059
 C    0.09900    0.06579    1.24684
 C    1.46482   -0.84007    1.05093
 O    1.48527   -1.97786    1.42622
 H   -1.00680   -0.00751   -0.51827
 H    0.22905    1.24052   -0.49688
 H    0.53151    0.89482    1.84146
 C   -0.95396   -0.68937    2.04786
 C   -1.64597   -1.86064    1.37541
 O   -2.23088   -2.71911    2.10941
 O   -1.67441   -1.96099    0.09183
 H   -1.74506    0.02694    2.32749
 H   -0.51950   -1.04698    2.99032
 O    2.39418   -0.10705    0.47578
 H    3.23408   -0.61064    0.37985
Sr   -2.98279   -3.98466    0.30935
