16
Energy: -101117.2972311  eV PBE+vdW (tier 2 basis)
 N    0.44179    0.40016   -0.18814
 C    0.00133    0.02239    1.07606
 C    1.08378    0.49325    2.22026
 O    0.69042    0.73398    3.32465
 H    1.25063   -0.04643   -0.61968
 H    0.15553    1.29090   -0.59094
 H   -0.91218    0.56707    1.33982
 C   -0.15131   -1.49650    1.29461
 C   -1.43972   -2.06644    0.69548
 O   -2.31139   -1.31792    0.14222
 O   -1.60658   -3.32601    0.81044
 H   -0.17724   -1.72377    2.37060
 H    0.69858   -2.06120    0.88343
 O    2.30857    0.52182    1.72784
 H    2.95341    0.78139    2.42531
Sr   -3.74461   -3.20470   -0.15296
