16
Energy: -101117.3172254  eV PBE+vdW (tier 2 basis)
 N   -0.58054    0.50397    1.27955
 C    0.39217   -0.24611    1.93168
 C    1.89785    0.21243    1.44647
 O    2.80578   -0.56582    1.50433
 H   -0.99210    0.18372    0.40361
 H   -0.73846    1.48200    1.51844
 H    0.44920    0.05973    2.99643
 C    0.23403   -1.75894    1.80076
 C   -0.56629   -2.37557    2.93573
 O   -0.95762   -3.58256    2.81433
 O   -0.79409   -1.71575    4.01003
 H    1.22741   -2.23497    1.82150
 H   -0.21343   -2.05466    0.84167
 O    1.89052    1.47991    1.08218
 H    2.79940    1.77644    0.84719
Sr   -1.78970   -3.64455    5.00858
