23
Energy: -566891.014107 eV PBE+vdW (tier 2 basis)
C    0.326053  1.509050  -0.152950
C    -0.349225  0.459759  0.669980
O    0.077104  -0.737157  0.470857
H    1.414383  1.386462  -0.094779
H    0.037916  2.525363  0.139771
H    0.038088  1.354183  -1.205597
N    -1.314301  0.833948  1.530167
C    -2.513278  0.133803  2.105868
C    -2.278849  -0.528429  3.488090
O    -1.653166  -1.648671  3.661666
H    -1.401051  1.846875  1.588891
H    -3.201364  0.968121  2.296611
C    -3.231759  -0.798342  1.123644
H    -3.459276  -0.253512  0.199291
H    -4.177040  -1.136444  1.566669
H    -2.670460  -1.699970  0.834773
N    -2.825974  0.037149  4.541455
C    -2.771435  -0.491180  5.912042
H    -3.387794  0.874485  4.394014
H    -3.624594  -1.160560  6.085814
H    -2.824578  0.352708  6.606432
H    -1.839175  -1.044206  6.057083
Hg    -0.435226  -2.154437  1.982210
