23
Energy: -566891.124413 eV PBE+vdW (tier 2 basis)
C    0.070281  0.115010  3.853369
C    0.007028  0.425252  2.393093
O    1.122821  0.328038  1.764648
H    0.901907  0.661367  4.314867
H    0.284948  -0.959996  3.967046
H    -0.870911  0.340466  4.368524
N    -1.175984  0.766156  1.849937
C    -1.655956  0.642461  0.446379
C    -1.580586  1.982746  -0.334419
O    -0.484530  2.376820  -0.901700
H    -1.930617  0.845413  2.531260
H    -0.972464  -0.043072  -0.085463
C    -3.039684  -0.007805  0.453628
H    -3.412725  -0.135654  -0.570015
H    -3.773487  0.572761  1.033752
H    -2.977660  -1.004267  0.907895
N    -2.654090  2.722781  -0.473569
C    -2.720972  3.997685  -1.203151
H    -3.530072  2.349792  -0.109313
H    -2.974622  3.809033  -2.254821
H    -1.754684  4.506317  -1.146860
H    -3.501840  4.612977  -0.746271
Hg    1.222897  1.309719  -0.146813
