23
Energy: -566890.151973 eV PBE+vdW (tier 2 basis)
C    -0.033527  -0.014884  -0.222064
C    0.048341  0.419685  1.219071
O    1.259404  0.667341  1.584753
H    0.966792  -0.073165  -0.661101
H    -0.626992  0.720111  -0.786523
H    -0.506219  -1.005602  -0.279510
N    -1.010679  0.528680  1.991422
C    -2.419844  0.261915  1.645444
C    -3.199569  1.091972  2.684810
O    -2.613600  1.526653  3.680635
H    -0.941041  0.919649  2.945956
H    -2.614835  0.627790  0.627438
C    -2.780581  -1.228542  1.779406
H    -2.193765  -1.831725  1.076773
H    -3.838997  -1.396626  1.548374
H    -2.589201  -1.586307  2.798306
N    -4.540076  1.309677  2.541448
C    -5.396511  1.105193  1.401055
H    -4.944492  1.801681  3.345495
H    -5.799123  2.074018  1.054321
H    -6.273618  0.507363  1.710079
H    -4.880012  0.605287  0.579314
Hg    2.078147  1.463837  3.482101
