23
Energy: -566890.900733 eV PBE+vdW (tier 2 basis)
C    0.423388  -0.929138  -0.038777
C    0.200447  -0.534617  1.386847
O    1.143444  0.155745  1.912892
H    0.362017  -0.023216  -0.662243
H    -0.323291  -1.651655  -0.389764
H    1.433729  -1.338919  -0.157209
N    -0.941158  -0.909674  1.990553
C    -1.576412  -0.356512  3.205279
C    -1.145026  -1.084844  4.510013
O    -0.247840  -0.534598  5.269365
H    -1.561289  -1.463032  1.400551
H    -1.189749  0.668326  3.342185
C    -3.085914  -0.206888  2.998039
H    -3.568438  0.114657  3.929556
H    -3.565049  -1.132709  2.661345
H    -3.268134  0.569193  2.244471
N    -1.667308  -2.209968  4.950122
C    -2.764538  -3.033899  4.426150
H    -1.270574  -2.519821  5.842294
H    -3.737623  -2.631353  4.735254
H    -2.648729  -4.035172  4.852954
H    -2.711958  -3.113662  3.337028
Hg    1.192005  0.536756  4.050097
