23
Energy: -566890.622456 eV PBE+vdW (tier 2 basis)
C    -0.316997  1.027373  -0.249532
C    0.127000  0.246422  0.977192
O    1.329623  -0.089945  1.065112
H    -0.776906  0.305636  -0.943591
H    0.564203  1.461641  -0.729694
H    -1.040336  1.808988  0.005805
N    -0.744201  -0.065711  1.963367
C    -2.196330  -0.076743  1.904783
C    -2.762167  1.226002  2.475053
O    -1.990973  1.990590  3.208724
H    -1.077808  1.628162  3.210378
H    -2.520419  -0.179849  0.855885
C    -2.745534  -1.285538  2.700591
H    -2.438169  -1.221801  3.752895
H    -2.361245  -2.209998  2.254280
H    -3.839478  -1.322429  2.663973
N    -3.989767  1.630926  2.307028
C    -5.079598  0.999332  1.552847
H    -4.224405  2.507908  2.783899
H    -4.699258  0.230794  0.875244
H    -5.583866  1.775145  0.966049
H    -5.800598  0.556213  2.251749
Hg    0.901229  -1.274118  3.048967
