23
Energy: -566890.255003 eV PBE+vdW (tier 2 basis)
C    0.215134  0.561105  0.371560
C    -0.160841  -0.495430  1.378125
O    0.623018  -1.516770  1.330179
H    0.460999  1.494677  0.899706
H    -0.628796  0.727213  -0.313396
H    1.085034  0.242526  -0.210362
N    -1.179955  -0.362809  2.200883
C    -2.110421  0.773664  2.313934
C    -2.669052  0.639179  3.748004
O    -2.480224  -0.391595  4.392318
H    -1.352951  -1.051625  2.951402
H    -1.546651  1.713720  2.214262
C    -3.254543  0.713045  1.286755
H    -3.936237  1.563653  1.412451
H    -3.831680  -0.213276  1.393467
H    -2.858230  0.770790  0.265826
N    -3.399809  1.683664  4.240523
C    -3.991675  1.685683  5.553391
H    -3.448163  2.545898  3.695589
H    -4.097053  0.657532  5.915065
H    -4.951712  2.221571  5.515245
H    -3.351881  2.240239  6.270165
Hg    0.747690  -3.333653  2.594909
