23
Energy: -566890.702467 eV PBE+vdW (tier 2 basis)
C    0.637878  0.757448  1.094550
C    -0.126150  -0.550690  1.217289
O    0.398406  -1.586748  0.751499
H    1.694060  0.534272  0.918800
H    0.519388  1.384109  1.984972
H    0.240245  1.281252  0.210014
N    -1.329096  -0.611269  1.838714
C    -2.260712  0.476780  2.073497
C    -2.435892  0.686639  3.585264
O    -1.675487  0.020479  4.412689
H    -1.083976  -0.568149  3.889719
H    -1.800424  1.405237  1.682909
C    -3.589923  0.259009  1.326050
H    -4.105088  -0.634319  1.704091
H    -3.387618  0.142436  0.255377
H    -4.265105  1.117302  1.430521
N    -3.298382  1.530818  4.075037
C    -3.509407  1.840891  5.499490
H    -3.884176  2.035631  3.410370
H    -3.376337  2.919609  5.644482
H    -2.794960  1.287763  6.111942
H    -4.535106  1.563416  5.771861
Hg    -1.518139  -2.847919  1.273865
