20
Energy: -602566.534843 eV PBE+vdW (tier 2 basis)
C    -0.002043  -0.355355  0.012495
C    -0.417441  0.544991  1.121975
O    -0.297655  1.856466  0.973319
H    -0.872682  -0.917172  -0.359193
H    0.728650  -1.093704  0.373675
H    0.436431  0.206426  -0.815746
N    -0.903966  0.111736  2.245204
C    -1.150585  -1.252600  2.681602
C    -1.736394  -1.035634  4.105638
O    -1.841594  0.139632  4.493632
H    -1.218926  0.721038  3.067772
H    -1.869163  -1.763206  2.023307
H    -0.220617  -1.839763  2.715061
N    -2.079035  -2.120806  4.798514
C    -2.641441  -2.085300  6.148289
H    -1.943597  -3.032914  4.369224
H    -1.987500  -2.634515  6.836873
H    -3.634283  -2.551919  6.148915
H    -2.723192  -1.044177  6.468995
Pb    -0.087843  3.920383  0.690663
