20
Energy: -602567.279561 eV PBE+vdW (tier 2 basis)
C    -0.559766  3.224116  1.904875
C    -0.240665  1.797140  1.659745
O    0.882366  1.312438  2.050948
H    0.284782  3.811840  1.508362
H    -0.592592  3.441386  2.982337
H    -1.478468  3.559921  1.416131
N    -1.091764  0.976986  1.006123
C    -2.504189  0.876590  1.327071
C    -2.654911  0.069966  2.632076
O    -1.610595  -0.334915  3.271043
H    -0.665914  0.112776  0.667860
H    -2.946840  1.873972  1.452858
H    -3.036599  0.387132  0.500955
N    -3.848301  -0.208219  3.106175
C    -5.162327  0.142573  2.555118
H    -3.853599  -0.736937  3.981777
H    -5.068508  0.639867  1.587031
H    -5.682571  0.807856  3.255541
H    -5.750747  -0.774422  2.430468
Pb    0.656211  -0.439067  3.473505
