20
Energy: -602566.458273 eV PBE+vdW (tier 2 basis)
C    0.258783  -0.479025  0.256840
C    -0.029582  0.369454  1.446202
O    0.957827  1.029837  2.034193
H    0.689549  0.137519  -0.545620
H    -0.644544  -0.964912  -0.125603
H    0.988213  -1.258148  0.522339
N    -1.233882  0.473530  1.917797
C    -1.760714  1.222890  3.045276
C    -3.272600  0.855958  2.994926
O    -3.627601  0.087097  2.089406
H    -2.083487  -0.028509  1.500348
H    -1.300464  0.902329  3.991159
H    -1.605091  2.303951  2.916968
N    -4.071734  1.389223  3.920635
C    -5.510049  1.135442  3.996815
H    -3.664868  2.009717  4.615947
H    -5.756320  0.685721  4.966942
H    -5.791117  0.452843  3.191324
H    -6.059486  2.079454  3.891187
Pb    2.987635  1.598276  2.213277
