20
Energy: -602568.017684 eV PBE+vdW (tier 2 basis)
C    -0.826237  0.495460  -0.033315
C    -0.506631  -0.348123  1.149470
O    -0.022037  -1.521177  0.973279
H    0.103946  0.664077  -0.597505
H    -1.264373  1.463832  0.229738
H    -1.505868  -0.048656  -0.702943
N    -0.701388  0.143303  2.376714
C    -0.263469  -0.470852  3.632001
C    -1.205668  -1.564101  4.136661
O    -1.246542  -2.704832  3.549226
H    -1.079046  1.086968  2.433770
H    0.734476  -0.913456  3.493733
H    -0.155164  0.330885  4.371574
N    -1.951687  -1.319217  5.192565
C    -2.892080  -2.250504  5.823737
H    -1.863091  -0.401395  5.627110
H    -2.615573  -2.374362  6.877714
H    -2.854639  -3.213184  5.310837
H    -3.905222  -1.833631  5.766150
Pb    -0.208356  -3.593401  1.763727
