20
Energy: -602567.927012 eV PBE+vdW (tier 2 basis)
C    -0.139736  3.811958  1.818954
C    -0.427058  2.352630  1.781992
O    0.537701  1.518614  1.892478
H    0.403837  4.057196  2.741397
H    -1.037937  4.433654  1.744257
H    0.534089  4.052504  0.982489
N    -1.686072  1.938237  1.603764
C    -2.109886  0.558094  1.362979
C    -2.211141  -0.269570  2.642825
O    -1.134425  -0.721482  3.187261
H    -2.394449  2.662925  1.508608
H    -3.058613  0.589288  0.819686
H    -1.383438  0.061628  0.703491
N    -3.365452  -0.558392  3.203927
C    -4.734898  -0.204317  2.817761
H    -3.283220  -1.139878  4.043088
H    -5.233400  0.259644  3.677238
H    -5.278942  -1.115584  2.539359
H    -4.747122  0.495893  1.979851
Pb    1.062162  -0.432043  2.838594
