20
Energy: -602566.543261 eV PBE+vdW (tier 2 basis)
C    -1.231415  -0.226144  -0.415615
C    -0.778090  0.474943  0.812439
O    0.004477  1.539159  0.668998
H    -1.789382  0.473520  -1.054600
H    -1.867665  -1.087284  -0.193474
H    -0.357427  -0.567310  -0.989070
N    -1.087570  0.128647  2.023345
C    -1.908556  -0.966023  2.520295
C    -1.822930  -0.757118  4.059256
O    -1.140896  0.203079  4.455977
H    -0.759160  0.634363  2.911933
H    -2.945629  -0.886576  2.163768
H    -1.499008  -1.943247  2.226700
N    -2.482994  -1.618296  4.831333
C    -2.502279  -1.559175  6.292964
H    -3.008239  -2.365818  4.384219
H    -1.896405  -0.710832  6.619631
H    -2.091803  -2.488433  6.706812
H    -3.533634  -1.434950  6.645359
Pb    1.230606  3.200496  0.340732
