20
Energy: -602566.468492 eV PBE+vdW (tier 2 basis)
C    0.045173  0.376355  0.178064
C    -0.181971  0.468863  1.642390
O    0.886776  0.573592  2.429028
H    0.592917  1.265270  -0.166827
H    -0.889589  0.294996  -0.383512
H    0.672194  -0.499474  -0.043130
N    -1.340464  0.456001  2.221174
C    -2.684113  0.354252  1.667659
C    -3.552960  0.402106  2.953868
O    -2.942145  0.511660  4.033881
H    -1.512189  0.524835  3.285721
H    -2.912095  1.195223  0.997261
H    -2.828736  -0.586914  1.118240
N    -4.876335  0.325814  2.836147
C    -5.646558  0.179180  1.599681
H    -5.384365  0.356587  3.718788
H    -5.461582  -0.792761  1.123126
H    -5.428619  0.989909  0.892677
H    -6.708488  0.234676  1.852874
Pb    2.564150  0.736828  3.660889
