20
Energy: -602566.583926 eV PBE+vdW (tier 2 basis)
C    -0.257853  1.936893  0.558505
C    -0.262530  1.323696  1.925516
O    0.914559  1.372271  2.597342
H    -0.558033  1.192966  -0.193783
H    0.726663  2.325672  0.287664
H    -0.983263  2.762474  0.511060
N    -1.249079  0.766070  2.521280
C    -2.548532  0.665283  1.887411
C    -3.439057  -0.049549  2.892174
O    -2.875165  -0.385190  4.013573
H    -1.921647  -0.051992  3.901613
H    -2.987938  1.649798  1.650452
H    -2.524420  0.085281  0.948495
N    -4.697679  -0.338180  2.702862
C    -5.516308  -0.052174  1.521762
H    -5.158969  -0.822543  3.476621
H    -4.931958  0.469661  0.760068
H    -6.366247  0.574870  1.815629
H    -5.890860  -0.994775  1.105517
Pb    2.706319  1.459466  3.597241
