20
Energy: -602566.414744 eV PBE+vdW (tier 2 basis)
C    -2.040261  0.372635  0.680703
C    -0.671913  0.406861  1.258975
O    0.043721  1.509717  1.111739
H    -2.546977  -0.582690  0.835094
H    -1.956380  0.549337  -0.403610
H    -2.658403  1.162942  1.122762
N    -0.022784  -0.647737  1.726543
C    -0.700596  -1.723868  2.416772
C    -1.502805  -1.075143  3.605289
O    -1.744470  0.135055  3.545866
H    0.951632  -0.486502  1.983644
H    -1.409530  -2.239391  1.755230
H    0.045560  -2.453510  2.748561
N    -1.891054  -1.915853  4.563585
C    -2.685273  -1.516139  5.728248
H    -1.597541  -2.887305  4.507534
H    -2.054490  -1.470249  6.624640
H    -3.484815  -2.247887  5.886800
H    -3.119798  -0.531437  5.538365
Pb    0.342176  3.583164  0.944259
