37
Energy: -177480.401867 eV PBE+vdW (tier 2 basis)
C    -1.771928  2.158508  1.126598
C    -1.062202  1.317973  2.145533
O    0.070045  1.698297  2.551287
H    -1.101254  2.323811  0.273629
H    -2.710548  1.721780  0.770117
H    -1.976170  3.144345  1.566329
N    -1.682121  0.188454  2.542994
C    -1.273458  -0.853284  3.501551
C    -1.289245  -0.335945  4.953454
O    -0.393756  0.428021  5.420780
H    -2.582008  0.026420  2.101771
H    -2.062176  -1.612357  3.420883
C    0.058527  -1.597093  3.186594
C    0.082680  -2.405310  1.939639
C    -0.071651  -3.804979  1.909528
C    0.298498  -1.993655  0.584291
N    -0.000611  -4.238799  0.634712
C    0.234641  -3.164881  -0.219995
C    0.600896  -0.765719  -0.041550
C    0.418060  -3.149693  -1.594491
C    0.797254  -0.738655  -1.422431
C    0.696623  -1.906335  -2.189813
H    0.243999  -2.256949  4.047540
H    0.908316  -0.874855  3.168346
H    -0.224471  -4.498533  2.730993
H    -0.086522  -5.209162  0.345024
H    0.713044  0.149201  0.538001
H    0.362121  -4.057215  -2.194559
H    1.041573  0.201355  -1.914362
H    0.850050  -1.858144  -3.266676
N    -2.283642  -0.741552  5.733239
C    -2.424439  -0.341109  7.137750
H    -2.993670  -1.351877  5.340157
H    -3.283111  -0.867457  7.561564
H    -2.585730  0.741149  7.210184
H    -1.519577  -0.604650  7.697076
Cd    1.330963  1.240896  4.310311
