37
Energy: -177480.385945 eV PBE+vdW (tier 2 basis)
C    0.602616  0.961208  0.497593
C    0.240636  0.524125  1.881860
O    1.018000  0.827919  2.833584
H    0.652814  2.059096  0.480955
H    -0.110287  0.623959  -0.262457
H    1.606727  0.593099  0.251681
N    -0.911984  -0.153144  2.048251
C    -1.542313  -0.502360  3.323054
C    -0.979742  -1.843873  3.836219
O    0.066528  -1.865667  4.562451
H    -1.433486  -0.395530  1.207647
H    -1.213306  0.245542  4.060590
C    -3.089215  -0.351174  3.245096
C    -3.827102  -1.131795  2.199220
C    -4.001891  -0.756879  0.858570
C    -4.574060  -2.348638  2.373461
N    -4.769661  -1.679135  0.223644
C    -5.147423  -2.673316  1.112772
C    -4.871259  -3.170776  3.485059
C    -5.961545  -3.784183  0.919411
C    -5.687335  -4.285540  3.299555
C    -6.218676  -4.592428  2.037800
H    -3.274950  0.722765  3.098120
H    -3.486294  -0.591470  4.241065
H    -3.682820  0.144766  0.343349
H    -5.074728  -1.614559  -0.743190
H    -4.496975  -2.930935  4.481077
H    -6.397576  -4.016688  -0.051499
H    -5.933428  -4.919133  4.149992
H    -6.858796  -5.465725  1.923135
N    -1.570462  -2.974740  3.498610
C    -1.097062  -4.299286  3.909916
H    -2.424101  -2.921183  2.940424
H    -0.123461  -4.516766  3.454080
H    -1.828670  -5.040300  3.578222
H    -0.995615  -4.345000  5.000227
Cd    1.431555  -0.154567  4.754050
