37
Energy: -177479.956672 eV PBE+vdW (tier 2 basis)
C    -1.073745  0.613242  -0.674330
C    -0.633884  0.380947  0.731606
O    0.263739  1.110964  1.242306
H    -0.190144  0.882771  -1.267132
H    -1.562948  -0.257541  -1.121515
H    -1.749874  1.480991  -0.713642
N    -1.176745  -0.621076  1.475312
C    -2.595634  -0.928915  1.548544
C    -3.218982  0.044476  2.588259
O    -2.572308  1.031120  3.053141
H    -0.663143  -0.798761  2.340194
H    -3.048341  -0.689500  0.575379
C    -2.804252  -2.445694  1.850247
C    -4.196336  -2.970448  1.691310
C    -4.999635  -3.495744  2.723120
C    -4.932394  -3.156765  0.476595
N    -6.154711  -3.967511  2.201131
C    -6.161221  -3.782250  0.821332
C    -4.661416  -2.895329  -0.884521
C    -7.116669  -4.132414  -0.121450
C    -5.614680  -3.241288  -1.841488
C    -6.822950  -3.844797  -1.468331
H    -2.437953  -2.662761  2.864206
H    -2.141288  -2.979927  1.153439
H    -4.783336  -3.586035  3.783489
H    -6.887223  -4.429347  2.732919
H    -3.714488  -2.453620  -1.196021
H    -8.051203  -4.619525  0.154587
H    -5.416270  -3.052308  -2.894930
H    -7.549732  -4.110418  -2.234442
N    -4.476353  -0.165608  2.943987
C    -5.220230  0.686892  3.875784
H    -4.939584  -0.989180  2.553369
H    -6.228308  0.279183  3.985242
H    -5.284615  1.709736  3.486713
H    -4.727478  0.708629  4.854856
Cd    -0.468348  1.902383  3.222780
