37
Energy: -177480.452597 eV PBE+vdW (tier 2 basis)
C    -1.795203  1.431480  5.654745
C    -1.273111  0.874956  4.367429
O    -0.141732  0.304208  4.368468
H    -1.805817  0.628541  6.404369
H    -1.101016  2.198765  6.022735
H    -2.798639  1.859933  5.564277
N    -2.048393  0.993380  3.272474
C    -1.810621  0.376977  1.965221
C    -0.949458  1.318126  1.100707
O    0.322616  1.294987  1.184000
H    -2.927338  1.498881  3.383612
H    -1.185180  -0.514308  2.134521
C    -3.129592  -0.158956  1.333492
C    -4.249954  0.815073  1.134486
C    -4.652339  1.375704  -0.090753
C    -5.182951  1.289152  2.116548
N    -5.735041  2.169458  0.106924
C    -6.096505  2.149792  1.446922
C    -5.385725  1.023602  3.490364
C    -7.151175  2.779943  2.096836
C    -6.440386  1.650182  4.149488
C    -7.303393  2.522839  3.467397
H    -3.468596  -0.977326  1.985655
H    -2.858477  -0.624789  0.375769
H    -4.269841  1.192476  -1.091354
H    -6.245440  2.649651  -0.628444
H    -4.767388  0.299327  4.023325
H    -7.844269  3.434769  1.569983
H    -6.618360  1.442821  5.203359
H    -8.124133  2.994030  4.005891
N    -1.539474  2.177134  0.292592
C    -0.823870  3.148034  -0.541221
H    -2.564766  2.156456  0.264019
H    -1.561422  3.735036  -1.094240
H    -0.163949  2.630752  -1.247414
H    -0.220200  3.815924  0.084391
Cd    1.362140  0.205991  2.775429
