37
Energy: -177480.943604 eV PBE+vdW (tier 2 basis)
C    -3.116170  -3.078176  1.708986
C    -2.550433  -1.798607  2.233550
O    -1.498004  -1.331739  1.712059
H    -2.376223  -3.877539  1.851811
H    -3.274561  -2.981856  0.626977
H    -4.056550  -3.365054  2.191358
N    -3.200678  -1.190247  3.258450
C    -2.748151  0.085012  3.789733
C    -1.651650  -0.083344  4.860125
O    -0.444733  -0.013117  4.475397
H    -4.026132  -1.646825  3.636839
H    -2.179164  0.471502  2.949252
C    -3.804449  1.216839  3.937428
C    -3.800625  1.962541  2.625058
C    -4.846662  2.113462  1.729013
C    -2.631045  2.454577  1.949793
N    -4.385785  2.651920  0.556375
C    -3.030580  2.845781  0.636531
C    -1.257535  2.613181  2.299261
C    -2.128028  3.306854  -0.326416
C    -0.339013  3.075954  1.302267
C    -0.774779  3.381095  0.004537
H    -3.509234  1.874799  4.768677
H    -4.804419  0.833512  4.178709
H    -5.897260  1.867912  1.848599
H    -4.967554  2.880939  -0.244033
H    -0.959875  2.674495  3.351735
H    -2.469234  3.606009  -1.317840
H    0.685439  3.312417  1.595311
H    -0.057899  3.736961  -0.732815
N    -1.985511  -0.304391  6.122458
C    -1.037507  -0.511980  7.221412
H    -2.975593  -0.326529  6.353357
H    -1.231858  -1.481847  7.693969
H    -1.156232  0.282964  7.967202
H    -0.021293  -0.494220  6.821720
Cd    -0.217022  0.425743  2.250157
