37
Energy: -177479.776198 eV PBE+vdW (tier 2 basis)
C    -1.021201  -0.245070  -0.609456
C    -0.374328  -0.645557  0.674884
O    0.236856  -1.752229  0.742001
H    -0.885666  0.816842  -0.836161
H    -2.100527  -0.463522  -0.562540
H    -0.602291  -0.856685  -1.415023
N    -0.405261  0.152224  1.780418
C    -1.569680  0.850930  2.332907
C    -2.620334  -0.219432  2.749364
O    -2.361657  -1.456571  2.701796
H    0.243939  -0.171301  2.496897
H    -1.204508  1.296728  3.270396
C    -2.109748  2.017902  1.453483
C    -2.888946  3.059508  2.199909
C    -2.357216  3.986908  3.119257
C    -4.279766  3.374144  2.073896
N    -3.337655  4.811518  3.546105
C    -4.541031  4.479408  2.931854
C    -5.339465  2.852219  1.294747
C    -5.793509  5.063111  3.045090
C    -6.602410  3.430995  1.402462
C    -6.828529  4.515409  2.262317
H    -2.719761  1.628124  0.630149
H    -1.226659  2.491897  0.999928
H    -1.334897  4.111627  3.463357
H    -3.205835  5.581653  4.196313
H    -5.176463  2.021710  0.607477
H    -5.978789  5.914092  3.699568
H    -7.425079  3.045904  0.802563
H    -7.823384  4.953985  2.323078
N    -3.796845  0.208167  3.186764
C    -4.855492  -0.679942  3.674426
H    -3.975063  1.211809  3.177750
H    -5.695671  -0.063322  4.003389
H    -4.492636  -1.279152  4.517624
H    -5.189915  -1.354367  2.877211
Cd    -0.685416  -2.989166  2.375778
