37
Energy: -177480.723025 eV PBE+vdW (tier 2 basis)
C    0.211864  2.150121  1.414864
C    0.102074  1.012441  2.376945
O    1.194838  0.369336  2.619434
H    0.539883  1.754976  0.442741
H    -0.736541  2.680979  1.284589
H    0.987939  2.847819  1.753910
N    -1.087118  0.734885  2.892226
C    -1.582771  -0.443368  3.599066
C    -2.956144  -0.717201  2.874733
O    -3.493961  0.244169  2.325950
H    -1.911595  1.222717  2.488265
H    -0.899477  -1.297086  3.440747
C    -1.892407  -0.202929  5.108761
C    -0.797209  0.349636  5.972304
C    -0.787674  1.626684  6.533618
C    0.400749  -0.273529  6.426318
N    0.334354  1.812156  7.283140
C    1.103292  0.673659  7.246342
C    1.014846  -1.575562  6.228606
C    2.301989  0.376590  7.882720
C    2.262769  -1.846377  6.891159
C    2.882948  -0.888736  7.683612
H    -2.250129  -1.158576  5.521735
H    -2.751901  0.480051  5.155626
H    -1.535016  2.410666  6.451393
H    0.546601  2.651080  7.816016
H    0.388734  -2.430924  5.948280
H    2.787458  1.104345  8.534222
H    2.695564  -2.842164  6.798283
H    3.820276  -1.129110  8.182150
N    -3.452943  -1.957780  2.957999
C    -4.751592  -2.340715  2.396679
H    -2.904130  -2.681301  3.410112
H    -5.417633  -2.694855  3.192300
H    -4.619194  -3.134035  1.651908
H    -5.191920  -1.462520  1.917632
Cd    1.599122  -0.921393  4.181615
