37
Energy: -177480.398847 eV PBE+vdW (tier 2 basis)
C    -0.111053  2.262887  1.179527
C    -0.919551  1.337306  2.033434
O    -1.749582  1.821977  2.854680
H    0.500989  1.743499  0.434595
H    0.535214  2.875688  1.822466
H    -0.795848  2.953253  0.669421
N    -0.730767  0.012322  1.872717
C    -1.577316  -1.057258  2.410340
C    -1.043637  -1.516633  3.783870
O    -1.178541  -0.775831  4.805371
H    -0.031629  -0.258163  1.186219
H    -2.562833  -0.609412  2.612392
C    -1.772689  -2.176372  1.356165
C    -2.436600  -1.709715  0.097804
C    -3.822856  -1.626558  -0.116976
C    -1.812683  -1.278358  -1.112674
N    -4.058341  -1.162297  -1.365336
C    -2.852456  -0.933716  -2.020512
C    -0.471992  -1.176080  -1.547484
C    -2.605805  -0.480773  -3.307840
C    -0.211626  -0.719305  -2.837690
C    -1.259583  -0.373442  -3.703507
H    -2.378354  -2.968252  1.820711
H    -0.798795  -2.625784  1.099933
H    -4.641857  -1.894332  0.543574
H    -4.979518  -1.040429  -1.775817
H    0.357344  -1.486529  -0.908623
H    -3.411455  -0.224380  -3.994870
H    0.816084  -0.647239  -3.189320
H    -1.031471  -0.027547  -4.710457
N    -0.430272  -2.684209  3.898346
C    0.117777  -3.192647  5.161505
H    -0.333073  -3.265960  3.072081
H    0.956157  -2.567632  5.491742
H    0.466199  -4.215477  4.998848
H    -0.657551  -3.186951  5.935761
Cd    -2.167282  1.202079  4.936676
