37
Energy: -177480.159736 eV PBE+vdW (tier 2 basis)
C    -0.295321  1.418228  0.193964
C    -0.266773  0.936502  1.610272
O    0.711743  1.234713  2.345816
H    -0.287898  2.516879  0.195838
H    -1.167159  1.065642  -0.367611
H    0.622474  1.094662  -0.313619
N    -1.308278  0.193108  2.048527
C    -1.477896  -0.223110  3.439154
C    -0.455874  -1.309807  3.845460
O    0.420042  -1.026450  4.719230
H    -2.079042  0.048710  1.401968
H    -1.214538  0.636240  4.074306
C    -2.958871  -0.565864  3.755973
C    -3.253922  -0.631494  5.223782
C    -3.666366  0.465821  6.003405
C    -3.220937  -1.758440  6.101077
N    -3.866759  0.065577  7.277487
C    -3.608746  -1.297265  7.390257
C    -2.937008  -3.132502  5.935867
C    -3.705008  -2.132325  8.492190
C    -3.030168  -3.983243  7.035539
C    -3.403904  -3.493983  8.294240
H    -3.259288  -1.501007  3.265628
H    -3.565961  0.234025  3.305450
H    -3.849454  1.493330  5.703622
H    -4.200709  0.661915  8.029253
H    -2.668338  -3.536815  4.961236
H    -4.007727  -1.764403  9.471892
H    -2.821911  -5.045072  6.917188
H    -3.474707  -4.178399  9.138121
N    -0.457407  -2.527820  3.309596
C    -1.323496  -3.117843  2.289532
H    0.280716  -3.128099  3.679761
H    -0.738005  -3.859389  1.736189
H    -1.667670  -2.363253  1.578265
H    -2.188451  -3.627308  2.734796
Cd    1.571656  0.865600  4.388001
