37
Energy: -177480.390153 eV PBE+vdW (tier 2 basis)
C    -1.262110  4.456096  3.809063
C    -1.240391  3.049411  3.298515
O    -0.874047  2.119775  4.071537
H    -1.631145  5.181489  3.076230
H    -1.895577  4.491778  4.705751
H    -0.249842  4.740047  4.125803
N    -1.635765  2.836296  2.027072
C    -1.884944  1.534125  1.399239
C    -0.588260  1.000667  0.753042
O    0.330480  0.500098  1.470054
H    -1.894171  3.660280  1.490758
H    -2.120676  0.830630  2.212041
C    -3.114598  1.615713  0.462458
C    -4.394174  1.906167  1.183144
C    -5.108666  3.113521  1.142434
C    -5.147923  1.016815  2.011154
N    -6.226793  3.002495  1.897668
C    -6.296620  1.728682  2.452006
C    -4.993134  -0.331923  2.399869
C    -7.267166  1.158680  3.262863
C    -5.961857  -0.915062  3.216437
C    -7.077542  -0.183517  3.644321
H    -3.201866  0.650695  -0.060590
H    -2.951651  2.384715  -0.310456
H    -4.895482  4.025094  0.592238
H    -6.931624  3.726229  2.003651
H    -4.148201  -0.926273  2.049992
H    -8.147059  1.712398  3.588469
H    -5.860603  -1.956664  3.515916
H    -7.823970  -0.662329  4.276117
N    -0.424911  1.079881  -0.558647
C    0.782509  0.619154  -1.254584
H    -1.176558  1.466313  -1.120755
H    0.640034  0.769024  -2.327466
H    0.952005  -0.444664  -1.051917
H    1.655710  1.189620  -0.917087
Cd    0.402591  0.354546  3.683662
