37
Energy: -177480.203854 eV PBE+vdW (tier 2 basis)
C    0.058527  -1.011172  0.264665
C    -0.066775  -0.486868  1.660687
O    0.965045  -0.078337  2.259974
H    -0.900203  -1.315526  -0.169131
H    0.746440  -1.867137  0.263892
H    0.514064  -0.235922  -0.365407
N    -1.293534  -0.481875  2.223798
C    -1.601103  0.137579  3.509940
C    -1.017984  -0.658161  4.702757
O    -0.062885  -0.144748  5.368151
H    -2.071728  -0.741427  1.621830
H    -1.066524  1.100020  3.549992
C    -3.112178  0.463522  3.660814
C    -3.622506  1.375952  2.590809
C    -3.621124  2.780584  2.624886
C    -4.209725  1.002618  1.342154
N    -4.156695  3.259921  1.478930
C    -4.535139  2.204607  0.654669
C    -4.529431  -0.233814  0.736645
C    -5.136264  2.214725  -0.594950
C    -5.128196  -0.236025  -0.521773
C    -5.424327  0.967217  -1.178975
H    -3.242724  0.922346  4.650841
H    -3.705293  -0.459422  3.667669
H    -3.291837  3.451493  3.412411
H    -4.302231  4.244035  1.272897
H    -4.358945  -1.180601  1.254487
H    -5.387147  3.142151  -1.108523
H    -5.390968  -1.180516  -0.994956
H    -5.901847  0.940313  -2.157160
N    -1.486653  -1.841651  5.080788
C    -2.571535  -2.659617  4.537866
H    -1.009430  -2.216865  5.902164
H    -3.526868  -2.429821  5.027033
H    -2.329163  -3.709892  4.730455
H    -2.658768  -2.527866  3.455927
Cd    1.649622  0.699833  4.239633
