37
Energy: -177481.069658 eV PBE+vdW (tier 2 basis)
C    0.907677  0.372207  0.782082
C    0.233564  0.180075  2.100573
O    0.926429  0.128720  3.155711
H    1.498114  1.297669  0.815936
H    0.207396  0.419911  -0.058527
H    1.616391  -0.451100  0.620517
N    -1.122577  0.070057  2.116942
C    -1.817825  -0.043121  3.387182
C    -1.816124  -1.493066  3.920668
O    -0.961993  -1.838684  4.794739
H    -1.625947  0.112930  1.235323
H    -1.133411  0.480545  4.052942
C    -3.117520  0.748130  3.638417
C    -3.289980  0.762878  5.139335
C    -4.376535  0.280247  5.849315
C    -2.279642  1.054184  6.121724
N    -4.087699  0.243722  7.188252
C    -2.803931  0.673632  7.395557
C    -0.961164  1.593448  6.093284
C    -2.056184  0.725532  8.576980
C    -0.191361  1.618386  7.301533
C    -0.733840  1.157845  8.513974
H    -4.000074  0.315987  3.147785
H    -2.987356  1.761356  3.228039
H    -5.346049  -0.045439  5.485433
H    -4.734742  -0.050690  7.913575
H    -0.629582  2.216514  5.255714
H    -2.494545  0.429883  9.530483
H    0.771545  2.132453  7.303653
H    -0.132717  1.197864  9.420202
N    -2.690062  -2.362950  3.439621
C    -2.741828  -3.777690  3.824018
H    -3.342790  -2.042990  2.729905
H    -3.745786  -4.159439  3.619246
H    -2.518356  -3.875511  4.890366
H    -2.008541  -4.358248  3.249770
Cd    0.438368  -0.213075  5.351907
