37
Energy: -177480.298605 eV PBE+vdW (tier 2 basis)
C    -0.565327  1.737098  0.854330
C    -0.601681  1.140179  2.226122
O    -0.011104  1.740283  3.169934
H    -1.004482  2.743473  0.903245
H    -1.106865  1.146391  0.107860
H    0.478838  1.862477  0.540188
N    -1.288396  -0.007242  2.393281
C    -1.704024  -0.607827  3.668212
C    -0.647167  -1.592468  4.214960
O    0.520723  -1.190141  4.504312
H    -1.743519  -0.383894  1.564151
H    -1.718028  0.207748  4.411000
C    -3.152595  -1.116557  3.560342
C    -3.507882  -2.101212  2.478971
C    -2.685468  -2.827582  1.604598
C    -4.857623  -2.468119  2.151699
N    -3.459688  -3.594250  0.786943
C    -4.797751  -3.405734  1.090221
C    -6.117549  -2.092705  2.660239
C    -5.935235  -3.975486  0.524318
C    -7.266202  -2.659171  2.099207
C    -7.178005  -3.582997  1.051457
H    -3.787157  -0.225172  3.431802
H    -3.447161  -1.514729  4.546310
H    -1.604307  -2.861320  1.510770
H    -3.104611  -4.213908  0.065033
H    -6.208129  -1.376243  3.476617
H    -5.875293  -4.694960  -0.291573
H    -8.245098  -2.377924  2.483348
H    -8.087796  -4.009720  0.632392
N    -0.976867  -2.859059  4.420516
C    -0.071843  -3.853962  5.002404
H    -1.896470  -3.170856  4.117006
H    0.489488  -3.402791  5.826612
H    0.638345  -4.219546  4.249652
H    -0.669382  -4.689599  5.376406
Cd    1.198312  0.899529  4.799117
