37
Energy: -177480.380326 eV PBE+vdW (tier 2 basis)
C    0.163458  0.941055  0.534703
C    0.101206  0.535332  1.976261
O    1.057811  0.642322  2.754402
H    0.359904  2.020956  0.488175
H    -0.750724  0.721569  -0.027453
H    1.017001  0.442388  0.059263
N    -1.095734  0.024465  2.433383
C    -1.301905  -0.228832  3.854289
C    -0.688401  -1.603232  4.252316
O    -1.365257  -2.645197  4.607073
H    -1.844260  -0.162963  1.773524
H    -0.682506  0.517400  4.374281
C    -2.791051  0.017860  4.192772
C    -3.196193  0.091933  5.643854
C    -4.337797  -0.630248  6.207118
C    -2.715571  0.935267  6.663986
N    -4.528561  -0.166993  7.498463
C    -3.571291  0.760026  7.812672
C    -1.661916  1.889687  6.726727
C    -3.388121  1.476390  8.997385
C    -1.498050  2.603885  7.890151
C    -2.347262  2.393148  9.014148
H    -3.426486  -0.711134  3.662394
H    -3.033083  0.996738  3.746912
H    -5.213549  -0.934297  5.627266
H    -5.306857  -0.430117  8.096157
H    -1.011566  2.072084  5.873253
H    -4.037162  1.337746  9.860708
H    -0.709921  3.351531  7.962640
H    -2.175124  2.980196  9.916050
N    0.618239  -1.659310  4.139307
C    1.447863  -2.834702  4.385330
H    1.052814  -0.794603  3.735128
H    1.671828  -3.340220  3.436234
H    0.929820  -3.532917  5.047594
H    2.388933  -2.508384  4.839910
Cd    -3.018240  -2.509874  5.899442
