37
Energy: -177479.797375 eV PBE+vdW (tier 2 basis)
C    -0.259962  0.035027  0.824174
C    -1.028883  0.555249  1.992968
O    -0.580915  1.549395  2.637571
H    -0.906035  -0.251560  -0.011195
H    0.333550  -0.841898  1.130877
H    0.447134  0.806756  0.502865
N    -2.210246  0.001572  2.387787
C    -2.502426  -1.426316  2.546882
C    -1.565506  -1.989090  3.649748
O    -0.873693  -1.231063  4.393166
H    -2.696545  0.589297  3.063785
H    -3.514456  -1.456527  2.977720
C    -2.548209  -2.235883  1.214993
C    -3.346963  -3.502511  1.270392
C    -2.838657  -4.800682  1.068787
C    -4.763528  -3.646363  1.426950
N    -3.854190  -5.694763  1.111125
C    -5.058053  -5.032770  1.328537
C    -5.829683  -2.735867  1.597958
C    -6.348639  -5.535335  1.417306
C    -7.131647  -3.229285  1.688952
C    -7.388030  -4.603561  1.605603
H    -1.532445  -2.459590  0.866791
H    -3.005103  -1.567241  0.469882
H    -1.821805  -5.116865  0.854155
H    -3.755404  -6.694695  0.959312
H    -5.654176  -1.660326  1.633168
H    -6.561662  -6.600625  1.335655
H    -7.962822  -2.537785  1.814517
H    -8.413025  -4.964388  1.675205
N    -1.548324  -3.301359  3.826189
C    -0.785625  -3.976333  4.880114
H    -2.123855  -3.866926  3.197684
H    -1.012998  -5.044598  4.839455
H    -1.066119  -3.582827  5.863898
H    0.290626  -3.829073  4.731037
Cd    -0.266177  0.931891  4.774024
