37
Energy: -177480.975331 eV PBE+vdW (tier 2 basis)
C    0.297946  -0.189375  0.274562
C    -0.218471  0.095401  1.646530
O    0.383854  0.926557  2.382150
H    0.342785  0.750917  -0.291175
H    -0.311968  -0.913966  -0.275318
H    1.327719  -0.563298  0.351587
N    -1.338037  -0.560661  2.058209
C    -1.908344  -0.253347  3.358278
C    -1.180727  -0.987509  4.507634
O    -0.358177  -0.331500  5.224894
H    -1.778428  -1.215892  1.419112
H    -1.583326  0.777595  3.488042
C    -3.435557  -0.074292  3.524441
C    -3.618358  0.700898  4.806856
C    -4.315311  0.286520  5.928913
C    -2.918221  1.893818  5.200954
N    -4.071733  1.136002  6.977116
C    -3.192976  2.110653  6.586670
C    -2.056221  2.820803  4.551483
C    -2.590649  3.128247  7.334964
C    -1.415325  3.839559  5.329573
C    -1.667937  3.961588  6.708599
H    -3.993312  -1.017216  3.558678
H    -3.802121  0.487496  2.651214
H    -4.974662  -0.566780  6.053542
H    -4.486629  1.052290  7.900296
H    -2.064002  2.926024  3.461465
H    -2.829948  3.264911  8.389808
H    -0.844628  4.615906  4.816602
H    -1.179625  4.752411  7.274615
N    -1.365500  -2.276224  4.752998
C    -2.222769  -3.240487  4.067666
H    -0.802496  -2.636984  5.525143
H    -3.052515  -3.545833  4.717626
H    -1.631580  -4.127408  3.811658
H    -2.629587  -2.820373  3.145433
Cd    0.070568  1.714593  4.497506
