37
Energy: -177481.518503 eV PBE+vdW (tier 2 basis)
C    -3.938626  -1.644045  0.731691
C    -2.994389  -0.843045  1.578498
O    -2.121610  -1.468746  2.239759
H    -3.356623  -2.171517  -0.036737
H    -4.411784  -2.413386  1.354467
H    -4.712791  -1.044041  0.242037
N    -3.142478  0.499168  1.540889
C    -2.419060  1.602994  2.201599
C    -0.901756  1.576703  1.929434
O    -0.084439  0.836396  2.549237
H    -3.894023  0.807373  0.931608
H    -2.790265  2.490812  1.675344
C    -2.790149  1.858541  3.717803
C    -3.197240  0.699980  4.578773
C    -4.489471  0.196064  4.678096
C    -2.404567  -0.100526  5.463590
N    -4.525459  -0.861177  5.540575
C    -3.266615  -1.086658  6.044178
C    -1.010320  -0.125124  5.841092
C    -2.819329  -2.035475  6.960104
C    -0.572595  -1.122731  6.758085
C    -1.460971  -2.055892  7.295113
H    -3.624204  2.571733  3.701916
H    -1.950658  2.402704  4.173277
H    -5.398748  0.546790  4.199415
H    -5.364843  -1.364842  5.810093
H    -0.381626  0.758949  5.687657
H    -3.508402  -2.750681  7.410074
H    0.467405  -1.114351  7.082485
H    -1.096749  -2.794212  8.007048
N    -0.450557  2.430400  1.018022
C    0.965149  2.554947  0.658304
H    -1.110777  3.047585  0.555469
H    1.048403  3.255793  -0.175989
H    1.365311  1.579486  0.359842
H    1.543289  2.932077  1.510707
Cd    -0.663435  -0.910046  3.729445
