37
Energy: -177480.089123 eV PBE+vdW (tier 2 basis)
C    2.138647  0.342163  1.243802
C    1.130480  0.186622  2.337188
O    1.479148  -0.337472  3.430881
H    1.709196  0.725423  0.311817
H    2.621244  -0.625229  1.056414
H    2.924716  1.029921  1.585954
N    -0.130433  0.620574  2.113914
C    -1.145616  0.628218  3.156843
C    -1.608176  -0.796807  3.535908
O    -1.442597  -1.163495  4.746276
H    -0.336767  1.045865  1.214348
H    -0.641322  0.965753  4.075927
C    -2.258008  1.698313  2.957863
C    -3.196323  1.601673  1.800356
C    -3.042977  2.233679  0.555270
C    -4.468853  0.948174  1.765860
N    -4.124362  1.974301  -0.219735
C    -5.031365  1.189435  0.483940
C    -5.205176  0.192306  2.703046
C    -6.275760  0.701989  0.106258
C    -6.456110  -0.303308  2.334135
C    -6.982366  -0.055717  1.058594
H    -1.731727  2.664106  2.927471
H    -2.835419  1.704226  3.893773
H    -2.251624  2.889407  0.203679
H    -4.277865  2.354401  -1.149363
H    -4.820512  0.010233  3.707032
H    -6.700445  0.899265  -0.877421
H    -7.041605  -0.877639  3.049985
H    -7.964942  -0.446017  0.798025
N    -2.135782  -1.663092  2.679926
C    -2.407417  -1.574727  1.248265
H    -2.347530  -2.563807  3.114068
H    -2.143434  -0.591448  0.858684
H    -3.473957  -1.748428  1.063468
H    -1.824215  -2.345092  0.727604
Cd    0.657251  -0.893769  5.453948
