37
Energy: -177480.877038 eV PBE+vdW (tier 2 basis)
C    0.257701  -0.975639  0.692355
C    -0.752439  -0.371928  1.612992
O    -1.023641  0.857803  1.508582
H    -0.030667  -0.761649  -0.344934
H    1.226826  -0.485958  0.860036
H    0.371300  -2.056872  0.824198
N    -1.337774  -1.182886  2.532331
C    -2.363280  -0.680474  3.431063
C    -1.767356  -0.009396  4.685716
O    -1.658607  1.257060  4.664651
H    -1.043280  -2.154842  2.566671
H    -2.711828  0.186678  2.878499
C    -3.698233  -1.474910  3.527807
C    -4.598205  -0.923199  2.450002
C    -5.124560  -1.597142  1.359494
C    -4.885005  0.467136  2.227600
N    -5.698969  -0.707596  0.490302
C    -5.546854  0.569326  0.966870
C    -4.657599  1.672137  2.955823
C    -5.913486  1.792386  0.397993
C    -5.026140  2.921122  2.358763
C    -5.612416  2.968352  1.085676
H    -4.130110  -1.321461  4.528351
H    -3.555833  -2.556816  3.411251
H    -5.125903  -2.660652  1.141938
H    -6.174910  -0.962803  -0.369846
H    -4.492129  1.639458  4.038162
H    -6.426829  1.832988  -0.563082
H    -4.962882  3.832243  2.956314
H    -5.889292  3.929720  0.657479
N    -1.367702  -0.698429  5.743372
C    -1.386764  -2.143854  5.952598
H    -0.979838  -0.129862  6.498257
H    -2.006986  -2.388282  6.823535
H    -1.796024  -2.656285  5.078346
H    -0.366789  -2.505598  6.130765
Cd    -2.322497  2.229120  2.721075
