37
Energy: -177480.46519 eV PBE+vdW (tier 2 basis)
C    1.761624  -0.826666  1.221226
C    0.756020  -0.803581  2.324648
O    0.438202  -1.937934  2.843134
H    2.653374  -1.378330  1.543280
H    2.038681  0.176908  0.883397
H    1.331631  -1.382275  0.374594
N    0.247989  0.370139  2.694997
C    -0.979806  0.685575  3.424669
C    -1.564810  1.891287  2.587857
O    -0.759186  2.557551  1.939212
H    0.497376  1.211023  2.135721
H    -1.677480  -0.170130  3.387270
C    -0.762337  1.194531  4.883438
C    -0.172675  0.287826  5.930352
C    -0.845380  -0.834163  6.593527
C    1.052138  0.470891  6.595737
N    -0.034661  -1.213526  7.670146
C    1.107328  -0.467352  7.691343
C    2.124761  1.385047  6.405072
C    2.192555  -0.520020  8.572764
C    3.179806  1.336165  7.283784
C    3.211039  0.392853  8.353838
H    -1.744055  1.538173  5.246528
H    -0.134210  2.092410  4.817965
H    -1.928297  -0.894414  6.726411
H    -0.289663  -1.914131  8.360265
H    2.107980  2.109117  5.591746
H    2.230981  -1.228436  9.398800
H    4.013039  2.028325  7.173750
H    4.069426  0.396312  9.025378
N    -2.880146  2.119221  2.689045
C    -3.554282  3.230912  2.011331
H    -3.459100  1.460881  3.200129
H    -4.216981  2.850196  1.224867
H    -2.793230  3.874277  1.562535
H    -4.141439  3.806664  2.735578
Cd    -0.432852  -2.064783  4.736066
