37
Energy: -177480.171715 eV PBE+vdW (tier 2 basis)
C    -0.469313  1.116357  0.603706
C    -0.834559  0.400357  1.867289
O    -0.235264  0.639229  2.974250
H    -0.968770  0.715935  -0.284967
H    -0.745093  2.178656  0.691829
H    0.617334  1.058261  0.454290
N    -1.808093  -0.508974  1.820446
C    -2.380081  -1.291816  2.930995
C    -2.836259  -2.708195  2.436622
O    -3.836799  -3.217904  2.918644
H    -2.236018  -0.660623  0.907763
H    -1.572028  -1.447678  3.660572
C    -3.575407  -0.583000  3.627061
C    -3.116048  0.343536  4.703514
C    -2.824542  -0.027948  6.023186
C    -2.681732  1.684835  4.576771
N    -2.180436  0.980019  6.672185
C    -2.009770  2.037095  5.804534
C    -2.735235  2.625641  3.523977
C    -1.182774  3.141744  5.895010
C    -1.969958  3.776682  3.606298
C    -1.104508  4.005421  4.743408
H    -4.202380  -1.391380  4.030179
H    -4.185922  -0.063912  2.875385
H    -3.038790  -0.965651  6.529464
H    -1.872765  0.947133  7.640234
H    -3.353605  2.439212  2.646264
H    -0.610167  3.378920  6.792043
H    -2.005773  4.532560  2.822198
H    -0.610482  4.972941  4.851611
N    -2.061022  -3.289135  1.488973
C    -2.331204  -4.648264  1.014252
H    -1.145749  -2.898686  1.290523
H    -3.413485  -4.784924  0.928790
H    -1.938480  -5.399975  1.711940
H    -1.864508  -4.781254  0.033603
Cd    0.405689  2.547781  3.718158
