37
Energy: -177480.621292 eV PBE+vdW (tier 2 basis)
C    -2.684849  -1.385098  0.476226
C    -2.148600  -1.610221  1.859431
O    -1.524411  -2.606118  2.203235
H    -3.202676  -0.427643  0.351060
H    -3.378308  -2.201250  0.233551
H    -1.858209  -1.449921  -0.242670
N    -2.424605  -0.604739  2.802507
C    -1.792391  -0.725442  4.099566
C    -2.772540  -0.412690  5.232831
O    -2.435991  -0.252485  6.464659
H    -2.637396  0.323916  2.443465
H    -1.611206  -1.816247  4.181416
C    -0.384148  -0.031710  4.185464
C    0.713846  -0.958140  4.633772
C    1.080876  -2.159096  4.006284
C    1.490433  -0.887839  5.814186
N    2.014190  -2.805541  4.748875
C    2.289953  -2.076607  5.885629
C    1.594202  0.070717  6.907578
C    3.148297  -2.337827  6.938766
C    2.487664  -0.242877  7.994351
C    3.223983  -1.411842  8.005356
H    -0.418788  0.876039  4.809404
H    -0.156749  0.344081  3.178899
H    0.691766  -2.587158  3.085088
H    2.443567  -3.691496  4.496117
H    1.482482  1.139803  6.674948
H    3.762951  -3.238822  6.955795
H    2.619595  0.492381  8.787399
H    3.905478  -1.611568  8.830444
N    -4.054707  -0.385727  4.933299
C    -5.140342  -0.216093  5.900732
H    -4.275570  -0.560306  3.952384
H    -5.214902  -1.096405  6.551410
H    -6.075572  -0.093726  5.348924
H    -4.961711  0.671774  6.516822
Cd    -0.564146  -0.156924  7.388194
