37
Energy: -177480.638815 eV PBE+vdW (tier 2 basis)
C    0.014115  0.366565  -1.047102
C    -0.428434  0.445797  0.375089
O    0.164059  1.314672  1.125762
H    1.092544  0.155444  -1.068855
H    -0.516762  -0.408013  -1.609861
H    -0.129644  1.341271  -1.531964
N    -1.369629  -0.384307  0.801393
C    -1.832358  -0.634111  2.159511
C    -2.160667  -2.160432  2.149486
O    -2.590787  -2.637382  1.103691
H    -1.756683  -1.088640  0.153741
H    -1.018014  -0.411249  2.867812
C    -3.133640  0.176295  2.533029
C    -3.172367  0.550841  3.983300
C    -3.535454  -0.265499  5.061342
C    -2.706123  1.758145  4.557354
N    -3.285119  0.370341  6.237584
C    -2.758555  1.617436  5.980333
C    -2.257861  3.030685  4.013479
C    -2.355035  2.619511  6.848390
C    -1.851973  4.055066  4.949544
C    -1.872489  3.835041  6.313555
H    -4.009548  -0.419602  2.243585
H    -3.187519  1.076972  1.903282
H    -3.969373  -1.260741  5.046625
H    -3.498365  -0.001387  7.158984
H    -2.791721  3.404800  3.123764
H    -2.418774  2.489049  7.929652
H    -1.584801  5.038580  4.563165
H    -1.567389  4.628614  6.993430
N    -2.007042  -2.822895  3.311213
C    -2.294367  -4.255101  3.434209
H    -1.490700  -2.374493  4.060139
H    -2.617123  -4.473536  4.457196
H    -1.407002  -4.856434  3.197733
H    -3.092967  -4.515277  2.733683
Cd    -0.570074  2.379795  2.741959
