37
Energy: -177480.192839 eV PBE+vdW (tier 2 basis)
C    0.052531  -1.410158  0.371884
C    0.044299  -1.019116  1.816597
O    1.124211  -1.041058  2.464930
H    0.703322  -0.713783  -0.174943
H    -0.942397  -1.404790  -0.086161
H    0.497846  -2.408150  0.271692
N    -1.136075  -0.649324  2.361961
C    -1.304955  -0.086251  3.701197
C    -1.125033  -1.146687  4.816251
O    -0.082008  -1.085255  5.543312
H    -1.939382  -0.633613  1.739566
H    -0.466836  0.606110  3.871609
C    -2.611404  0.734444  3.773913
C    -2.974711  1.205713  5.149251
C    -2.119736  1.780861  6.109280
C    -4.285258  1.224371  5.716939
N    -2.837395  2.124581  7.202644
C    -4.177580  1.805700  7.009746
C    -5.561285  0.832254  5.251647
C    -5.270047  1.994722  7.842128
C    -6.666777  1.016380  6.079969
C    -6.526053  1.584733  7.353558
H    -3.446410  0.148645  3.366850
H    -2.489639  1.595757  3.095993
H    -1.053488  1.975720  6.066927
H    -2.456322  2.571530  8.031339
H    -5.693782  0.408017  4.255869
H    -5.175226  2.446326  8.828948
H    -7.656047  0.724410  5.732303
H    -7.405602  1.721417  7.980791
N    -1.998858  -2.122375  5.034298
C    -3.289101  -2.397193  4.402722
H    -1.728796  -2.738981  5.801562
H    -4.089461  -1.802773  4.861128
H    -3.516333  -3.457576  4.549134
H    -3.248793  -2.210759  3.325433
Cd    1.911451  -0.914719  4.549734
