37
Energy: -177480.985243 eV PBE+vdW (tier 2 basis)
C    -1.951003  -0.911028  -0.248576
C    -2.041498  -1.141067  1.215942
O    -1.486638  -2.156492  1.744293
H    -2.204832  -1.852632  -0.757465
H    -2.613724  -0.116041  -0.601272
H    -0.908403  -0.693004  -0.524097
N    -2.720000  -0.275295  2.022947
C    -2.526766  1.173349  2.078061
C    -1.021265  1.480370  1.952486
O    -0.158159  0.691918  2.434566
H    -2.991363  -0.665419  2.932694
H    -3.078528  1.675131  1.270981
C    -3.072106  1.713184  3.469346
C    -3.316049  0.674445  4.527761
C    -4.582310  0.236562  4.912805
C    -2.389710  -0.091400  5.313597
N    -4.481545  -0.735263  5.861856
C    -3.156629  -0.981125  6.131464
C    -0.959890  -0.135561  5.451490
C    -2.580938  -1.884355  7.024876
C    -0.387301  -1.075064  6.367192
C    -1.188006  -1.941953  7.116581
H    -4.016852  2.232944  3.273689
H    -2.371461  2.478207  3.831187
H    -5.554478  0.575759  4.567088
H    -5.269549  -1.191447  6.312862
H    -0.353278  0.714820  5.124278
H    -3.201396  -2.530740  7.646406
H    0.690446  -1.055468  6.531701
H    -0.722324  -2.640489  7.809178
N    -0.687328  2.616319  1.352934
C    0.678086  3.125307  1.207601
H    -1.437411  3.184774  0.966798
H    0.888109  3.311506  0.148114
H    1.378410  2.382588  1.595801
H    0.787519  4.063690  1.764705
Cd    -0.511825  -1.296028  3.519132
