21
Energy: -169054.061553 eV PBE+vdW (tier 2 basis)
N    0.406319  0.890758  0.833782
C    0.118619  -0.016296  1.946115
C    1.485897  -0.207732  2.656539
O    1.747550  -1.055447  3.566460
H    0.519046  0.424672  -0.067822
H    -0.270561  1.647243  0.735344
H    -0.458304  0.557605  2.693403
C    -0.744263  -1.278754  1.658579
C    -0.206228  -2.383096  0.798703
N    0.584207  -3.426872  1.305006
C    -0.451613  -2.681169  -0.519027
C    0.807049  -4.307269  0.320078
N    0.188871  -3.870508  -0.785875
H    -1.674266  -0.914182  1.201573
H    -1.079030  -1.699899  2.622706
H    -1.050712  -2.170837  -1.264539
H    1.378482  -5.226414  0.387597
H    0.178015  -4.362905  -1.678503
O    2.359735  0.658655  2.314685
H    1.839894  1.169981  1.545065
Cd    1.379659  -3.087113  3.242592
