21
Energy: -169054.475773 eV PBE+vdW (tier 2 basis)
N    0.929430  0.443765  0.452244
C    0.487911  0.028749  1.841868
C    1.704953  -0.543947  2.559184
O    1.541664  -0.803872  3.794426
H    1.714396  -0.183562  0.182970
H    1.294653  1.407693  0.447002
H    0.059872  0.901073  2.347333
C    -0.553750  -1.131485  1.839616
C    -0.147778  -2.515979  1.384218
N    0.755148  -3.399307  2.009729
C    -0.767194  -3.221704  0.379930
C    0.665628  -4.572955  1.376844
N    -0.246003  -4.491181  0.395102
H    -1.422212  -0.827578  1.237715
H    -0.915069  -1.177449  2.877610
H    -1.556738  -2.934085  -0.305206
H    1.227902  -5.471398  1.606964
H    -0.520868  -5.257177  -0.217203
O    2.633284  -0.999832  1.832910
H    0.174338  0.391956  -0.244894
Cd    2.395432  -2.793724  3.380636
