21
Energy: -169054.337666 eV PBE+vdW (tier 2 basis)
N    0.640947  -0.650048  0.100860
C    0.408315  -0.006191  1.380457
C    1.734667  0.608289  1.918235
O    1.945018  0.647776  3.167190
H    -0.239507  -0.897371  -0.356369
H    1.171642  -2.630677  0.733393
H    -0.196749  0.923292  1.297516
C    -0.319618  -0.939373  2.360251
C    0.339500  -2.252680  2.642323
N    1.005403  -2.997281  1.678655
C    0.350156  -3.020897  3.779799
C    1.409468  -4.165436  2.188691
N    1.012728  -4.189972  3.466115
H    -1.316888  -1.132246  1.927879
H    -0.500983  -0.420419  3.308470
H    -0.065502  -2.839025  4.762957
H    1.954066  -4.945063  1.668927
H    1.169683  -4.968787  4.102762
O    2.512719  1.131284  1.060916
H    1.189361  -0.069371  -0.536413
Cd    3.756917  1.940723  2.743300
