21
Energy: -169054.413177 eV PBE+vdW (tier 2 basis)
N    -0.970222  0.217129  0.230287
C    -0.198525  -0.299679  1.278037
C    1.097496  -1.092483  0.649053
O    2.172358  -0.441995  0.610721
H    -1.523711  -0.407385  -0.350455
H    -0.684117  1.083337  -0.215662
H    0.244142  0.531689  1.838987
C    -1.009086  -1.243422  2.182532
C    -0.351268  -1.620577  3.471748
N    -0.892395  -2.597393  4.300400
C    0.738152  -1.132716  4.148963
C    -0.182168  -2.703559  5.429799
N    0.813686  -1.819548  5.346119
H    -1.274934  -2.150994  1.619180
H    -1.951000  -0.718768  2.410230
H    1.449179  -0.356819  3.895733
H    -0.379756  -3.379422  6.254383
H    1.513038  -1.671684  6.071345
O    0.915765  -2.240046  0.177681
H    -1.722531  -3.152231  4.100363
Cd    3.084896  -2.122436  -0.673444
