21
Energy: -169053.524073 eV PBE+vdW (tier 2 basis)
N    0.285728  -0.018442  -0.234996
C    0.013064  0.158542  1.216313
C    1.264438  0.646177  1.978380
O    2.419201  0.400788  1.592265
H    -0.415880  -0.773296  -0.594158
H    0.123588  0.855934  -0.748164
H    -0.783436  0.911623  1.332134
C    -0.440336  -1.190297  1.843784
C    -1.578308  -1.824652  1.108702
N    -1.589877  -1.849201  -0.267690
C    -2.701459  -2.487900  1.589663
C    -2.690472  -2.498933  -0.628186
N    -3.378010  -2.897319  0.476180
H    -0.703879  -1.033051  2.897852
H    0.423926  -1.883265  1.853308
H    -3.055669  -2.685716  2.594777
H    -3.013787  -2.703035  -1.643383
H    -4.247758  -3.426578  0.471866
O    1.125959  1.275899  3.114445
H    0.199178  1.481806  3.352166
Cd    2.460217  -0.571760  -0.413496
