21
Energy: -169053.723003 eV PBE+vdW (tier 2 basis)
N    1.776849  -1.884445  0.791268
C    0.613664  -1.080237  1.109351
C    1.091472  -0.047958  2.142743
O    1.041434  -0.186799  3.399500
H    2.249863  -2.330413  1.575144
H    2.438751  -1.497817  0.122752
H    0.306121  -0.537329  0.202803
C    -0.541139  -2.031591  1.524879
C    -1.911687  -1.482614  1.784920
N    -2.326827  -1.025932  3.040878
C    -3.010627  -1.425161  0.963757
C    -3.624223  -0.699198  2.972305
N    -4.049571  -0.936217  1.723167
H    -0.218321  -2.651009  2.383101
H    -0.607514  -2.750675  0.697781
H    -3.139766  -1.715086  -0.072678
H    -4.241977  -0.315805  3.776531
H    -5.005044  -0.793684  1.397901
O    1.758567  1.006678  1.743070
H    1.825426  1.084046  0.769652
Cd    -0.732967  -0.745294  4.405197
