21
Energy: -169054.649023 eV PBE+vdW (tier 2 basis)
N    -0.181020  -3.467838  1.908660
C    0.146755  -2.110821  1.607449
C    1.044990  -1.999278  0.282523
O    2.227844  -2.429948  0.315718
H    -0.908733  -3.880878  1.327109
H    0.614936  -4.099543  2.005197
H    -0.772693  -1.562314  1.371687
C    0.915870  -1.428265  2.763458
C    0.065324  -1.206415  3.970852
N    -0.704570  -2.196599  4.567867
C    -0.103762  -0.087961  4.749365
C    -1.316681  -1.718958  5.656587
N    -0.952960  -0.437849  5.777818
H    1.301408  -0.454154  2.436819
H    1.794285  -2.042709  3.017806
H    0.315975  0.906368  4.661323
H    -1.984208  -2.263868  6.314334
H    -1.263180  0.180342  6.525315
O    0.485662  -1.503937  -0.734814
H    -0.816424  -3.134622  4.180938
Cd    2.381182  -1.887755  -1.918010
