21
Energy: -169054.437319 eV PBE+vdW (tier 2 basis)
N    -1.143133  -0.426588  0.204367
C    -0.332092  -0.739632  1.301142
C    0.968895  -1.604342  0.781183
O    0.918287  -2.856752  0.825245
H    -0.853616  0.307427  -0.435283
H    -1.748588  -1.137442  -0.197864
H    0.124516  0.176769  1.697217
C    -1.115750  -1.522013  2.381855
C    -0.442295  -1.673223  3.703962
N    -0.468120  -0.692585  4.692779
C    0.232954  -2.730697  4.259295
C    0.150376  -1.124509  5.797564
N    0.583478  -2.362633  5.542085
H    -1.365622  -2.520371  2.000242
H    -2.067080  -0.987761  2.522604
H    0.462167  -3.707585  3.853152
H    0.269919  -0.577186  6.726017
H    1.077999  -2.946728  6.214018
O    1.902700  -0.921801  0.291555
H    -0.925991  0.214050  4.622310
Cd    2.920993  -2.845397  -0.414446
