21
Energy: -169054.761005 eV PBE+vdW (tier 2 basis)
N    0.837601  -1.360210  -0.240099
C    0.455705  -0.540122  0.950255
C    1.746274  -0.067175  1.650497
O    2.792286  -0.728259  1.603249
H    0.009414  -1.820957  -0.631441
H    1.222361  -0.770238  -0.986641
H    -0.112391  0.342534  0.615973
C    -0.462025  -1.353056  1.913431
C    0.114370  -2.452941  2.769424
N    1.079340  -3.391293  2.375086
C    -0.312622  -2.811927  4.024633
C    1.225997  -4.268353  3.375032
N    0.388377  -3.942045  4.370802
H    -1.280121  -1.756740  1.292479
H    -0.950312  -0.637445  2.588570
H    -1.059956  -2.374619  4.676665
H    1.905875  -5.112582  3.396275
H    0.286514  -4.458851  5.242762
O    1.736226  1.035557  2.355656
H    0.905970  1.549021  2.292348
Cd    2.352324  -2.766476  0.745487
