21
Energy: -169054.476198 eV PBE+vdW (tier 2 basis)
N    -0.276934  -0.166221  0.020120
C    -0.163690  0.159908  1.369306
C    1.364195  0.713330  1.721133
O    1.503627  1.951832  1.584585
H    -0.415427  0.568991  -0.666669
H    0.099397  -1.037768  -0.339019
H    -0.769778  1.046590  1.588609
C    -0.563948  -0.968732  2.349643
C    -0.095045  -2.355671  2.054013
N    1.221608  -2.785458  2.175191
C    -0.818473  -3.474908  1.723137
C    1.307262  -4.097888  1.935858
N    0.070508  -4.527141  1.661506
H    -1.662322  -0.990217  2.346319
H    -0.264683  -0.680785  3.367686
H    -1.880508  -3.605287  1.553712
H    2.206735  -4.702595  1.957365
H    -0.170842  -5.494447  1.452197
O    2.263772  -0.090073  2.064610
H    2.001591  -2.156839  2.375689
Cd    3.696050  1.891526  2.110809
