27
Energy: -35157.9746512 eV PBE+vdW (tier 2 basis)
C    0.981362  -1.315811  0.187344
C    0.517884  -0.834878  1.523517
O    1.184874  -1.092545  2.560817
H    0.310943  -1.050935  -0.636466
H    1.096354  -2.407723  0.224644
H    1.979097  -0.900174  -0.011292
N    -0.627539  -0.121712  1.569460
C    -1.324176  0.478836  2.725616
C    -0.476325  1.563401  3.425213
O    0.470403  1.255470  4.205009
H    -1.079154  0.028099  0.671796
H    -2.187320  0.988550  2.276427
C    -1.996238  -0.507062  3.717265
O    -0.997294  -1.196667  4.557497
C    -2.879875  -1.528124  3.025127
H    -2.595177  0.120841  4.397053
H    -1.476699  -1.905548  5.022519
H    -3.393902  -2.155820  3.766099
H    -2.305010  -2.178420  2.354476
H    -3.666862  -1.029261  2.443922
N    -0.785723  2.829378  3.190268
C    -0.071959  3.964092  3.787818
H    -1.555683  3.037109  2.560767
H    0.974767  3.968331  3.461326
H    -0.108026  3.898393  4.881399
H    -0.558548  4.886731  3.462294
Ca    1.260825  -0.709552  4.672085
