27
Energy: -35157.1990525 eV PBE+vdW (tier 2 basis)
C    0.316298  0.873016  -0.189493
C    -0.406633  0.606711  1.085963
O    -0.731744  1.574022  1.855996
H    0.545961  -0.037267  -0.751947
H    1.249714  1.410932  0.025604
H    -0.298274  1.539273  -0.811690
N    -0.710314  -0.651105  1.406832
C    -1.584735  -1.084670  2.505832
C    -0.947019  -0.822049  3.884238
O    -1.140237  0.305702  4.451808
H    -0.601720  -1.365269  0.679966
H    -2.500928  -0.470700  2.484767
C    -1.993001  -2.576745  2.234324
O    -2.091575  -2.757266  0.830412
C    -3.246909  -2.965543  2.997597
H    -1.156917  -3.234942  2.534991
H    -3.022232  -2.825195  0.558745
H    -3.472891  -4.025947  2.834077
H    -4.110872  -2.369190  2.668861
H    -3.128434  -2.818330  4.079906
N    -0.223992  -1.761999  4.460260
C    0.424511  -1.656153  5.769779
H    -0.102659  -2.637171  3.954808
H    -0.085512  -0.899388  6.370568
H    1.481538  -1.385604  5.648180
H    0.361933  -2.627408  6.270872
Ca    -1.220356  2.317286  3.754744
