27
Energy: -35156.573951 eV PBE+vdW (tier 2 basis)
C    -0.399547  1.748886  0.092898
C    -0.334363  1.175686  1.464081
O    0.802238  0.807723  1.957852
H    0.281450  2.607108  0.015945
H    -1.411257  2.057754  -0.187151
H    -0.043534  0.993240  -0.622826
N    -1.432788  1.034789  2.175505
C    -1.595853  0.416601  3.490520
C    -3.155877  0.205943  3.545348
O    -3.846964  0.987834  2.893346
H    -2.358308  1.356288  1.829154
H    -1.075328  -0.552905  3.523919
C    -1.079315  1.321909  4.644525
O    0.371850  0.970845  4.913607
C    -1.820942  1.233591  5.961134
H    -1.066798  2.360463  4.288060
H    0.468766  1.040521  5.881916
H    -2.854784  1.578139  5.833198
H    -1.362921  1.905965  6.701601
H    -1.847248  0.214167  6.367723
N    -3.605590  -0.813552  4.288582
C    -5.029799  -1.121981  4.444865
H    -2.937293  -1.439692  4.724869
H    -5.313705  -1.071215  5.502732
H    -5.239391  -2.127120  4.060867
H    -5.606829  -0.388443  3.876062
Ca    2.111129  0.634453  3.510667
