27
Energy: -35156.5382613 eV PBE+vdW (tier 2 basis)
C    -0.307261  -0.077741  0.007090
C    -0.546028  0.505150  1.367915
O    -0.161377  1.616974  1.728684
H    -0.536892  0.680197  -0.751200
H    -0.885394  -0.986710  -0.191962
H    0.762002  -0.312254  -0.093582
N    -1.258192  -0.270650  2.272969
C    -1.467575  0.214191  3.623336
C    -1.900619  1.695017  3.612510
O    -1.421539  2.527030  4.463949
H    -1.582182  -1.199540  2.021217
H    -2.322389  -0.343931  4.039523
C    -0.256393  -0.105745  4.554246
O    -0.595196  0.306275  5.949483
C    1.096283  0.503939  4.215757
H    -0.156898  -1.199055  4.570621
H    -0.800576  -0.470355  6.496130
H    1.067005  1.596968  4.054629
H    1.472101  0.117418  3.261509
H    1.833568  0.229001  4.982082
N    -2.890570  2.043792  2.817950
C    -3.419779  3.402465  2.684100
H    -3.210161  1.346426  2.148824
H    -3.520640  3.864060  3.670613
H    -4.403560  3.345069  2.210580
H    -2.749654  4.009543  2.061222
Ca    -0.237086  2.521465  6.154804
