27
Energy: -35157.1967248 eV PBE+vdW (tier 2 basis)
C    -0.566114  1.419921  0.261744
C    -0.447110  0.700401  1.561499
O    0.561150  -0.045158  1.786590
H    0.368688  1.952287  0.045642
H    -1.405622  2.121428  0.226275
H    -0.699258  0.669101  -0.531897
N    -1.416584  0.855601  2.468897
C    -1.668602  0.088828  3.706962
C    -0.641224  0.371247  4.810250
O    0.551057  -0.069550  4.720235
H    -2.200385  1.427593  2.165530
H    -2.649313  0.448023  4.046225
C    -1.844921  -1.438151  3.452909
O    -2.641567  -1.512619  2.290867
C    -2.446967  -2.133489  4.667569
H    -0.845738  -1.888969  3.245774
H    -3.131184  -2.351897  2.277090
H    -2.568688  -3.205942  4.465903
H    -3.434742  -1.717902  4.909088
H    -1.802683  -2.049021  5.553845
N    -1.052911  1.045306  5.869139
C    -0.244005  1.374731  7.044162
H    -2.017756  1.369283  5.872449
H    -0.796303  1.094343  7.948210
H    -0.045396  2.453694  7.066716
H    0.698992  0.825944  7.001918
Ca    1.848183  -0.859033  3.222409
