27
Energy: -35156.2209235 eV PBE+vdW (tier 2 basis)
C    0.069782  0.584811  0.058548
C    -0.170353  0.486386  1.521135
O    0.803939  0.350661  2.341721
H    -0.849551  0.720760  -0.520247
H    0.574796  -0.332518  -0.278602
H    0.757602  1.416645  -0.146698
N    -1.423450  0.531315  2.008734
C    -1.608230  0.374736  3.445524
C    -2.872547  -0.159415  4.139563
O    -2.709246  -0.253224  5.370550
H    -2.192000  0.703660  1.365703
H    -0.901182  -0.431532  3.705459
C    -1.140325  1.648505  4.226324
O    -0.428804  1.133428  5.409299
C    -2.193339  2.679175  4.580758
H    -0.374284  2.163564  3.613490
H    -1.145861  0.559697  5.831605
H    -2.965734  2.265036  5.238033
H    -2.670160  3.053717  3.664311
H    -1.726871  3.533326  5.084874
N    -3.980248  -0.485890  3.475718
C    -5.177672  -1.031683  4.127298
H    -4.000357  -0.411872  2.463902
H    -6.046933  -0.413967  3.875349
H    -5.019451  -1.022708  5.208435
H    -5.350229  -2.060455  3.789739
Ca    1.487708  0.596843  4.365476
