27
Energy: -35156.7400936 eV PBE+vdW (tier 2 basis)
C    0.064799  -0.995360  0.639968
C    0.023082  -0.107059  1.833785
O    1.096655  0.373924  2.325467
H    -0.891545  -1.476809  0.418396
H    0.817155  -1.772723  0.842044
H    0.421815  -0.450467  -0.245983
N    -1.153482  0.197412  2.434839
C    -2.296981  0.689993  1.679619
C    -2.026793  2.195272  1.351064
O    -0.843539  2.673379  1.511438
H    -1.038889  0.631696  3.352466
H    -2.334140  0.167279  0.711981
C    -3.638152  0.388025  2.398716
O    -4.631309  0.808861  1.450860
C    -3.800718  1.049621  3.761594
H    -3.672229  -0.708580  2.510150
H    -5.518954  0.572461  1.769238
H    -3.733729  2.144546  3.704879
H    -3.063509  0.675829  4.487141
H    -4.783283  0.797382  4.181221
N    -3.029095  2.899337  0.887942
C    -2.995954  4.299568  0.472023
H    -3.928567  2.387323  0.861288
H    -1.977606  4.687587  0.538133
H    -3.659116  4.888207  1.118044
H    -3.354731  4.374717  -0.561495
Ca    1.194814  2.519580  2.115180
