27
Energy: -35156.3084069 eV PBE+vdW (tier 2 basis)
C    -0.750811  -1.079002  0.117257
C    -1.015035  -0.182762  1.290479
O    -0.162378  0.206414  2.077026
H    -0.105671  -0.544994  -0.593637
H    -1.657457  -1.408312  -0.402637
H    -0.184610  -1.953918  0.459746
N    -2.343769  0.220801  1.482245
C    -2.612756  1.143288  2.556781
C    -3.705260  0.690143  3.511425
O    -4.606731  1.528639  3.909158
H    -3.071857  -0.071341  0.838872
H    -1.651521  1.126108  3.124605
C    -2.762949  2.583471  1.999314
O    -2.847847  3.564646  3.132415
C    -3.924878  2.840354  1.055325
H    -1.817612  2.800754  1.485870
H    -2.009074  4.052791  3.196963
H    -3.926464  3.884540  0.719079
H    -4.907529  2.584685  1.485468
H    -3.822158  2.224711  0.152555
N    -3.736288  -0.537426  3.993088
C    -2.765075  -1.627781  3.830456
H    -4.531186  -0.725927  4.605050
H    -2.858936  -2.283072  4.701622
H    -1.743058  -1.238201  3.792196
H    -2.979115  -2.208138  2.925213
Ca    -4.789973  3.565528  4.239066
