27
Energy: -35157.049255 eV PBE+vdW (tier 2 basis)
C    -0.642990  -1.304984  -0.071168
C    -0.479871  -1.188586  1.404115
O    0.630775  -1.486986  1.959883
H    -0.393036  -2.326430  -0.388272
H    0.079594  -0.634178  -0.558346
H    -1.651669  -1.054412  -0.414095
N    -1.506197  -0.763329  2.146029
C    -1.402195  -0.404698  3.568257
C    -1.192545  -1.651106  4.450047
O    0.010418  -1.917954  4.802254
H    -2.311765  -0.375603  1.654921
H    -0.477117  0.181253  3.692022
C    -2.546877  0.565158  3.948199
O    -2.413715  1.580362  2.956295
C    -2.401277  1.079287  5.373950
H    -3.521995  0.061511  3.831221
H    -3.054947  2.290825  3.125963
H    -2.482078  0.270906  6.114703
H    -3.204177  1.793474  5.596680
H    -1.442216  1.595213  5.513396
N    -2.163523  -2.458244  4.837899
C    -3.601100  -2.442476  4.545167
H    -1.842832  -3.216093  5.443025
H    -3.789082  -2.109360  3.520865
H    -4.139812  -1.805412  5.257475
H    -3.971408  -3.467362  4.645795
Ca    1.802640  -1.969779  3.644721
