27
Energy: -35156.2426027 eV PBE+vdW (tier 2 basis)
C    -0.132070  -0.090942  0.067820
C    -0.215794  0.294840  1.501827
O    0.846023  0.609391  2.152444
H    -1.109517  -0.304779  -0.376051
H    0.506342  -0.981795  -0.024780
H    0.356810  0.712420  -0.500167
N    -1.386957  0.310454  2.127715
C    -1.579886  0.514980  3.574081
C    -2.961406  -0.040350  4.039172
O    -2.991777  -0.648242  5.095700
H    -2.196247  -0.032338  1.609924
H    -0.876634  -0.138102  4.110320
C    -1.326170  1.978966  4.044711
O    0.069716  2.056611  4.625408
C    -2.281062  2.506577  5.096061
H    -1.302830  2.644222  3.171017
H    -0.034989  2.461182  5.506971
H    -2.329000  1.850484  5.975632
H    -3.295708  2.579497  4.684808
H    -1.995732  3.524669  5.395956
N    -4.023789  0.169872  3.219057
C    -5.359714  -0.324130  3.575414
H    -3.979510  0.894577  2.508185
H    -5.847560  0.334924  4.305583
H    -5.261544  -1.320591  4.016184
H    -5.968853  -0.382138  2.668672
Ca    1.981857  1.364741  3.694337
