27
Energy: -35157.9772026 eV PBE+vdW (tier 2 basis)
C    -0.201666  -0.954268  -0.284362
C    -0.074726  -0.640416  1.170612
O    1.051271  -0.674608  1.734395
H    0.215806  -1.953568  -0.468560
H    0.414928  -0.244914  -0.853891
H    -1.229884  -0.917490  -0.658129
N    -1.201568  -0.321599  1.842618
C    -1.390413  0.032220  3.264590
C    -0.652704  1.334091  3.650239
O    0.596264  1.337466  3.849165
H    -2.050969  -0.323159  1.285245
H    -2.466560  0.238451  3.342393
C    -1.195565  -1.111356  4.294956
O    0.230643  -1.448693  4.470282
C    -1.980350  -2.361364  3.942436
H    -1.539619  -0.701359  5.258621
H    0.253085  -2.271158  4.991470
H    -1.875431  -3.116147  4.734000
H    -1.645942  -2.800113  2.994385
H    -3.053093  -2.138154  3.868980
N    -1.388563  2.429173  3.774348
C    -0.876387  3.753167  4.135584
H    -2.388470  2.358044  3.602615
H    -1.423410  4.126860  5.008931
H    -1.021575  4.445340  3.297095
H    0.187197  3.675731  4.370186
Ca    2.024704  -0.274176  3.605795
