27
Energy: -35156.1324712 eV PBE+vdW (tier 2 basis)
C    -0.025288  0.515577  0.025189
C    -0.059769  0.405503  1.507677
O    1.030928  0.412379  2.183744
H    -1.022098  0.554043  -0.425716
H    0.515727  -0.353495  -0.378477
H    0.543656  1.408031  -0.267541
N    -1.221628  0.285943  2.145544
C    -1.363699  -0.026676  3.573995
C    -2.516376  -1.055111  3.854477
O    -2.206811  -2.031491  4.519267
H    -2.061059  0.265076  1.570145
H    -0.498900  -0.645114  3.852627
C    -1.389460  1.206768  4.504889
O    0.051394  1.570008  4.811301
C    -2.105141  0.997891  5.822834
H    -1.788866  2.075299  3.963283
H    -0.004347  2.183525  5.568649
H    -2.011182  1.888602  6.460835
H    -1.732564  0.118693  6.362697
H    -3.179612  0.856768  5.648732
N    -3.758834  -0.827277  3.364400
C    -4.307214  0.339133  2.681928
H    -4.403436  -1.591334  3.563327
H    -5.345184  0.486018  3.000925
H    -4.318203  0.218549  1.586417
H    -3.766828  1.256099  2.947007
Ca    2.008549  0.862994  3.943198
