27
Energy: -35156.2377812 eV PBE+vdW (tier 2 basis)
C    0.083421  -0.923537  0.982080
C    -0.717142  -0.137784  1.976835
O    -0.520161  -0.117813  3.188144
H    0.391657  -1.871919  1.434497
H    1.000634  -0.363129  0.748174
H    -0.453060  -1.113033  0.045071
N    -1.774587  0.627632  1.483281
C    -2.361833  1.540473  2.428484
C    -3.026079  0.884209  3.648598
O    -3.097437  1.646227  4.691729
H    -1.884385  0.776010  0.484624
H    -1.538918  2.115440  2.898036
C    -3.290140  2.564379  1.738397
O    -3.465380  3.698782  2.710546
C    -4.640621  2.058517  1.281134
H    -2.719377  2.994376  0.902073
H    -3.860367  4.431415  2.203060
H    -5.215109  2.850899  0.783865
H    -5.236701  1.660713  2.112528
H    -4.508798  1.258801  0.539301
N    -3.587269  -0.303030  3.707148
C    -3.672347  -1.386415  2.722130
H    -3.935821  -0.532763  4.639717
H    -4.554855  -1.985760  2.965763
H    -2.780217  -2.022513  2.787453
H    -3.774361  -0.992581  1.710807
Ca    -3.105747  3.686404  4.968525
