27
Energy: -35155.9188242 eV PBE+vdW (tier 2 basis)
C    -0.108592  -1.019708  0.654600
C    -0.731575  -0.043804  1.568769
O    0.022389  0.553835  2.445539
H    0.345651  -1.832381  1.239993
H    0.711822  -0.531947  0.108993
H    -0.827595  -1.438778  -0.056489
N    -2.026042  0.251435  1.553634
C    -2.590731  1.214511  2.462253
C    -2.988314  0.859999  3.771527
O    -3.345785  1.838776  4.587408
H    -2.593474  -0.217898  0.846205
H    -0.591571  1.179675  2.937713
C    -3.019811  2.510992  1.838020
O    -2.468729  3.702539  2.646885
C    -4.518994  2.730407  1.674824
H    -2.526443  2.592881  0.860852
H    -2.138914  4.367497  2.017956
H    -5.068112  2.590653  2.618210
H    -4.922575  1.985700  0.975186
H    -4.745638  3.720246  1.258144
N    -2.993335  -0.365980  4.325884
C    -2.939722  -1.672729  3.678473
H    -3.171916  -0.356098  5.325712
H    -1.916110  -1.964736  3.406014
H    -3.586257  -1.702524  2.793593
H    -3.317421  -2.414916  4.388090
Ca    -3.273202  3.859353  4.743011
