27
Energy: -35157.2422423 eV PBE+vdW (tier 2 basis)
C    0.297981  0.994167  0.043297
C    -0.450149  0.650858  1.285043
O    -0.781954  1.567410  2.111344
H    1.214725  1.539197  0.305123
H    -0.318520  1.677859  -0.558412
H    0.555654  0.118430  -0.560298
N    -0.771483  -0.622569  1.516933
C    -1.696131  -1.105890  2.556346
C    -1.065168  -1.010874  3.960251
O    -1.162483  0.087148  4.603496
H    -0.639120  -1.284933  0.749550
H    -2.569425  -0.432930  2.574559
C    -2.205395  -2.514547  2.148901
O    -2.439635  -2.394706  0.750459
C    -3.442427  -2.922365  2.937322
H    -1.395607  -3.258775  2.310032
H    -2.841047  -3.212413  0.411297
H    -3.762066  -3.929998  2.642486
H    -4.271794  -2.230483  2.741230
H    -3.252772  -2.952753  4.019303
N    -0.440652  -2.053701  4.469057
C    0.196449  -2.110816  5.786788
H    -0.399956  -2.896249  3.898480
H    -0.194670  -1.308630  6.416573
H    1.284348  -2.006983  5.683500
H    -0.026745  -3.080505  6.244046
Ca    -1.223957  2.153051  4.075295
