27
Energy: -35157.8814854 eV PBE+vdW (tier 2 basis)
C    -0.266522  -0.179841  0.152559
C    -0.163657  -0.050664  1.636986
O    0.895272  0.373261  2.171642
H    -1.227309  -0.575339  -0.192191
H    0.542885  -0.830539  -0.205224
H    -0.099746  0.808029  -0.299393
N    -1.242789  -0.394682  2.374031
C    -1.412728  -0.340300  3.837734
C    -1.152567  1.074358  4.399966
O    0.006361  1.417814  4.779259
H    -2.043944  -0.734115  1.849606
H    -2.478182  -0.551065  3.997585
C    -0.711066  -1.460113  4.647258
O    0.757079  -1.345373  4.561252
C    -1.137800  -2.849410  4.209456
H    -0.982426  -1.290391  5.701946
H    1.117525  -2.222429  4.782387
H    -0.657077  -3.613830  4.835966
H    -0.882282  -3.045292  3.160299
H    -2.219825  -2.982171  4.340209
N    -2.167465  1.920683  4.498858
C    -3.573284  1.718936  4.129005
H    -1.917163  2.828870  4.892397
H    -4.047557  0.958010  4.762133
H    -3.671584  1.452008  3.070052
H    -4.100408  2.663699  4.287584
Ca    1.886260  0.609884  4.074638
