27
Energy: -35156.4519568 eV PBE+vdW (tier 2 basis)
C    0.833067  0.387651  -0.143638
C    0.415742  0.156091  1.264997
O    1.242266  -0.375735  2.106616
H    1.081000  -0.580283  -0.603444
H    1.747883  0.995207  -0.164722
H    0.055218  0.876847  -0.737786
N    -0.794961  0.485392  1.661213
C    -1.398096  0.271527  2.975850
C    -2.910949  0.580617  2.684194
O    -3.143872  1.346376  1.747325
H    -1.473680  0.968864  1.039944
H    -1.260213  -0.774892  3.281857
C    -0.782130  1.208077  4.061204
O    0.273949  0.428241  4.815186
C    -1.728815  1.817947  5.072144
H    -0.233193  2.006160  3.544116
H    0.101576  0.594476  5.760315
H    -2.470213  2.443155  4.558266
H    -1.179980  2.483392  5.753334
H    -2.268790  1.064039  5.658946
N    -3.864831  0.016172  3.441113
C    -3.775688  -0.995835  4.486638
H    -4.804665  0.293442  3.156619
H    -2.733013  -1.249484  4.701330
H    -4.292808  -1.911995  4.173857
H    -4.240263  -0.632135  5.412226
Ca    2.078458  -0.625315  3.949303
