27
Energy: -35156.4779809 eV PBE+vdW (tier 2 basis)
C    0.108264  1.073318  0.023123
C    -0.056883  0.389987  1.345499
O    0.517006  0.756082  2.378172
H    -0.359552  2.066202  0.090689
H    -0.340631  0.531376  -0.816578
H    1.175392  1.236444  -0.167402
N    -0.898196  -0.704740  1.385977
C    -1.357938  -1.279081  2.644711
C    -0.303700  -2.155007  3.371077
O    -0.633385  -3.299874  3.878976
H    -1.280260  -1.052368  0.513354
H    -1.533311  -0.431883  3.333509
C    -2.720710  -1.969647  2.403604
O    -3.269638  -2.427457  3.718361
C    -2.737804  -3.148054  1.442283
H    -3.408772  -1.192222  2.046177
H    -4.061532  -1.902975  3.926863
H    -3.748159  -3.570345  1.376022
H    -2.017156  -3.934827  1.711470
H    -2.474540  -2.835705  0.423023
N    0.888595  -1.642365  3.502746
C    2.030808  -2.262816  4.166212
H    0.965423  -0.651585  3.141261
H    2.905971  -2.178212  3.511909
H    1.827156  -3.315733  4.374779
H    2.245226  -1.729732  5.101652
Ca    -2.279134  -4.201215  4.710871
