27
Energy: -35156.5232321 eV PBE+vdW (tier 2 basis)
C    0.220055  0.948713  0.008558
C    -0.161263  0.315954  1.312808
O    -0.144476  0.877459  2.394685
H    0.299653  0.238179  -0.821930
H    1.174059  1.474592  0.134684
H    -0.529883  1.711392  -0.243958
N    -0.549917  -1.048209  1.253888
C    -1.090917  -1.615858  2.464151
C    -0.315008  -2.823481  2.968722
O    -0.777040  -3.485157  3.974845
H    -0.802416  -1.437547  0.349076
H    -0.902535  -0.803115  3.205709
C    -2.623250  -1.819658  2.384658
O    -3.171945  -1.945590  3.787274
C    -3.105601  -2.992113  1.556935
H    -3.029718  -0.873135  2.005959
H    -3.943706  -1.355821  3.851302
H    -4.201129  -3.035633  1.532469
H    -2.718350  -3.952381  1.926572
H    -2.773631  -2.884646  0.514985
N    0.831464  -3.117777  2.406474
C    1.766078  -4.166232  2.810569
H    1.090855  -2.497696  1.634612
H    1.976291  -4.814182  1.951712
H    1.329914  -4.756057  3.619559
H    2.703510  -3.707721  3.148885
Ca    -2.364094  -3.384280  5.298795
