23
Energy: -603637.581217 eV PBE+vdW (tier 2 basis)
C    0.389749  1.511306  0.119307
C    -0.469955  0.512869  0.815886
O    -0.105686  -0.714318  0.811995
H    1.412059  1.453647  0.516687
H    0.021289  2.538992  0.201573
H    0.448446  1.235599  -0.944298
N    -1.594018  0.933291  1.403896
C    -2.705331  0.157281  2.007332
C    -2.294552  -0.470007  3.350614
O    -1.527587  -1.495870  3.406683
H    -1.759711  1.935269  1.337252
H    -3.466180  0.917313  2.229508
C    -3.350603  -0.852804  1.054311
H    -3.714994  -0.333681  0.159903
H    -4.207469  -1.333369  1.542447
H    -2.669196  -1.641109  0.708171
N    -2.791067  0.052220  4.453386
C    -2.554218  -0.424304  5.819520
H    -3.407031  0.857834  4.355680
H    -3.520738  -0.565647  6.316985
H    -1.973413  0.325251  6.371704
H    -2.009269  -1.369579  5.788724
Pb    -0.215528  -2.601187  1.974734
