23
Energy: -603636.959244 eV PBE+vdW (tier 2 basis)
C    0.555802  1.158101  1.183645
C    -0.197534  -0.119016  1.139968
O    0.435272  -1.237404  1.210635
H    -0.051010  2.032309  0.932355
H    1.379981  1.073153  0.457612
H    1.035746  1.295178  2.164157
N    -1.537281  -0.155337  1.012928
C    -2.459611  0.671501  1.790404
C    -2.440171  0.111197  3.243832
O    -1.774593  -0.948342  3.542430
H    -1.915180  -1.064658  0.738899
H    -2.062257  1.696927  1.824975
C    -3.854863  0.672842  1.159873
H    -4.286579  -0.336864  1.131108
H    -3.794178  1.063380  0.137415
H    -4.546149  1.316276  1.716585
N    -3.127183  0.756850  4.160744
C    -3.246757  0.405231  5.579505
H    -3.637869  1.586575  3.859703
H    -4.308950  0.310608  5.834494
H    -2.801655  1.200467  6.190129
H    -2.735689  -0.540265  5.767656
Pb    -0.246293  -2.525705  2.938945
