23
Energy: -603637.483007 eV PBE+vdW (tier 2 basis)
C    -0.593194  -0.658202  0.184352
C    -0.273452  -0.452216  1.625556
O    0.954236  -0.450970  1.984471
H    -0.200879  -1.639588  -0.121314
H    -0.064724  0.093807  -0.417194
H    -1.664728  -0.617268  -0.036647
N    -1.282130  -0.291603  2.488887
C    -1.270359  -0.239370  3.970718
C    -0.665038  1.077431  4.479078
O    0.604630  1.274685  4.474568
H    -2.208703  -0.315058  2.068847
H    -2.331929  -0.231416  4.242526
C    -0.648292  -1.469154  4.638206
H    -0.735456  -1.388252  5.728914
H    0.410143  -1.626710  4.392642
H    -1.186675  -2.369721  4.319964
N    -1.442475  2.019332  4.973734
C    -2.906758  2.034061  5.120853
H    -0.941301  2.840576  5.319505
H    -3.402182  1.839784  4.162953
H    -3.195602  3.034419  5.454753
H    -3.232804  1.309613  5.877417
Pb    2.378672  0.338814  3.496209
