23
Energy: -603635.916048 eV PBE+vdW (tier 2 basis)
C    0.392170  1.368420  0.593506
C    -0.234960  0.509361  1.637688
O    0.340692  0.421279  2.833811
H    0.440215  2.409139  0.946453
H    -0.172366  1.347402  -0.344050
H    1.416611  1.023328  0.390574
N    -1.322628  -0.148970  1.395564
C    -2.132690  -1.051008  2.222024
C    -3.035655  -1.691180  1.119109
O    -3.003676  -1.152646  -0.003021
H    -1.809096  -0.170620  0.433003
H    -1.484935  -1.803101  2.694746
C    -2.960084  -0.281571  3.263176
H    -3.588553  -0.971571  3.836496
H    -3.613469  0.450321  2.773227
H    -2.309852  0.243403  3.972454
N    -3.807070  -2.743950  1.398345
C    -3.939368  -3.492181  2.643285
H    -4.385745  -3.043504  0.613027
H    -4.830738  -3.174991  3.202614
H    -3.052654  -3.370906  3.273039
H    -4.040672  -4.557002  2.405850
Pb    1.906522  0.931547  4.154079
