23
Energy: -603636.051793 eV PBE+vdW (tier 2 basis)
C    0.127023  -0.162073  -0.044109
C    -0.010177  0.386842  1.329576
O    1.113869  0.696436  1.979060
H    0.801926  0.473056  -0.632820
H    -0.835254  -0.238102  -0.558192
H    0.578863  -1.164248  0.005374
N    -1.124378  0.587945  1.953939
C    -2.519983  0.364309  1.548173
C    -3.256341  1.172502  2.663561
O    -2.561245  1.544269  3.631991
H    -1.221672  1.040310  2.931913
H    -2.696352  0.809860  0.558607
C    -2.892444  -1.125029  1.572191
H    -2.300372  -1.693342  0.845029
H    -3.947794  -1.256685  1.309934
H    -2.732351  -1.549093  2.570866
N    -4.561764  1.417643  2.565601
C    -5.491512  1.071386  1.493449
H    -4.947658  1.909481  3.371484
H    -6.198209  1.897832  1.361597
H    -6.058457  0.163171  1.739356
H    -4.965258  0.926477  0.545015
Pb    2.849542  1.221054  3.005408
