23
Energy: -603636.157417 eV PBE+vdW (tier 2 basis)
C    -0.040778  -0.037162  -0.129892
C    0.004152  0.315609  1.323117
O    1.268195  0.433244  1.821738
H    0.345391  -1.055925  -0.277350
H    0.599463  0.644769  -0.703972
H    -1.054645  0.006664  -0.539183
N    -0.953818  0.511003  2.144169
C    -2.359274  0.395904  1.769410
C    -3.091438  1.183238  2.856687
O    -2.390558  1.496410  3.906784
H    -1.456214  1.183447  3.655159
H    -2.573004  0.860568  0.792829
C    -2.830838  -1.074635  1.778400
H    -2.617854  -1.540470  2.747914
H    -2.306492  -1.635845  0.996885
H    -3.906044  -1.152384  1.581964
N    -4.350823  1.529815  2.822672
C    -5.327426  1.301461  1.754250
H    -4.690021  2.014829  3.656505
H    -4.825284  1.070608  0.811269
H    -5.917188  2.214985  1.624129
H    -5.998907  0.477891  2.027324
Pb    3.207404  0.524973  2.480192
