23
Energy: -603636.138236 eV PBE+vdW (tier 2 basis)
C    0.168783  0.295102  0.297485
C    -0.277446  -0.544655  1.439049
O    0.341157  -1.711616  1.620898
H    -0.251967  1.303932  0.335795
H    -0.139351  -0.177053  -0.647698
H    1.264491  0.360874  0.290017
N    -1.219540  -0.241910  2.273010
C    -2.082282  0.942829  2.373187
C    -2.683738  0.724073  3.800621
O    -2.435956  -0.361260  4.359636
H    -1.483014  -0.822924  3.142126
H    -1.462773  1.852641  2.363466
C    -3.156955  0.988385  1.279366
H    -3.796100  1.868900  1.415663
H    -3.792678  0.095545  1.317100
H    -2.709314  1.066471  0.281505
N    -3.424907  1.702181  4.316022
C    -4.069776  1.636653  5.627745
H    -3.561964  2.547623  3.768764
H    -3.771605  0.708369  6.120605
H    -5.160492  1.656035  5.509943
H    -3.759082  2.495408  6.234426
Pb    1.346509  -3.516605  1.901272
