23
Energy: -603636.825703 eV PBE+vdW (tier 2 basis)
C    -1.939261  0.877336  0.130674
C    -0.534596  0.742334  0.594512
O    0.412340  1.263671  -0.103626
H    -2.228758  -0.008291  -0.460413
H    -2.003331  1.741676  -0.540401
H    -2.644334  0.985803  0.959852
N    -0.190913  0.090403  1.724024
C    -0.671001  -1.241111  2.135959
C    -0.193140  -2.242942  1.048016
O    0.701171  -1.907268  0.184742
H    0.760681  0.294258  2.030328
H    -0.081265  -1.474751  3.036675
C    -2.151143  -1.341794  2.517385
H    -2.332173  -2.257963  3.094818
H    -2.824556  -1.338766  1.654010
H    -2.412962  -0.510601  3.182244
N    -0.695292  -3.458021  1.056289
C    -0.324350  -4.565939  0.170161
H    -1.409990  -3.656732  1.755341
H    0.548819  -4.287130  -0.422018
H    -1.166396  -4.804093  -0.491681
H    -0.092594  -5.444848  0.782895
Pb    1.911040  -0.269234  -0.824784
