22
Energy: -605081.349347 eV PBE+vdW (tier 2 basis)
N    0.13369  -1.02911  0.01588
C    0.09082  -0.29884  1.27241
C    1.53539  -0.20825  1.79325
O    2.29461  0.74871  1.42449
H    0.46515  -0.50605  -0.79355
H    0.54276  -1.96368  0.04479
H    1.48818  -1.83568  2.83829
H    -0.22409  0.73201  1.06270
C    -0.89141  -0.95279  2.27676
C    -2.33593  -0.82477  1.89417
N    -2.89860  -1.31964  0.72142
C    -3.38339  -0.31287  2.61984
C    -4.22207  -1.12011  0.72459
N    -4.52441  -0.51062  1.87444
H    -0.77943  -0.49337  3.26927
H    -0.65241  -2.02699  2.38981
H    -2.38514  -1.74716  -0.04685
H    -3.41077  0.15130  3.59878
H    -4.91821  -1.39992  -0.05992
H    -5.46907  -0.24474  2.15476
O    2.09863  -1.13404  2.52265
Pb    4.34470  1.61959  1.64534
