22
Energy: -605081.314710 eV PBE+vdW (tier 2 basis)
N    -0.78675  -0.21329  0.12652
C    -0.12280  -0.03948  1.40585
C    1.39100  -0.08488  1.14044
O    2.02583  -1.17783  0.97053
H    -0.78143  0.58558  -0.50695
H    -0.59127  -1.08498  -0.36524
H    1.60934  1.84593  1.12203
H    -0.35451  0.97143  1.77613
C    -0.60296  -1.07796  2.44793
C    -2.00503  -0.84471  2.92543
N    -3.14052  -0.87365  2.12026
C    -2.46617  -0.64274  4.20394
C    -4.23993  -0.69807  2.86361
N    -3.83868  -0.55848  4.13047
H    0.04993  -1.05146  3.33120
H    -0.51143  -2.08944  2.02019
H    -3.14827  -0.98411  1.10835
H    -1.93702  -0.57017  5.14692
H    -5.26414  -0.67281  2.50467
H    -4.46771  -0.41954  4.92218
O    2.09101  1.00684  0.95171
Pb    4.17496  -1.69423  0.49003
