22
Energy: -605082.523110 eV PBE+vdW (tier 2 basis)
N    -0.00486  0.06879  -0.03211
C    0.46983  -0.29991  1.36876
C    1.90756  -0.84835  1.24464
O    2.49840  -0.75681  0.11645
H    -0.76489  0.76748  -0.00865
H    -0.35015  -0.74984  -0.55943
H    0.77919  0.46001  -0.58454
H    0.54108  0.65355  1.91677
C    -0.55475  -1.24227  2.05221
C    -0.69199  -1.10985  3.54586
N    -1.82031  -1.60160  4.19833
C    0.09944  -0.57839  4.53152
C    -1.72804  -1.38051  5.51503
N    -0.56787  -0.75708  5.72669
H    -0.33112  -2.28844  1.78756
H    -1.54348  -1.02349  1.61651
H    -2.61776  -2.06961  3.76812
H    1.07188  -0.10520  4.49384
H    -2.46374  -1.65396  6.26621
H    -0.23594  -0.45791  6.64446
O    2.47932  -1.33950  2.26385
Pb    4.50751  -1.70524  1.01549
