22
Energy: -605082.146374 eV PBE+vdW (tier 2 basis)
N    0.61164  1.02208  2.01093
C    0.59907  -0.41177  1.58571
C    0.50181  -0.46915  0.05265
O    0.67658  0.53746  -0.67785
H    -0.32040  1.29397  2.34968
H    1.24026  1.14841  2.81191
H    0.27302  -1.67737  -1.41629
H    1.60027  -0.82348  1.80195
C    -0.48476  -1.29875  2.28306
C    -0.25553  -1.67985  3.71668
N    0.50291  -2.78200  4.11468
C    -0.81649  -1.18923  4.87110
C    0.40894  -2.95527  5.43887
N    -0.38487  -1.98888  5.90683
H    -0.59036  -2.21696  1.68728
H    -1.46077  -0.79505  2.21088
H    1.01050  -3.42590  3.50937
H    -1.51410  -0.37595  5.03555
H    0.88301  -3.74082  6.02094
H    -0.64894  -1.88578  6.88834
O    0.27794  -1.64874  -0.42873
Pb    1.17425  2.63701  0.08046
