22
Energy: -605081.600566 eV PBE+vdW (tier 2 basis)
N    0.73723  -0.33265  0.02297
C    0.26896  -0.04509  1.41217
C    1.49676  0.26498  2.28721
O    2.61510  0.49595  1.77028
H    0.86994  -1.34463  -0.10538
H    0.01164  -0.06085  -0.65141
H    0.53016  0.24299  3.97110
H    -0.26070  0.92483  1.36615
C    -0.77797  -1.04074  1.98998
C    -0.39805  -2.47329  2.27012
N    -1.32400  -3.49965  2.08455
C    0.69262  -3.07237  2.85611
C    -0.83247  -4.65979  2.53411
N    0.39456  -4.41220  2.99722
H    -1.62697  -1.02821  1.28980
H    -1.20075  -0.59255  2.90703
H    -2.26563  -3.40587  1.70192
H    1.63284  -2.67179  3.21660
H    -1.33844  -5.62188  2.52199
H    1.00590  -5.11860  3.41122
O    1.42164  0.35588  3.57871
Pb    3.01070  0.79511  -0.45912
