22
Energy: -605081.328365 eV PBE+vdW (tier 2 basis)
N    0.80241  -2.18072  1.01138
C    0.16965  -0.88943  1.15609
C    1.22334  0.00480  1.82890
O    2.07608  0.63931  1.11954
H    1.09552  -2.67036  1.85526
H    1.45195  -2.29964  0.23748
H    0.71248  -0.38107  3.65661
H    0.00051  -0.47137  0.15513
C    -1.17562  -0.97156  1.92410
C    -2.24222  -1.73366  1.18703
N    -3.47745  -1.17980  0.86055
C    -2.30142  -3.03835  0.75847
C    -4.25484  -2.09327  0.26608
N    -3.54546  -3.22259  0.19600
H    -1.53822  0.04507  2.13610
H    -1.02357  -1.46186  2.90241
H    -3.78944  -0.23128  1.06154
H    -1.57690  -3.83987  0.81902
H    -5.27056  -1.94334  -0.08680
H    -3.89140  -4.09480  -0.20555
O    1.40416  0.06706  3.12341
Pb    3.84001  2.00271  1.22624
