22
Energy: -605082.376459 eV PBE+vdW (tier 2 basis)
N    0.31379  -0.98569  -0.14011
C    0.06641  -0.23672  1.15982
C    1.34890  0.53402  1.54237
O    1.43355  1.05750  2.69508
H    -0.54109  -1.05680  -0.71442
H    0.66001  -1.94453  0.02246
H    1.03484  -0.48370  -0.69241
H    -0.63389  0.57528  0.89790
C    -0.64394  -1.06619  2.24949
C    -0.11182  -2.42234  2.62948
N    -0.98382  -3.42434  3.05218
C    1.14680  -2.95735  2.76821
C    -0.30097  -4.50853  3.43621
N    0.99398  -4.23889  3.26016
H    -1.69342  -1.18000  1.93923
H    -0.67712  -0.41969  3.14210
H    -2.00096  -3.35759  3.10699
H    2.13073  -2.53916  2.59627
H    -0.72371  -5.43529  3.81557
H    1.74968  -4.89220  3.47241
O    2.23117  0.72974  0.64243
Pb    3.31170  2.37720  2.06379
