22
Energy: -605081.075677 eV PBE+vdW (tier 2 basis)
N    0.18269  -0.66516  -0.38554
C    -0.24298  -0.23157  0.92457
C    0.95252  0.54139  1.50038
O    1.96819  -0.04119  2.01037
H    0.95684  -1.32441  -0.43639
H    0.18199  0.01585  -1.14203
H    0.26465  2.29702  1.02134
H    -1.06827  0.48598  0.79688
C    -0.72459  -1.40583  1.81302
C    -1.98837  -2.04400  1.30898
N    -3.17321  -2.06523  2.04045
C    -2.26241  -2.73514  0.15213
C    -4.12141  -2.73533  1.37400
N    -3.57683  -3.14070  0.22394
H    -0.88191  -1.04469  2.83955
H    0.06990  -2.16517  1.87229
H    -3.32073  -1.66929  2.96711
H    -1.63571  -2.97763  -0.69613
H    -5.13777  -2.91809  1.70901
H    -4.07021  -3.68294  -0.48613
O    1.06116  1.84408  1.37424
Pb    3.93046  0.71605  2.82793
