22
Energy: -605082.124977 eV PBE+vdW (tier 2 basis)
N    0.26684  0.99906  1.44361
C    0.20192  -0.33515  2.11841
C    1.46032  -1.13750  1.74282
O    2.46796  -0.60459  1.21519
H    -0.13650  1.72237  2.04921
H    -0.32215  0.99361  0.60059
H    2.25984  -2.87398  1.87773
H    0.32880  -0.15924  3.20145
C    -1.10460  -1.13852  1.87827
C    -2.33764  -0.65531  2.59708
N    -3.61062  -0.88821  2.08162
C    -2.54275  -0.10501  3.83920
C    -4.54653  -0.50536  2.95941
N    -3.90739  -0.02265  4.02626
H    -0.91096  -2.17694  2.18969
H    -1.30031  -1.18869  0.79486
H    -3.83346  -1.32290  1.18642
H    -1.85353  0.20218  4.61677
H    -5.62245  -0.57354  2.82427
H    -4.37228  0.33956  4.86048
O    1.42068  -2.38779  2.06723
Pb    2.64881  1.60862  0.66543
