22
Energy: -605081.965063 eV PBE+vdW (tier 2 basis)
N    -0.35865  0.29035  0.45029
C    0.16280  0.35071  1.84964
C    1.68624  0.48290  1.78738
O    2.27049  0.95806  0.78237
H    -1.32660  0.63326  0.42420
H    -0.40068  -0.68560  0.12694
H    3.27741  0.37614  2.84416
H    -0.13718  1.33961  2.24753
C    -0.42698  -0.66105  2.87283
C    -0.26303  -2.14542  2.67854
N    -1.35457  -3.01143  2.75466
C    0.84018  -2.96390  2.60632
C    -0.94490  -4.28501  2.73552
N    0.38647  -4.26528  2.63480
H    -1.49958  -0.43093  2.94911
H    -0.01320  -0.38363  3.85565
H    -2.33187  -2.74482  2.87426
H    1.89913  -2.73911  2.58617
H    -1.57708  -5.16698  2.79330
H    0.97311  -5.10127  2.61219
O    2.31562  0.15108  2.87073
Pb    1.16785  1.60833  -1.13858
