22
Energy: -605082.612479 eV PBE+vdW (tier 2 basis)
N    0.43660  -1.62625  0.12988
C    0.22774  -0.39111  0.99589
C    1.61261  0.07461  1.50712
O    1.66714  0.97297  2.40015
H    -0.37559  -1.81185  -0.47827
H    0.60545  -2.47487  0.69327
H    1.27253  -1.50390  -0.46918
H    -0.10422  0.40269  0.30696
C    -0.80652  -0.60046  2.11849
C    -2.25139  -0.69676  1.69677
N    -3.16724  -1.47955  2.39616
C    -2.99271  -0.02108  0.75641
C    -4.40289  -1.29313  1.91510
N    -4.30506  -0.41469  0.91556
H    -0.68945  0.25852  2.79915
H    -0.53149  -1.48516  2.71452
H    -2.96666  -2.08864  3.18910
H    -2.71760  0.72274  0.01758
H    -5.31130  -1.77174  2.27056
H    -5.09682  -0.08036  0.36323
O    2.65796  -0.41728  0.97044
Pb    4.04291  1.08430  2.27912
