22
Energy: -605082.629147 eV PBE+vdW (tier 2 basis)
N    0.64150  -0.58560  0.12666
C    0.16436  0.16103  1.36387
C    1.40296  0.72525  2.09716
O    2.54080  0.65697  1.52919
H    -0.14128  -0.80390  -0.50943
H    1.11134  -1.47409  0.36464
H    1.33417  -0.02380  -0.39788
H    -0.38917  1.03624  0.98768
C    -0.74154  -0.70743  2.27516
C    -2.11012  -1.05784  1.76296
N    -3.22022  -0.21682  1.85433
C    -2.59217  -2.24332  1.26069
C    -4.31966  -0.85439  1.43276
N    -3.94658  -2.08253  1.06497
H    -0.83437  -0.15687  3.22372
H    -0.22063  -1.64219  2.53248
H    -3.24259  0.72646  2.23933
H    -2.09948  -3.19098  1.07243
H    -5.32733  -0.44880  1.40228
H    -4.58620  -2.79845  0.71488
O    1.24103  1.27983  3.22660
Pb    3.54129  1.88664  3.36058
