22
Energy: -605082.527821 eV PBE+vdW (tier 2 basis)
N    -0.56878  0.35174  0.18554
C    0.17395  0.04986  1.48254
C    1.68219  0.19963  1.20303
O    2.04297  0.80215  0.13491
H    -1.54462  0.63941  0.36122
H    -0.59676  -0.46179  -0.45087
H    -0.09483  1.11515  -0.32994
H    -0.09255  0.86578  2.17332
C    -0.27618  -1.32141  2.07582
C    -0.38835  -1.40770  3.56975
N    0.67628  -1.61000  4.44355
C    -1.51710  -1.43086  4.35218
C    0.22428  -1.75044  5.69667
N    -1.10571  -1.63889  5.64921
H    0.37309  -2.12427  1.69646
H    -1.28127  -1.54423  1.68815
H    1.65911  -1.67048  4.18756
H    -2.56632  -1.34392  4.09243
H    0.82489  -1.92694  6.58398
H    -1.72098  -1.71712  6.46108
O    2.52843  -0.23410  2.04216
Pb    4.34947  0.66103  0.69167
