22
Energy: -605081.045074 eV PBE+vdW (tier 2 basis)
N    -0.21069  -1.16784  -0.02992
C    -0.13178  -0.24745  1.07068
C    1.32569  0.22174  1.08930
O    1.72414  1.27741  0.48211
H    -0.42215  -0.81544  -0.95841
H    0.36083  -2.00801  -0.01371
H    3.11263  -0.33272  1.56024
H    -0.73355  0.63558  0.82230
C    -0.68949  -0.80248  2.42507
C    -0.53883  -2.26236  2.72965
N    0.19332  -2.76597  3.80220
C    -1.16906  -3.35434  2.17725
C    0.01927  -4.08975  3.90752
N    -0.79965  -4.45557  2.91757
H    -1.76803  -0.59192  2.38456
H    -0.30456  -0.19767  3.25834
H    0.73804  -2.22234  4.46847
H    -1.86897  -3.42417  1.35316
H    0.45376  -4.73993  4.66056
H    -1.12172  -5.41143  2.76096
O    2.16813  -0.57623  1.68317
Pb    2.29968  3.21092  -0.43362
