22
Energy: -605081.300348 eV PBE+vdW (tier 2 basis)
N    1.17505  0.87427  3.34779
C    1.22018  -0.45321  2.76153
C    2.26786  -0.41869  1.63619
O    2.02234  0.07004  0.48424
H    1.95415  1.13738  3.95058
H    0.91413  1.63296  2.71826
H    3.68669  -1.19155  2.71523
H    1.59339  -1.15180  3.52670
C    -0.17886  -0.92110  2.29442
C    -1.11157  -1.24272  3.42367
N    -1.53053  -0.34079  4.39802
C    -1.78692  -2.40973  3.68826
C    -2.41467  -0.92240  5.21790
N    -2.57683  -2.17862  4.79230
H    -0.08571  -1.82812  1.68143
H    -0.62144  -0.14783  1.64576
H    -1.19998  0.61657  4.50114
H    -1.78090  -3.36554  3.17750
H    -2.90605  -0.46095  6.06884
H    -3.20470  -2.85713  5.22494
O    3.51081  -0.77952  1.84091
Pb    3.24757  0.39249  -1.38961
