22
Energy: -605081.104805 eV PBE+vdW (tier 2 basis)
N    -0.65964  1.64874  1.40930
C    -0.03579  0.34466  1.41338
C    1.38961  0.57604  0.88635
O    2.32900  0.89641  1.69112
H    -0.43135  2.27844  2.17512
H    -0.76149  2.12971  0.51689
H    0.98418  0.30180  -0.98736
H    0.06717  0.01201  2.45455
C    -0.84575  -0.70247  0.60612
C    -2.18368  -1.02656  1.21236
N    -2.57654  -2.32746  1.51625
C    -3.26610  -0.23655  1.51828
C    -3.83148  -2.33816  1.98197
N    -4.25463  -1.07171  1.99099
H    -0.25717  -1.62743  0.51605
H    -1.01805  -0.33714  -0.42247
H    -2.02565  -3.17406  1.38506
H    -3.41458  0.83141  1.42743
H    -4.39699  -3.21235  2.28956
H    -5.18403  -0.77820  2.29373
O    1.69965  0.59908  -0.38471
Pb    4.49431  1.42880  1.79802
