21
Energy: -33478.7545109 eV PBE+vdW (tier 2 basis)
N    0.639123  -0.185926  -1.050449
C    -0.140665  -0.178822  0.230557
C    0.861196  -0.203312  1.425223
O    1.949568  0.501281  1.191674
H    0.885066  -1.155042  -1.286728
H    0.045188  0.127201  -1.825141
H    -0.657594  0.792608  0.271939
C    -1.180390  -1.328984  0.315690
C    -2.280698  -1.168447  1.309450
N    -3.513483  -1.573996  1.096232
C    -2.285474  -0.649801  2.707330
C    -4.310481  -1.342098  2.273556
N    -3.630087  -0.803031  3.205298
H    -0.646296  -2.251590  0.611208
H    -1.620249  -1.512243  -0.675769
H    -1.946446  0.398381  2.790370
H    -5.362727  -1.620810  2.287975
H    -3.860032  -2.008480  0.237637
O    0.601323  -0.816164  2.438633
H    -1.548469  -1.197792  3.327054
Ca    2.786627  1.051068  -0.559737
