21
Energy: -33477.9780983 eV PBE+vdW (tier 2 basis)
N    -0.334746  0.384434  0.197330
C    0.048792  -0.058474  1.520718
C    1.584408  -0.070500  1.658837
O    2.240908  0.873921  2.011025
H    0.048654  -0.172864  -0.565467
H    -0.164493  1.374757  0.031770
H    -0.299696  0.693913  2.240835
C    -0.651557  -1.412470  1.809455
C    -0.374319  -1.999778  3.149330
N    0.849252  -2.555957  3.491002
C    -1.150411  -2.150968  4.271920
C    0.812993  -3.014107  4.745610
N    -0.408936  -2.789346  5.274487
H    -0.371712  -2.139194  1.031697
H    -1.730363  -1.242586  1.709090
H    -2.184440  -1.849852  4.408430
H    1.652734  -3.490530  5.240720
H    1.651498  -2.556765  2.851578
O    2.145120  -1.268651  1.253816
H    3.109187  -1.112935  1.169255
Ca    -1.254616  -3.271779  7.253006
