21
Energy: -33478.7337749 eV PBE+vdW (tier 2 basis)
N    0.106535  0.404775  0.206565
C    -0.029788  0.043466  1.664960
C    0.673344  -1.317975  1.798339
O    1.307342  -1.802221  0.884377
H    -0.795792  0.080713  -0.281367
H    0.267599  1.404637  0.052439
H    0.551998  0.764036  2.257544
C    -1.500781  0.079291  2.122791
C    -2.417973  -0.747955  1.273449
N    -2.310578  -0.697878  -0.109283
C    -3.462120  -1.576730  1.606372
C    -3.265640  -1.475993  -0.580182
N    -4.026279  -2.050333  0.417879
H    -1.837357  1.128526  2.114593
H    -1.537550  -0.245709  3.169123
H    -3.838352  -1.858181  2.585728
H    -3.434980  -1.652532  -1.640095
H    0.896956  -0.158602  -0.165906
O    0.519771  -1.834250  3.018302
H    1.052528  -2.654217  3.082672
Ca    -5.797883  -3.217867  0.188700
