21
Energy: -33479.1700883 eV PBE+vdW (tier 2 basis)
N    0.261522  -2.142949  1.017925
C    -0.096152  -0.756383  1.243217
C    0.747155  -0.196165  2.396185
O    0.702812  -0.594733  3.593942
H    1.135463  -2.270220  0.510422
H    0.234746  -2.755313  1.828685
H    0.206593  -0.197472  0.349286
C    -1.637968  -0.548713  1.377363
C    -2.174602  -0.850283  2.733064
N    -2.678626  0.119898  3.570751
C    -2.089768  -1.983855  3.528714
C    -2.836845  -0.399057  4.819031
N    -2.469058  -1.683142  4.837489
H    -2.086371  -1.207851  0.620149
H    -1.890664  0.482576  1.096463
H    -1.875229  -3.005562  3.219043
H    -3.239292  0.160743  5.658883
H    -2.932841  1.066972  3.291925
O    1.623249  0.696676  2.011491
H    2.224511  0.968221  2.740115
Ca    -0.177636  -1.655389  5.286858
