21
Energy: -33478.6820342 eV PBE+vdW (tier 2 basis)
N    1.232322  0.759857  0.750361
C    0.607433  -0.514693  1.247318
C    1.677472  -1.366633  1.995216
O    2.698311  -0.681860  2.439378
H    0.501332  1.470299  0.638004
H    1.569781  0.600188  -0.207551
H    -0.116336  -0.217769  2.024080
C    -0.118918  -1.277104  0.116817
C    -0.690704  -2.650345  0.529177
N    -1.971115  -2.690902  1.213236
C    -0.939729  -3.668483  -0.511619
C    -2.717303  -3.629874  0.660644
N    -2.114410  -4.242220  -0.401725
H    0.604018  -1.478736  -0.689148
H    -0.914711  -0.654974  -0.315595
H    -0.219062  -3.973881  -1.271243
H    -3.706392  -3.901463  1.028031
H    -2.218609  -2.176889  2.056522
O    1.510685  -2.566512  2.171991
H    0.109612  -3.060001  1.236691
Ca    3.219323  1.260997  2.172413
