21
Energy: -33479.3445434 eV PBE+vdW (tier 2 basis)
N    -0.680459  1.398606  0.534946
C    -0.108372  1.215769  1.923004
C    1.249942  0.518583  1.804206
O    1.830724  0.111479  2.860473
H    0.072208  1.438328  -0.170250
H    -1.267033  2.239405  0.459776
H    0.095408  2.212976  2.340957
C    -1.118389  0.475738  2.821854
C    -1.680583  -0.737635  2.147753
N    -2.898566  -1.291729  2.479378
C    -1.205969  -1.548787  1.121030
C    -3.090591  -2.386150  1.679071
N    -2.086990  -2.560178  0.843663
H    -1.919625  1.178661  3.097056
H    -0.592179  0.233963  3.758023
H    -0.265169  -1.485170  0.576528
H    -3.977493  -3.008692  1.748038
H    -3.531916  -0.970000  3.206363
O    1.806148  0.389130  0.654495
H    -1.270689  0.547959  0.345501
Ca    3.520596  -0.613257  1.672135
