21
Energy: -33478.6681312 eV PBE+vdW (tier 2 basis)
N    0.817355  0.949138  0.596485
C    0.534981  -0.347549  1.187654
C    1.868115  -0.707339  1.860836
O    2.028855  -0.487769  3.114259
H    0.018781  1.578567  0.571608
H    1.264237  0.900733  -0.317618
H    -0.189891  -0.190890  1.998284
C    0.028691  -1.391420  0.167394
C    -0.495366  -2.733346  0.761791
N    -1.798821  -2.643669  1.422270
C    -0.846457  -3.735252  -0.290880
C    -2.649720  -3.431503  0.803431
N    -2.098529  -4.105718  -0.259873
H    0.845093  -1.642698  -0.525011
H    -0.775087  -0.934287  -0.425954
H    -0.149630  -4.114768  -1.039882
H    -3.691915  -3.543166  1.103598
H    -2.014622  -2.083117  2.245515
O    2.866504  -1.092983  1.146657
H    0.244742  -3.156384  1.466315
Ca    4.175684  -0.558580  2.812121
