21
Energy: -33479.4347013 eV PBE+vdW (tier 2 basis)
N    -0.450668  -1.634940  1.921128
C    0.793716  -1.730469  1.077656
C    1.943561  -0.949324  1.681419
O    1.724029  -0.086697  2.607422
H    -0.506852  -2.368963  2.642951
H    -0.486552  -0.718360  2.393111
H    1.076490  -2.788903  1.000036
C    0.342943  -1.194196  -0.299187
C    -1.087350  -1.739985  -0.464983
N    -1.157032  -3.133698  -0.896116
C    -1.684046  -1.876539  0.970423
C    -1.802804  -3.856851  0.062362
N    -2.111370  -3.229663  1.160322
H    1.022887  -1.521005  -1.092824
H    0.320589  -0.094543  -0.297907
H    -2.436731  -1.136198  1.265788
H    -2.024888  -4.912297  -0.097813
H    -1.130564  -3.405056  -1.874229
O    3.124497  -1.139170  1.236393
H    -1.686465  -1.087233  -1.112759
Ca    3.905611  0.334093  2.647806
