21
Energy: -33478.9406827 eV PBE+vdW (tier 2 basis)
N    0.590038  0.591263  -0.819181
C    -0.298923  0.334767  0.354673
C    0.515754  -0.252347  1.537038
O    1.781853  0.074352  1.546936
H    0.642637  -0.259970  -1.392135
H    0.160132  1.287767  -1.436525
H    -0.660127  1.318923  0.694125
C    -1.504506  -0.587045  0.067730
C    -2.282172  -0.914938  1.300159
N    -2.716868  -2.116271  1.613773
C    -2.966801  0.009906  2.265185
C    -3.567097  -2.031360  2.770437
N    -3.725493  -0.832879  3.167444
H    -1.160579  -1.515593  -0.412230
H    -2.195304  -0.094715  -0.637032
H    -3.652141  0.696091  1.732187
H    -3.996705  -2.933852  3.201456
H    -2.456474  -2.986273  1.147356
O    -0.070487  -0.931372  2.364655
H    -2.270652  0.648135  2.830020
Ca    2.883915  1.019411  0.121931
