21
Energy: -33478.4893027 eV PBE+vdW (tier 2 basis)
N    0.131949  0.031641  0.367092
C    -0.279255  0.133865  1.805744
C    0.951684  0.418109  2.642910
O    2.099340  0.217108  2.173928
H    -0.512517  -0.691061  -0.026435
H    -0.170903  0.889648  -0.110364
H    -1.012722  0.945884  1.928566
C    -0.934523  -1.200476  2.311049
C    -1.919382  -1.729119  1.322077
N    -2.157175  -3.080898  1.138492
C    -2.788415  -1.100976  0.434712
C    -3.143750  -3.197273  0.197937
N    -3.527191  -2.019113  -0.255710
H    -1.400687  -0.985501  3.286152
H    -0.147615  -1.948112  2.506872
H    -2.942393  -0.035055  0.278281
H    -3.540229  -4.159078  -0.113708
H    -1.766183  -3.846179  1.680529
O    0.867954  0.818358  3.878751
H    -0.045512  0.981604  4.192482
Ca    2.524705  -0.230301  0.133629
