21
Energy: -33479.7274887 eV PBE+vdW (tier 2 basis)
N    1.308619  -0.799892  1.151929
C    -0.025923  -0.211725  1.459196
C    0.194655  0.776896  2.607731
O    1.094845  0.574438  3.437111
H    1.181302  -1.597247  0.519427
H    1.839489  -0.119171  0.595149
H    -0.458424  0.300535  0.584975
C    -1.048324  -1.319625  1.916020
C    -0.530841  -2.059804  3.104820
N    -0.790998  -1.719585  4.417453
C    0.537070  -2.942565  3.181871
C    0.137256  -2.323462  5.214882
N    0.985042  -3.053398  4.491263
H    -1.196752  -2.004749  1.069380
H    -2.025184  -0.855622  2.107679
H    0.967266  -3.545864  2.383487
H    0.151935  -2.218417  6.296461
H    -1.556833  -1.134903  4.749264
O    -0.602160  1.801700  2.782126
H    -1.240342  1.940640  2.052934
Ca    2.409222  -1.241648  3.447075
