21
Energy: -33479.8643859 eV PBE+vdW (tier 2 basis)
N    -0.531773  0.359673  0.114943
C    -0.389067  0.339470  1.620674
C    1.141329  0.058086  1.832065
O    1.636300  0.381621  2.983947
H    -1.388263  -0.084705  -0.238171
H    -0.482693  1.310089  -0.274673
H    -0.658282  1.325823  2.014032
C    -1.315708  -0.763126  2.227306
C    -0.814281  -1.189025  3.569245
N    -0.112048  -2.358686  3.769354
C    -0.611891  -0.455183  4.720308
C    0.512461  -2.297189  4.970726
N    0.250304  -1.129717  5.573444
H    -1.337039  -1.633437  1.554246
H    -2.343133  -0.379709  2.293392
H    -1.034420  0.512259  4.981008
H    1.097111  -3.112344  5.387269
H    -0.087643  -3.158611  3.139354
O    1.735064  -0.457478  0.890842
H    0.338462  -0.168753  -0.192901
Ca    2.067392  0.289609  5.013253
