21
Energy: -33478.6593272 eV PBE+vdW (tier 2 basis)
N    0.060493  1.415971  1.465653
C    0.129859  -0.025353  1.635921
C    1.624896  -0.309766  1.433314
O    2.151514  -0.174440  0.267668
H    0.026026  1.719111  0.493788
H    -0.676649  1.860432  2.008157
H    -0.092560  -0.247641  2.688531
C    -0.811490  -0.820539  0.697319
C    -1.165563  -2.257993  1.196558
N    -2.022184  -2.979589  0.257473
C    -0.049053  -3.243188  1.282712
C    -1.434599  -4.097421  -0.096419
N    -0.216622  -4.289747  0.521042
H    -0.384829  -0.880168  -0.314003
H    -1.755200  -0.261867  0.630891
H    0.823941  -3.137303  1.928004
H    -1.863050  -4.806764  -0.804400
H    -2.933116  -2.658406  -0.072441
O    2.377095  -0.546300  2.445999
H    -1.681599  -2.183226  2.173068
Ca    4.095691  0.013195  1.239166
