21
Energy: -33478.1977428 eV PBE+vdW (tier 2 basis)
N    -0.725922  0.642106  0.691308
C    -0.148826  0.041040  1.866361
C    1.355617  0.312467  2.133476
O    1.895095  0.205941  3.237822
H    -0.225282  0.414921  -0.167576
H    -0.791457  1.655932  0.761501
H    -0.667357  0.459742  2.743562
C    -0.462181  -1.486709  1.819702
C    -0.319892  -2.221534  3.108200
N    -0.940285  -3.421063  3.411659
C    0.396826  -1.928602  4.243807
C    -0.603844  -3.823996  4.655999
N    0.221489  -2.930394  5.204552
H    0.154848  -1.975361  1.046866
H    -1.501780  -1.552072  1.465285
H    1.025161  -1.012327  4.299088
H    -0.961984  -4.736212  5.121261
H    -1.566670  -3.933509  2.790956
O    2.010608  0.694947  1.044257
H    2.946770  0.876660  1.269693
Ca    1.702442  -1.888711  6.383536
