21
Energy: -33478.1242932 eV PBE+vdW (tier 2 basis)
N    -1.136712  -1.292457  0.141382
C    -0.307233  -0.355739  0.903507
C    1.193787  -0.566524  0.607528
O    1.624641  -1.596497  0.145399
H    -1.249419  -0.936006  -0.809870
H    -0.598735  -2.161996  0.033545
H    -0.579912  0.674720  0.638245
C    -0.509393  -0.543538  2.437375
C    -1.934427  -0.409343  2.836624
N    -2.399189  0.342193  3.898430
C    -3.078687  -0.912589  2.249072
C    -3.747191  0.298736  3.951542
N    -4.207931  -0.447026  2.946275
H    0.112089  0.180889  2.980334
H    -0.148698  -1.546250  2.718730
H    -3.021614  -1.370625  1.239204
H    -4.344816  0.789296  4.712673
H    -1.812486  0.853294  4.557675
O    1.917017  0.510169  0.959232
H    2.861104  0.327468  0.769888
Ca    -5.402081  -1.978206  2.015648
