21
Energy: -33478.8637772 eV PBE+vdW (tier 2 basis)
N    0.702422  0.396767  0.117488
C    0.506197  0.127611  1.494786
C    1.729517  -0.608139  2.044100
O    2.414212  -1.368791  1.274801
H    0.106890  1.115857  -0.282729
H    0.796915  -0.410413  -0.494203
H    0.427881  1.077168  2.039762
C    -0.839625  -0.740668  1.840963
C    -1.438781  -0.414582  3.139528
N    -2.506401  0.342732  3.315609
C    -0.981487  -0.753552  4.521832
C    -2.757062  0.503767  4.721064
N    -1.898758  -0.107902  5.437300
H    -0.584934  -1.808090  1.794053
H    -1.537430  -0.527725  1.022604
H    -0.979040  -1.846198  4.690593
H    -3.605797  1.093371  5.063613
H    -3.088801  0.733362  2.571952
O    2.098269  -0.441212  3.265016
H    0.058413  -0.426377  4.703753
Ca    3.984808  -1.467775  2.766461
