21
Energy: -33479.2753684 eV PBE+vdW (tier 2 basis)
N    -0.024653  -0.788059  0.050450
C    0.122797  -0.166575  1.415591
C    1.551106  -0.291162  1.914055
O    1.894486  0.356459  2.958335
H    -1.066068  -0.959232  -0.051838
H    0.489998  -1.677872  -0.018738
H    -0.121977  0.899663  1.313176
C    -0.892935  -0.830424  2.394664
C    -2.236254  -0.963211  1.749378
N    -3.087796  -2.029957  1.965756
C    -2.915865  -0.156561  0.839500
C    -4.215057  -1.813270  1.220023
N    -4.131004  -0.699437  0.520818
H    -0.913670  -0.199839  3.295752
H    -0.515831  -1.818110  2.704768
H    -2.620729  0.812499  0.439632
H    -5.056389  -2.499805  1.225154
H    -2.944454  -2.801302  2.611153
O    2.388183  -1.053025  1.308637
H    0.296320  -0.177768  -0.711546
Ca    3.926791  -0.433014  2.799282
