21
Energy: -33479.019666 eV PBE+vdW (tier 2 basis)
N    0.713891  0.195378  -0.843284
C    -0.050577  -0.062015  0.424096
C    0.899411  -0.699971  1.486711
O    2.167123  -0.491777  1.260389
H    0.634002  -0.631544  -1.448409
H    0.250492  0.941458  -1.372773
H    -0.318160  0.925865  0.832582
C    -1.357020  -0.860993  0.147365
C    -2.395730  -0.919101  1.222251
N    -2.166078  -1.146779  2.487222
C    -3.878201  -0.804443  1.089518
C    -3.418329  -1.189344  3.189748
N    -4.415902  -0.997217  2.416394
H    -1.099561  -1.907756  -0.098268
H    -1.839301  -0.445982  -0.749056
H    -4.296024  -1.548503  0.384851
H    -3.441459  -1.371106  4.262451
H    -1.174307  -1.284849  2.819882
O    0.456569  -1.292031  2.461547
H    -4.188866  0.174614  0.678638
Ca    3.136027  0.430097  -0.267854
