21
Energy: -33478.7268889 eV PBE+vdW (tier 2 basis)
N    0.348669  0.712498  -1.003075
C    -0.419174  0.391004  0.250825
C    0.583047  0.095821  1.372008
O    1.810674  0.334750  1.188705
H    0.331213  -0.123329  -1.602875
H    -0.189832  1.403118  -1.537994
H    -0.943768  1.312749  0.554219
C    -1.470229  -0.729574  0.041780
C    -2.302769  -0.981175  1.265474
N    -2.842256  -2.215201  1.573104
C    -2.778997  -0.135491  2.268633
C    -3.597842  -2.064257  2.704553
N    -3.566490  -0.825530  3.151216
H    -0.948593  -1.653947  -0.259137
H    -2.105917  -0.430677  -0.808024
H    -2.634843  0.937999  2.376406
H    -4.136048  -2.891080  3.158663
H    -2.725224  -3.078374  1.049677
O    0.188973  -0.362574  2.501542
H    -0.830834  -0.519447  2.489624
Ca    2.696241  1.254719  -0.478324
