21
Energy: -33479.1419527 eV PBE+vdW (tier 2 basis)
N    -0.816372  0.128329  1.708443
C    0.472238  -0.550658  1.583712
C    1.670504  0.376040  1.311703
O    1.495934  1.638804  1.179089
H    -0.896332  0.609637  2.605214
H    -0.926799  0.846161  0.988104
H    0.704816  -1.024324  2.552559
C    0.427085  -1.671448  0.513656
C    -0.616248  -2.757773  0.859190
N    -1.981535  -2.244098  0.892084
C    -0.806395  -3.883706  -0.111373
C    -2.722973  -2.953620  0.084315
N    -2.034779  -3.985176  -0.532991
H    1.410584  -2.152482  0.440591
H    0.187338  -1.246922  -0.472512
H    -0.029012  -4.585169  -0.417807
H    -3.780794  -2.761846  -0.093566
H    -2.154777  -1.335625  1.365036
O    2.854604  -0.117614  1.244120
H    -0.379674  -3.196796  1.849818
Ca    3.663588  1.892284  1.025615
