21
Energy: -33478.429177 eV PBE+vdW (tier 2 basis)
N    -0.664821  0.737676  0.004513
C    -0.143154  0.280549  1.293177
C    1.337901  -0.098584  1.173143
O    1.763810  -1.173787  0.735453
H    -0.276983  0.223383  -0.786310
H    -0.469231  1.726323  -0.148500
H    -0.200004  1.121933  1.994197
C    -1.025894  -0.844518  1.895972
C    -1.304891  -2.010405  1.006972
N    -0.298872  -2.678784  0.332121
C    -2.463437  -2.671961  0.685417
C    -0.814498  -3.688328  -0.362026
N    -2.159054  -3.738088  -0.175591
H    -1.984825  -0.388140  2.169548
H    -0.567228  -1.208212  2.830110
H    -3.475531  -2.447565  1.010303
H    -0.232011  -4.361128  -0.982926
H    0.696565  -2.271447  0.387108
O    2.142030  0.896713  1.520286
H    3.074180  0.638422  1.356374
Ca    -3.713052  -5.083054  -0.848341
