21
Energy: -33478.4839039 eV PBE+vdW (tier 2 basis)
N    0.986001  0.508704  0.958417
C    0.456283  -0.368796  2.066888
C    1.576519  -1.368254  2.386093
O    2.758233  -0.931572  2.435622
H    0.428243  1.370522  0.942976
H    0.763072  0.054340  0.061346
H    0.421415  0.267106  2.968156
C    -0.953236  -0.948016  1.871085
C    -1.024215  -2.135987  0.954030
N    -2.171718  -2.896199  0.812376
C    -0.158433  -2.654614  -0.007432
C    -1.947136  -3.805833  -0.181946
N    -0.735687  -3.685185  -0.690491
H    -1.604587  -0.129841  1.518157
H    -1.340901  -1.203393  2.871421
H    0.862745  -2.356544  -0.244614
H    -2.692900  -4.535206  -0.483921
H    -3.032861  -2.799472  1.343974
O    1.342528  -2.610781  2.618736
H    0.444604  -2.871797  2.237614
Ca    3.415033  0.757820  1.339514
