21
Energy: -33479.2605791 eV PBE+vdW (tier 2 basis)
N    1.033930  1.790380  2.899029
C    1.504076  0.728313  3.859158
C    2.187384  -0.372702  3.049042
O    2.523565  -0.144321  1.829894
H    1.072629  2.733670  3.306057
H    1.587919  1.769090  2.028440
H    2.287716  1.163557  4.498633
C    0.307766  0.264795  4.743252
C    -0.908589  -0.020954  3.932038
N    -1.276159  -1.273089  3.473563
C    -1.828789  0.845963  3.351095
C    -2.391884  -1.109305  2.688457
N    -2.730758  0.156465  2.580380
H    0.098031  1.069481  5.462132
H    0.641526  -0.596097  5.336281
H    -1.950231  1.913886  3.531650
H    -2.914127  -1.947960  2.237258
H    -0.916576  -2.159828  3.813724
O    2.477405  -1.482263  3.602940
H    0.021626  1.560394  2.672604
Ca    3.572540  -2.099477  1.797373
