21
Energy: -33478.8159352 eV PBE+vdW (tier 2 basis)
N    0.957321  -0.377417  0.377681
C    0.356216  -0.340641  1.659709
C    1.319446  -0.884226  2.719034
O    2.426189  -1.422161  2.373805
H    1.236417  -1.292035  0.032396
H    0.493215  0.170533  -0.341034
H    0.181449  0.712000  1.937125
C    -1.074354  -1.073881  1.771726
C    -1.812895  -0.861976  3.026343
N    -2.278654  -1.808913  3.816280
C    -2.226416  0.419661  3.678592
C    -2.957443  -1.212797  4.935217
N    -2.934771  0.059539  4.890165
H    -0.962109  -2.141398  1.538663
H    -1.663838  -0.621276  0.960028
H    -2.882631  1.017606  3.018012
H    -3.422700  -1.839918  5.693804
H    -2.215708  -2.812714  3.637687
O    1.037782  -0.754213  3.970679
H    -1.370568  1.077128  3.908189
Ca    3.119051  -1.357902  4.416900
