21
Energy: -33478.5233811 eV PBE+vdW (tier 2 basis)
N    0.995531  0.631504  1.110731
C    0.517664  -0.385188  2.112515
C    1.714939  -1.318320  2.467990
O    2.855279  -0.677674  2.539098
H    0.315182  1.397355  1.058671
H    0.987090  0.220645  0.170209
H    0.341874  0.184972  3.038505
C    -0.817990  -1.096946  1.799692
C    -0.704549  -2.481613  1.108878
N    -1.911647  -3.284026  1.155419
C    -0.382373  -2.623891  -0.325111
C    -2.141483  -3.790426  -0.037833
N    -1.216494  -3.399983  -0.972200
H    -1.481697  -0.434786  1.227072
H    -1.313563  -1.277637  2.763158
H    0.491162  -2.204489  -0.825452
H    -2.969363  -4.463627  -0.257250
H    -2.455261  -3.483273  1.995342
O    1.560528  -2.512635  2.672076
H    0.123564  -2.987424  1.701357
Ca    3.349608  1.150460  1.806134
