21
Energy: -33479.3075054 eV PBE+vdW (tier 2 basis)
N    -0.282789  0.397579  0.881306
C    0.666816  0.041697  1.930182
C    1.999394  -0.561210  1.447195
O    2.292761  -0.547739  0.200579
H    0.063159  1.169477  0.309562
H    -0.457344  -0.382528  0.243428
H    0.966090  0.975627  2.438625
C    0.014262  -0.872740  3.001326
C    -1.220727  -0.308274  3.611263
N    -2.040031  0.502897  2.992584
C    -1.810235  -0.528689  4.963757
C    -3.133541  0.826566  3.868949
N    -3.030432  0.248706  5.001321
H    0.736737  -1.111939  3.792055
H    -0.266772  -1.842577  2.550056
H    -2.017275  -1.595985  5.166352
H    -3.926733  1.494343  3.538847
H    -1.819959  0.792915  2.012027
O    2.835241  -1.036020  2.298903
H    -1.123371  -0.217549  5.772876
Ca    4.258748  -1.378557  0.677807
