21
Energy: -33479.1334454 eV PBE+vdW (tier 2 basis)
N    -0.572629  -2.140153  4.513738
C    -0.081203  -1.576135  3.268272
C    1.442006  -1.746431  3.170033
O    2.236537  -0.917293  3.749300
H    -2.829671  -1.239221  4.498671
H    -0.052895  -1.834714  5.336974
H    -0.516925  -2.150480  2.439851
C    -0.464922  -0.066755  3.128535
C    -1.930871  0.135241  3.130152
N    -2.646475  0.597219  2.126359
C    -2.917182  -0.172389  4.198977
C    -4.037951  0.601262  2.494464
N    -4.219746  0.162826  3.677490
H    -0.014175  0.348810  2.217273
H    -0.029654  0.474466  3.983713
H    -2.712877  0.373670  5.137723
H    -4.790887  0.953008  1.791541
H    -2.280742  0.909851  1.224680
O    1.918250  -2.780370  2.577294
H    -0.625543  -3.157583  4.498229
Ca    3.925554  -2.175833  3.146731
