21
Energy: -33479.3045463 eV PBE+vdW (tier 2 basis)
N    0.157098  -2.434342  2.051813
C    1.390519  -2.340483  1.199139
C    2.212467  -1.125477  1.620705
O    1.923629  -0.493918  2.701154
H    -0.133929  -3.409333  2.223078
H    0.302819  -1.978339  2.964792
H    2.031511  -3.215102  1.386504
C    0.877639  -2.328470  -0.254667
C    -0.550366  -1.720463  -0.211155
N    -1.571664  -2.559350  -0.820569
C    -1.033807  -1.766542  1.274793
C    -2.412903  -3.015355  0.142842
N    -2.171568  -2.623507  1.363103
H    0.821917  -3.359537  -0.624094
H    1.566796  -1.782868  -0.907379
H    -1.183378  -0.793022  1.759296
H    -3.238878  -3.679695  -0.111846
H    -1.725548  -2.645763  -1.818878
O    3.220915  -0.782736  0.919747
H    -0.573077  -0.703781  -0.622404
Ca    3.755808  0.731084  2.405026
