21
Energy: -33479.2615329 eV PBE+vdW (tier 2 basis)
N    0.247010  -0.358043  0.020347
C    -0.215262  -0.355938  1.369447
C    0.828416  -0.618553  2.476281
O    0.662775  -0.309739  3.687044
H    0.623428  -1.245105  -0.309099
H    0.888289  0.398040  -0.208635
H    -0.605473  0.649395  1.602097
C    -1.423083  -1.371013  1.498896
C    -2.143652  -1.217849  2.786126
N    -3.026486  -0.190860  3.052292
C    -1.904088  -1.794675  4.020209
C    -3.246349  -0.125551  4.391488
N    -2.558795  -1.081356  5.025011
H    -1.058570  -2.400917  1.387656
H    -2.061811  -1.157605  0.631627
H    -1.362173  -2.716862  4.227935
H    -3.913788  0.593346  4.858440
H    -3.473272  0.403808  2.355116
O    1.928572  -1.184305  2.056400
H    2.584143  -1.306993  2.776466
Ca    -0.420832  -0.326224  5.584856
