21
Energy: -33478.0792893 eV PBE+vdW (tier 2 basis)
N    -0.404666  -0.968798  0.056531
C    -0.052045  -0.247877  1.274082
C    1.460479  -0.096731  1.585697
O    1.899139  0.021784  2.706599
H    -0.047002  -0.481258  -0.765952
H    0.018749  -1.899456  0.044661
H    -0.413229  0.788909  1.159185
C    -0.735048  -0.866695  2.506739
C    -2.222461  -0.800865  2.457112
N    -3.004402  -0.637036  3.591548
C    -3.126750  -0.889275  1.425550
C    -4.304177  -0.625628  3.265757
N    -4.429460  -0.776714  1.934387
H    -0.358088  -0.358627  3.404894
H    -0.423334  -1.920229  2.607080
H    -2.874469  -1.020715  0.373453
H    -5.108679  -0.507708  3.983507
H    -2.643937  -0.535020  4.539440
O    2.191110  -0.076830  0.457254
H    3.128733  0.065817  0.702617
Ca    -6.034676  -0.962879  0.464324
