21
Energy: -33478.6219131 eV PBE+vdW (tier 2 basis)
N    0.814508  0.923717  1.493804
C    0.479674  -0.516992  1.759391
C    1.788408  -1.354915  1.835051
O    2.837355  -0.661026  2.224076
H    0.030231  1.519307  1.779222
H    0.882155  1.062249  0.477730
H    0.053722  -0.551182  2.776267
C    -0.561402  -1.067002  0.760872
C    -1.049332  -2.527518  1.024710
N    -2.471424  -2.731757  0.716410
C    -0.480934  -3.625014  0.168776
C    -2.593348  -3.738219  -0.115278
N    -1.390619  -4.300256  -0.477927
H    -0.167637  -1.006197  -0.264016
H    -1.445279  -0.414845  0.796728
H    0.582466  -3.851573  0.113056
H    -3.554663  -4.102670  -0.479053
H    -3.248215  -2.212874  1.125284
O    1.766147  -2.543647  1.591686
H    -0.880749  -2.807388  2.082353
Ca    3.093937  1.326801  2.454858
