21
Energy: -33479.0876299 eV PBE+vdW (tier 2 basis)
N    -0.803615  -2.582465  2.830301
C    0.048935  -1.396156  2.804653
C    1.516740  -1.761972  3.058695
O    2.009901  -1.767203  4.246965
H    -2.199231  1.030236  1.740743
H    -0.702575  -3.128401  3.687162
H    0.010719  -0.978063  1.788756
C    -0.481566  -0.369118  3.826024
C    -1.917549  -0.056843  3.598337
N    -2.811406  0.100357  4.544787
C    -2.651662  0.207753  2.324274
C    -4.081179  0.456968  3.958095
N    -4.015087  0.526322  2.689411
H    0.079656  0.578192  3.738913
H    -0.321026  -0.729389  4.852232
H    -2.633175  -0.674437  1.659053
H    -4.949366  0.629715  4.591654
H    -2.641931  -0.009093  5.547262
O    2.238186  -2.148869  2.068348
H    -0.646507  -3.196480  2.031161
Ca    3.899737  -2.503056  3.413175
