21
Energy: -33478.4313434 eV PBE+vdW (tier 2 basis)
N    0.008884  -0.034463  0.034518
C    0.151892  -0.158098  1.526562
C    1.639354  -0.236630  1.843081
O    2.479387  0.130711  0.985662
H    -0.084264  -0.991755  -0.336557
H    -0.936199  0.348597  -0.127336
H    -0.179583  0.803750  1.959544
C    -0.721550  -1.275161  2.142676
C    -2.153015  -1.074950  1.759919
N    -3.067766  -2.102042  1.640923
C    -2.873233  0.071362  1.453372
C    -4.266965  -1.542439  1.289211
N    -4.173322  -0.233556  1.158453
H    -0.604818  -1.248570  3.243900
H    -0.350474  -2.260782  1.813881
H    -2.545044  1.110245  1.474094
H    -5.164337  -2.135486  1.141632
H    -2.908898  -3.086757  1.833985
O    2.084266  -0.631643  2.997609
H    1.378354  -0.923821  3.613225
Ca    2.003322  0.950438  -0.930171
