21
Energy: -33478.6644233 eV PBE+vdW (tier 2 basis)
N    -0.003146  1.007312  0.606164
C    0.192986  -0.304512  1.170335
C    1.648095  -0.464505  1.602440
O    2.353101  0.576910  1.848554
H    0.567409  1.722535  1.053247
H    -0.977046  1.303743  0.608659
H    -0.374868  -0.492517  2.114995
C    -0.241446  -1.347393  0.103717
C    -0.501014  -2.793975  0.604230
N    -1.752057  -2.979671  1.341731
C    -0.743040  -3.774799  -0.495576
C    -2.490377  -3.871022  0.720024
N    -1.900067  -4.375107  -0.414792
H    0.518134  -1.391624  -0.687661
H    -1.157446  -0.972856  -0.371698
H    -0.042664  -3.981347  -1.306230
H    -3.473414  -4.186846  1.069996
H    -2.008799  -2.512117  2.209796
O    2.176459  -1.631466  1.750996
H    0.350900  -3.121407  1.231206
Ca    4.064299  -0.650334  2.328866
