21
Energy: -33480.1270283 eV PBE+vdW (tier 2 basis)
N    -0.009785  2.365071  1.044158
C    -0.338592  1.231415  1.997557
C    0.628923  0.077707  1.670950
O    0.882291  -0.767190  2.576634
H    0.272864  1.932881  0.141562
H    0.787117  2.927271  1.377967
H    -0.172249  1.589643  3.019064
C    -1.836394  0.760087  1.795295
C    -1.933996  -0.731476  1.814974
N    -2.031724  -1.509909  2.948648
C    -1.555454  -1.610716  0.818680
C    -1.653092  -2.774805  2.640697
N    -1.323456  -2.871259  1.348545
H    -2.193041  1.104816  0.813382
H    -2.470194  1.237876  2.552556
H    -1.460663  -1.406815  -0.245823
H    -1.640543  -3.586493  3.361731
H    -2.320112  -1.196644  3.873228
O    1.003690  -0.056460  0.462307
H    -0.800238  3.007437  0.891179
Ca    1.046647  -2.366437  0.995709
