31
Energy: -38167.3332831 eV PBE+vdW (tier 2 basis)
C    -0.324608  0.097611  -0.511941
C    -0.010150  -0.004254  0.939705
O    1.204165  -0.337223  1.280247
H    0.337136  0.831212  -0.987315
H    -1.356495  0.385446  -0.723512
H    -0.140746  -0.886602  -0.970952
N    -0.938125  0.023732  1.898916
C    -2.135933  0.859193  1.808660
C    -1.595640  2.334626  1.564465
O    -0.429652  2.454615  1.184025
H    -0.569582  -0.121372  2.840172
H    -2.688875  0.562830  0.905979
C    -3.015209  0.619612  3.058157
C    -4.470733  0.968365  2.924659
N    -5.285615  1.096750  4.046899
C    -5.311348  1.122293  1.848667
C    -6.556061  1.311195  3.683452
N    -6.581579  1.332252  2.350108
H    -2.592551  1.166027  3.916408
H    -2.961727  -0.453113  3.307819
H    -4.985115  1.025077  5.017916
H    -5.127785  1.086433  0.782275
H    -7.402490  1.447600  4.349392
H    -7.423675  1.476719  1.792923
N    -2.458318  3.340476  1.745002
C    -2.117489  4.749810  1.511849
H    -3.399129  3.132987  2.062698
H    -2.933832  5.234986  0.966322
H    -1.202540  4.796511  0.916151
H    -1.956788  5.270333  2.464025
Ca    3.212459  -0.566183  1.293903
