31
Energy: -38168.4193235 eV PBE+vdW (tier 2 basis)
C    -0.260494  1.371390  0.338843
C    -0.242685  0.919380  1.757111
O    0.746106  1.170827  2.512693
H    -1.165811  1.082510  -0.205094
H    0.618200  0.969150  -0.185310
H    -0.159627  2.466986  0.317118
N    -1.303137  0.237559  2.237557
C    -1.465182  -0.196287  3.633610
C    -0.448767  -1.329017  3.972192
O    0.674884  -0.951484  4.449650
H    -2.044827  0.017889  1.576703
H    -1.123398  0.635759  4.266106
C    -2.953181  -0.490160  3.975387
C    -3.846734  0.701884  4.167737
N    -4.060407  1.319920  5.398937
C    -4.691603  1.339059  3.292341
C    -4.987739  2.279500  5.285055
N    -5.371113  2.302456  4.006575
H    -2.976580  -1.098325  4.891623
H    -3.407186  -1.119470  3.199127
H    -3.640587  1.058076  6.288894
H    -4.892664  1.165707  2.241937
H    -5.364569  2.910586  6.084212
H    -6.084899  2.928222  3.631182
N    -0.671607  -2.616370  3.779596
C    -1.801718  -3.330655  3.168378
H    0.098894  -3.210295  4.096383
H    -1.424680  -4.289051  2.797388
H    -2.204118  -2.777725  2.314312
H    -2.587724  -3.535251  3.905879
Ca    2.173954  0.508231  3.958877
