31
Energy: -38167.8189701 eV PBE+vdW (tier 2 basis)
C    -2.169317  4.251204  0.795791
C    -1.258790  3.087939  0.937695
O    -0.047940  3.238376  1.282303
H    -3.196908  3.988095  0.528648
H    -1.757384  4.871779  -0.020249
H    -2.150808  4.890602  1.688381
N    -1.692903  1.817312  0.651363
C    -2.844565  1.250490  1.351448
C    -2.335557  0.768952  2.757102
O    -1.183020  1.144374  3.157794
H    -0.909491  1.164394  0.585814
H    -3.530750  2.080786  1.583654
C    -3.673467  0.262363  0.483053
C    -2.972875  -0.837397  -0.262162
N    -2.712010  -0.764996  -1.629988
C    -2.610962  -2.111007  0.106110
C    -2.226930  -1.928967  -2.077628
N    -2.154174  -2.750625  -1.026856
H    -4.214916  0.879728  -0.247604
H    -4.468239  -0.187993  1.094672
H    -2.911528  0.028390  -2.237579
H    -2.678969  -2.623619  1.057831
H    -1.953446  -2.163640  -3.101998
H    -1.839261  -3.720149  -1.077035
N    -3.134359  0.051983  3.521068
C    -2.842712  -0.369238  4.901305
H    -4.067932  -0.159234  3.174502
H    -1.791055  -0.656384  4.988422
H    -3.477365  -1.226880  5.142464
H    -3.066213  0.447207  5.600524
Ca    0.615847  2.379157  3.153157
