31
Energy: -38167.3341499 eV PBE+vdW (tier 2 basis)
C    -1.201989  2.123054  1.894387
C    -0.361462  0.910264  2.092177
O    0.916277  1.077929  2.293723
H    -2.260616  1.908032  1.734573
H    -0.822954  2.660870  1.011097
H    -1.116701  2.783190  2.765632
N    -0.797827  -0.332358  1.875037
C    -2.170904  -0.746476  2.166051
C    -2.402762  -0.370239  3.692028
O    -1.612839  0.419267  4.213139
H    -0.083523  -1.052280  1.994641
H    -2.848627  -0.120384  1.568411
C    -2.346538  -2.230477  1.767478
C    -3.755682  -2.691262  1.523076
N    -4.078598  -4.045982  1.509719
C    -4.916038  -2.040151  1.179758
C    -5.362120  -4.220164  1.171398
N    -5.880600  -3.007413  0.972802
H    -1.887502  -2.873722  2.534926
H    -1.784455  -2.398925  0.833835
H    -3.442057  -4.816413  1.708594
H    -5.138085  -0.988753  1.047637
H    -5.881878  -5.169033  1.082098
H    -6.848154  -2.832690  0.701172
N    -3.461743  -0.902800  4.309717
C    -3.798885  -0.581491  5.704161
H    -4.077637  -1.526903  3.801345
H    -4.722466  -1.103793  5.966855
H    -3.945693  0.498431  5.820219
H    -2.995576  -0.906005  6.375536
Ca    2.698539  1.849057  2.855219
