31
Energy: -38167.3937873 eV PBE+vdW (tier 2 basis)
C    0.807098  0.832036  2.593952
C    0.124286  -0.349775  1.996845
O    0.824965  -1.352020  1.543704
H    0.358906  1.112637  3.557031
H    0.716832  1.703358  1.925020
H    1.870738  0.630187  2.746042
N    -1.197754  -0.409165  1.911845
C    -2.160581  0.640695  2.321264
C    -2.586633  0.594300  3.824071
O    -3.272017  1.532695  4.238907
H    -1.587812  -1.253385  1.487127
H    -1.660911  1.609390  2.189179
C    -3.408163  0.576614  1.386216
C    -4.184844  1.851348  1.208674
N    -4.600341  2.668478  2.247374
C    -4.724676  2.386699  0.064716
C    -5.354161  3.661822  1.775837
N    -5.441831  3.499032  0.449015
H    -4.085166  -0.214602  1.748047
H    -3.077576  0.278346  0.381636
H    -4.280132  2.496322  3.223178
H    -4.676652  2.064752  -0.968173
H    -5.808435  4.457882  2.355625
H    -5.967695  4.109849  -0.174243
N    -2.191165  -0.429135  4.592312
C    -2.592045  -0.545282  6.002868
H    -1.709208  -1.215290  4.173347
H    -2.570140  0.445316  6.466721
H    -1.888295  -1.206758  6.515831
H    -3.606774  -0.954440  6.085966
Ca    2.305041  -2.610021  0.910570
