31
Energy: -38166.6996046 eV PBE+vdW (tier 2 basis)
C    -0.486319  0.498271  -0.095927
C    -0.305739  0.438304  1.378145
O    0.596741  1.227176  1.911741
H    -0.850209  1.498801  -0.374292
H    -1.177711  -0.246096  -0.488177
H    0.488699  0.360695  -0.583539
N    -0.985916  -0.334768  2.205661
C    -2.049211  -1.380232  2.127540
C    -1.480846  -2.793401  2.538875
O    -2.013804  -3.320574  3.506649
H    -0.696358  -0.215211  3.179584
H    -2.672468  -1.136538  2.997716
C    -2.978520  -1.387795  0.898412
C    -4.250201  -2.164811  1.137037
N    -5.260427  -2.191571  0.177835
C    -4.710395  -2.936876  2.175275
C    -6.287216  -2.938387  0.602884
N    -5.961340  -3.392975  1.813555
H    -2.479482  -1.809503  0.013475
H    -3.256669  -0.349380  0.655513
H    -5.251688  -1.720235  -0.724066
H    -4.239441  -3.213946  3.112160
H    -7.207843  -3.133092  0.062740
H    -6.554842  -3.996427  2.382074
N    -0.479361  -3.368103  1.834505
C    0.232378  -2.917782  0.646953
H    -0.219868  -4.280299  2.209149
H    0.962117  -2.125276  0.871703
H    -0.447948  -2.579575  -0.144679
H    0.789942  -3.767256  0.240636
Ca    2.002522  2.593217  2.447941
