31
Energy: -38168.5371857 eV PBE+vdW (tier 2 basis)
C    -0.457378  -1.442540  0.505169
C    -0.846560  -0.125700  1.086109
O    -0.269297  0.314233  2.128288
H    -0.615772  -2.221526  1.266295
H    0.619134  -1.442086  0.283063
H    -1.009279  -1.709896  -0.401952
N    -1.825610  0.571940  0.475551
C    -2.473914  1.844075  0.864664
C    -1.487787  3.040269  0.904433
O    -0.566535  3.105601  1.779776
H    -2.163542  0.158511  -0.389943
H    -3.180325  2.047553  0.048875
C    -3.286194  1.764579  2.184393
C    -4.614567  1.064234  2.088202
N    -5.543683  1.146227  3.123188
C    -5.213670  0.287850  1.128063
C    -6.652042  0.461262  2.815202
N    -6.461509  -0.063873  1.604676
H    -3.469082  2.796708  2.523739
H    -2.675749  1.286819  2.965316
H    -5.430793  1.657817  3.996895
H    -4.877630  -0.045998  0.155335
H    -7.538657  0.358279  3.433656
H    -7.147423  -0.636378  1.111709
N    -1.675968  4.000199  0.018164
C    -0.892572  5.237740  -0.088277
H    -2.418614  3.881487  -0.668756
H    -1.578024  6.069744  -0.283560
H    -0.184107  5.157193  -0.923268
H    -0.353286  5.413869  0.844896
Ca    0.806434  1.955809  2.949099
