31
Energy: -38167.5060465 eV PBE+vdW (tier 2 basis)
C    0.315797  -0.973150  0.793707
C    -0.007162  -0.245904  2.051300
O    0.843513  -0.312802  3.045757
H    1.262691  -0.593689  0.382945
H    -0.458305  -0.877216  0.028150
H    0.464046  -2.039771  1.015006
N    -1.095628  0.463162  2.221882
C    -2.186644  0.837291  1.306963
C    -2.630013  2.209509  1.916910
O    -2.493636  2.337558  3.139376
H    -1.265493  0.986986  3.113265
H    -1.812731  0.937264  0.280086
C    -3.332796  -0.223566  1.411178
C    -4.634116  0.108001  0.748238
N    -4.994837  -0.301408  -0.533715
C    -5.735099  0.763225  1.242497
C    -6.250766  0.074441  -0.808813
N    -6.704977  0.727646  0.264225
H    -3.539468  -0.375207  2.479702
H    -2.960410  -1.184938  1.028166
H    -4.429082  -0.856668  -1.171903
H    -5.905861  1.226363  2.206984
H    -6.797843  -0.123825  -1.724732
H    -7.644840  1.115404  0.345178
N    -3.141492  3.119599  1.082208
C    -3.590034  4.448114  1.516028
H    -3.114491  2.936286  0.083766
H    -2.871076  5.214011  1.199951
H    -3.667428  4.453644  2.606287
H    -4.566865  4.671657  1.073347
Ca    2.296632  -0.452987  4.440515
