31
Energy: -38168.0236424 eV PBE+vdW (tier 2 basis)
C    -1.945453  3.492337  0.466286
C    -1.030867  2.595863  1.218918
O    -0.070673  3.065516  1.901147
H    -2.427960  4.220393  1.133517
H    -2.697492  2.965550  -0.127198
H    -1.317790  4.089439  -0.216592
N    -1.175629  1.235627  1.166438
C    -2.438494  0.584314  1.505434
C    -2.637806  0.750659  3.061275
O    -1.767659  1.396602  3.733889
H    -0.367123  0.758985  1.572520
H    -3.257163  1.133301  1.016674
C    -2.444594  -0.902624  1.041678
C    -2.390124  -1.134649  -0.440154
N    -3.515797  -1.285122  -1.248846
C    -1.317000  -1.336349  -1.272377
C    -3.152168  -1.569084  -2.506064
N    -1.817505  -1.596039  -2.529779
H    -3.332693  -1.408851  1.446048
H    -1.589684  -1.422115  1.499478
H    -4.488636  -1.250230  -0.950727
H    -0.252904  -1.345030  -1.070728
H    -3.817919  -1.753176  -3.343771
H    -1.261456  -1.804692  -3.359796
N    -3.710144  0.241262  3.630663
C    -4.037134  0.333553  5.063736
H    -4.396801  -0.224755  3.042012
H    -3.139688  0.149884  5.662195
H    -4.788167  -0.427132  5.294300
H    -4.447090  1.324804  5.296153
Ca    -0.126389  2.794758  4.049671
