31
Energy: -38167.4848412 eV PBE+vdW (tier 2 basis)
C    0.062304  0.410339  0.023933
C    0.114723  0.470561  1.506289
O    1.271877  0.670589  2.083867
H    -0.940543  0.232161  -0.375744
H    0.713876  -0.407089  -0.321092
H    0.469704  1.344419  -0.390053
N    -0.939897  0.324615  2.294404
C    -2.387655  0.123937  1.976436
C    -2.632034  -1.095980  1.030534
O    -2.834756  -0.894491  -0.174057
H    -0.731366  0.388364  3.291752
H    -2.840967  -0.090115  2.953853
C    -3.015552  1.425544  1.411424
C    -4.494559  1.380527  1.172343
N    -5.081083  0.689824  0.118884
C    -5.519570  2.046884  1.797130
C    -6.396769  0.912920  0.095087
N    -6.674898  1.738363  1.111418
H    -2.517739  1.685753  0.466770
H    -2.816946  2.241803  2.117984
H    -4.549043  0.065315  -0.498376
H    -5.518913  2.721479  2.644581
H    -7.109044  0.503480  -0.613147
H    -7.606097  2.090346  1.329992
N    -2.610802  -2.301851  1.614037
C    -2.841442  -3.556480  0.890493
H    -2.519427  -2.359625  2.624432
H    -2.738205  -3.370611  -0.181609
H    -3.849441  -3.937276  1.098513
H    -2.106978  -4.303127  1.211329
Ca    3.229724  0.979983  2.537466
