31
Energy: -38168.316881 eV PBE+vdW (tier 2 basis)
C    -0.098998  0.846612  -0.004215
C    -0.149067  0.517227  1.444681
O    0.910680  0.452405  2.144680
H    0.573801  0.145199  -0.517772
H    0.345980  1.846929  -0.121203
H    -1.079030  0.833539  -0.492349
N    -1.343252  0.291857  2.026884
C    -1.530697  0.097783  3.475411
C    -0.874912  -1.238541  3.920494
O    0.280195  -1.158688  4.458149
H    -2.168646  0.367299  1.435012
H    -0.920653  0.858910  3.982871
C    -3.017228  0.367275  3.849327
C    -3.309240  0.652924  5.295766
N    -4.026516  -0.201473  6.130201
C    -3.093856  1.787664  6.040330
C    -4.243700  0.377329  7.318444
N    -3.672327  1.583141  7.273838
H    -3.674222  -0.437497  3.498079
H    -3.315817  1.262213  3.281633
H    -4.404648  -1.113313  5.882997
H    -2.616187  2.725971  5.784260
H    -4.788606  -0.049938  8.154685
H    -3.695031  2.258515  8.038843
N    -1.426960  -2.426560  3.730935
C    -2.639874  -2.821863  3.003428
H    -0.866947  -3.199566  4.098616
H    -2.888876  -2.101997  2.219739
H    -3.488478  -2.956594  3.686370
H    -2.443610  -3.786045  2.521325
Ca    2.132722  -0.321718  3.701543
