31
Energy: -38168.1524135 eV PBE+vdW (tier 2 basis)
C    -2.185452  0.853651  -0.607485
C    -1.517142  0.083275  0.474812
O    -0.340959  -0.371189  0.329814
H    -3.214194  1.143761  -0.370043
H    -2.176894  0.268487  -1.537581
H    -1.594666  1.761526  -0.805752
N    -2.172943  -0.124300  1.638757
C    -1.548477  -0.772118  2.795322
C    -1.355671  -2.294874  2.529933
O    -0.193560  -2.639883  2.130163
H    -3.132218  0.206739  1.700517
H    -0.504871  -0.429823  2.788251
C    -2.041116  -0.256014  4.185430
C    -3.484940  -0.147569  4.588404
N    -4.052212  -0.913658  5.605578
C    -4.448512  0.777964  4.259305
C    -5.290508  -0.485738  5.883264
N    -5.543943  0.534603  5.060854
H    -1.619863  0.756491  4.272383
H    -1.504763  -0.847476  4.941616
H    -3.586673  -1.649958  6.133698
H    -4.427290  1.618030  3.574826
H    -5.957036  -0.885283  6.642071
H    -6.412124  1.072103  5.061888
N    -2.300341  -3.211390  2.644160
C    -3.726695  -3.078330  2.931626
H    -1.980595  -4.160648  2.433427
H    -4.291244  -3.627382  2.168095
H    -4.034004  -2.030611  2.903364
H    -3.960966  -3.516479  3.909974
Ca    1.153871  -1.880908  0.614330
