31
Energy: -38167.3773353 eV PBE+vdW (tier 2 basis)
C    0.690596  0.766298  0.361901
C    0.539061  -0.244688  1.439207
O    1.596155  -0.913406  1.822692
H    -0.246495  1.251461  0.073079
H    1.113368  0.277996  -0.528953
H    1.413817  1.530064  0.685046
N    -0.608215  -0.520848  2.040672
C    -1.965545  0.079760  1.871912
C    -2.447886  0.049555  0.387839
O    -2.457694  1.103798  -0.261190
H    -0.547750  -1.242905  2.759833
H    -2.616681  -0.575150  2.465848
C    -2.018830  1.510871  2.468781
C    -3.374947  2.149007  2.508359
N    -4.025339  2.643019  1.384504
C    -4.170478  2.484254  3.576144
C    -5.162243  3.246881  1.735784
N    -5.260688  3.157457  3.067812
H    -1.340987  2.166420  1.904484
H    -1.644410  1.466531  3.499849
H    -3.670549  2.495067  0.432318
H    -4.041744  2.322645  4.639396
H    -5.874965  3.720719  1.069340
H    -6.027744  3.543986  3.616404
N    -2.845385  -1.130309  -0.113266
C    -2.969417  -2.421468  0.564395
H    -3.167332  -1.076125  -1.079566
H    -3.675499  -2.376981  1.404579
H    -1.997826  -2.796832  0.912751
H    -3.360752  -3.146379  -0.155140
Ca    3.463228  -1.678836  2.085721
