31
Energy: -38167.6872382 eV PBE+vdW (tier 2 basis)
C    -0.923970  0.454536  -0.630648
C    -0.543993  0.108796  0.760614
O    0.623533  -0.298432  1.044195
H    -0.205436  1.150319  -1.084049
H    -1.947323  0.826020  -0.736445
H    -0.842639  -0.477814  -1.218070
N    -1.461121  0.173213  1.778865
C    -2.163381  1.414370  2.091319
C    -1.124824  2.373078  2.764600
O    0.055376  1.934837  3.006510
H    -1.114429  -0.294225  2.618769
H    -2.435560  1.899078  1.141465
C    -3.518395  1.160302  2.828954
C    -3.595013  0.135303  3.923639
N    -3.750057  0.443014  5.275064
C    -3.734305  -1.231088  3.848141
C    -3.979829  -0.668643  5.985858
N    -3.961117  -1.691459  5.127384
H    -4.223455  0.842415  2.048665
H    -3.912862  2.113267  3.202813
H    -3.768421  1.375051  5.684223
H    -3.739493  -1.894672  2.991352
H    -4.158781  -0.725481  7.055317
H    -4.132914  -2.663492  5.387578
N    -1.425697  3.633349  3.017717
C    -2.632985  4.406089  2.689258
H    -0.670078  4.167808  3.452992
H    -3.272427  4.524738  3.573469
H    -3.196346  3.941247  1.874965
H    -2.317246  5.402651  2.360380
Ca    1.847575  0.830706  2.427606
