31
Energy: -38167.0437598 eV PBE+vdW (tier 2 basis)
C    -0.118312  -0.148367  -0.349862
C    -0.028730  -0.014421  1.130569
O    1.139438  -0.009814  1.712686
H    -0.924916  0.457419  -0.782797
H    -0.324590  -1.201043  -0.609077
H    0.830850  0.130619  -0.817243
N    -1.111319  0.080926  1.888458
C    -2.506636  0.102367  1.389616
C    -2.894774  1.470129  0.720073
O    -3.194415  1.411084  -0.470046
H    -0.955322  0.179104  2.892845
H    -2.543879  -0.594102  0.544006
C    -3.478371  -0.411282  2.471055
C    -4.885992  -0.595890  1.972418
N    -5.888249  -1.082991  2.807761
C    -5.488450  -0.397198  0.754394
C    -7.045136  -1.179824  2.140908
N    -6.811357  -0.765450  0.894816
H    -3.491925  0.265084  3.339958
H    -3.108310  -1.385211  2.832661
H    -5.784505  -1.343299  3.786489
H    -5.092539  -0.014319  -0.179652
H    -7.991112  -1.529392  2.541198
H    -7.515954  -0.726667  0.158964
N    -2.874272  2.620747  1.426868
C    -2.680889  2.860072  2.853134
H    -3.160615  3.423280  0.866189
H    -1.836187  2.287376  3.256569
H    -3.583971  2.643601  3.441344
H    -2.440010  3.918583  2.994504
Ca    3.141651  -0.079813  2.075315
