31
Energy: -38168.4260264 eV PBE+vdW (tier 2 basis)
C    -1.105417  1.969884  2.209055
C    -0.945859  0.498029  2.389277
O    -0.775037  -0.257388  1.383592
H    -1.234098  2.522721  3.145403
H    -1.975793  2.151052  1.560538
H    -0.232743  2.370230  1.673748
N    -0.993146  0.007359  3.645104
C    -0.965617  -1.388370  4.133130
C    0.343174  -2.132212  3.773843
O    0.636681  -2.389298  2.560327
H    -1.072909  0.716256  4.369604
H    -0.981010  -1.293714  5.225167
C    -2.191966  -2.238201  3.709652
C    -3.477270  -1.925481  4.426465
N    -4.628552  -2.673741  4.190184
C    -3.834577  -1.008022  5.382433
C    -5.635708  -2.242254  4.959740
N    -5.163730  -1.229651  5.687135
H    -1.944834  -3.296366  3.895797
H    -2.346266  -2.145998  2.624285
H    -4.718549  -3.455190  3.542885
H    -3.275145  -0.226777  5.880029
H    -6.644186  -2.644085  4.986473
H    -5.713404  -0.706271  6.369174
N    1.141065  -2.537885  4.744662
C    1.024044  -2.365526  6.202779
H    1.956925  -3.062844  4.420530
H    0.890606  -1.310369  6.467879
H    1.961003  -2.706703  6.652679
H    0.208715  -2.977153  6.608699
Ca    0.506602  -1.730032  0.532732
