31
Energy: -38168.6172672 eV PBE+vdW (tier 2 basis)
C    -1.423642  -2.675669  1.456386
C    -1.231324  -1.385781  2.176750
O    -0.279660  -0.602426  1.871649
H    -0.523414  -3.296724  1.571205
H    -1.520019  -2.468741  0.380181
H    -2.295083  -3.245658  1.795134
N    -2.096294  -1.059497  3.158273
C    -2.108531  0.199941  3.925476
C    -0.906412  0.241867  4.917147
O    0.235254  0.544097  4.444692
H    -2.802161  -1.755922  3.389269
H    -1.899979  1.018789  3.219790
C    -3.484064  0.438707  4.579810
C    -4.626301  0.740228  3.646780
N    -5.905184  0.982646  4.142911
C    -4.730832  0.884629  2.286826
C    -6.748905  1.264480  3.142878
N    -6.045770  1.207050  2.011046
H    -3.378113  1.293314  5.267346
H    -3.764525  -0.429523  5.202670
H    -6.187769  0.966124  5.122163
H    -3.997413  0.792822  1.496793
H    -7.805752  1.495780  3.238043
H    -6.435396  1.380583  1.084283
N    -1.076182  -0.034550  6.194661
C    -0.017228  -0.026843  7.215738
H    -2.005544  -0.291840  6.518206
H    0.362164  -1.045693  7.368977
H    -0.442273  0.341733  8.154913
H    0.795219  0.629583  6.895570
Ca    1.399134  0.471493  2.642434
