31
Energy: -38167.3812158 eV PBE+vdW (tier 2 basis)
C    0.904833  0.240256  1.053604
C    0.083542  -0.456398  2.074928
O    0.544614  -1.479249  2.669746
H    0.360468  0.990661  0.478903
H    1.412173  -0.471085  0.391810
H    1.702914  0.761251  1.613483
N    -1.132380  0.018259  2.475380
C    -2.300757  0.268059  1.618870
C    -2.691307  -1.089232  0.945461
O    -1.924577  -2.101371  1.090414
H    -1.403346  -0.382771  3.375300
H    -3.110108  0.446963  2.345258
C    -2.292355  1.590334  0.791918
C    -1.779967  1.689972  -0.618345
N    -1.412648  2.937826  -1.121665
C    -1.677316  0.830500  -1.684245
C    -1.102531  2.850793  -2.420497
N    -1.255011  1.573195  -2.771708
H    -1.745761  2.309353  1.420452
H    -3.327282  1.964340  0.780364
H    -1.397759  3.814708  -0.600482
H    -1.872516  -0.229605  -1.772843
H    -0.785293  3.666524  -3.063857
H    -1.090275  1.214644  -3.712521
N    -3.842622  -1.214986  0.308651
C    -4.929914  -0.237937  0.140877
H    -4.026792  -2.154371  -0.049379
H    -5.844649  -0.792557  -0.089398
H    -4.723881  0.446122  -0.691888
H    -5.102406  0.323985  1.066112
Ca    -0.460027  -3.321781  2.193491
