31
Energy: -38167.4576558 eV PBE+vdW (tier 2 basis)
C    0.213858  -0.820029  -0.183843
C    0.077319  -0.443190  1.249082
O    1.142573  -0.473320  2.008806
H    0.872593  -0.099393  -0.691281
H    -0.738636  -0.855952  -0.718351
H    0.694092  -1.805829  -0.257428
N    -1.060690  -0.075903  1.794466
C    -2.393421  0.132572  1.197120
C    -2.988376  1.264556  2.076876
O    -2.845617  1.127722  3.301087
H    -1.089481  0.165438  2.799670
H    -2.290159  0.412071  0.144401
C    -3.256388  -1.165167  1.361904
C    -4.741271  -0.980335  1.405693
N    -5.419721  -0.524335  2.533615
C    -5.716009  -1.295154  0.492620
C    -6.740019  -0.556212  2.324862
N    -6.930418  -1.022578  1.086633
H    -2.946891  -1.654678  2.296755
H    -3.017094  -1.861628  0.548539
H    -4.977100  -0.193516  3.392420
H    -5.646224  -1.710600  -0.505532
H    -7.512292  -0.264219  3.028842
H    -7.845338  -1.172317  0.662071
N    -3.648688  2.270541  1.491529
C    -3.829726  2.537717  0.060542
H    -3.993043  2.973013  2.146076
H    -4.256330  1.671309  -0.459630
H    -2.889937  2.839039  -0.420546
H    -4.536937  3.365814  -0.042334
Ca    2.948032  -0.541296  2.923343
