31
Energy: -38168.4272868 eV PBE+vdW (tier 2 basis)
C    -1.015910  2.365635  1.986815
C    -0.574544  1.020730  2.456732
O    0.660483  0.761058  2.592540
H    -2.102762  2.479927  1.918710
H    -0.570706  2.554751  0.998361
H    -0.615821  3.138215  2.658687
N    -1.526007  0.102502  2.724582
C    -1.407026  -1.321547  3.105289
C    -0.668821  -1.531734  4.449171
O    0.566846  -1.242096  4.568082
H    -2.478373  0.447519  2.636507
H    -2.441813  -1.646941  3.263523
C    -0.783690  -2.226226  2.010532
C    -1.674071  -2.532114  0.836930
N    -1.257702  -3.400445  -0.169886
C    -2.945128  -2.154594  0.483190
C    -2.219776  -3.550371  -1.088915
N    -3.248950  -2.796696  -0.701682
H    -0.503931  -3.180770  2.485891
H    0.153921  -1.776429  1.651487
H    -0.361303  -3.881871  -0.219420
H    -3.664154  -1.500747  0.958879
H    -2.169876  -4.170857  -1.978687
H    -4.128548  -2.718084  -1.212887
N    -1.323568  -2.055890  5.469126
C    -2.733559  -2.466669  5.581201
H    -0.747003  -2.205440  6.300683
H    -3.407879  -1.654387  5.286590
H    -2.928560  -2.697342  6.632604
H    -2.929432  -3.371025  4.991790
Ca    2.138663  0.070938  3.961577
