31
Energy: -38167.9146622 eV PBE+vdW (tier 2 basis)
C    0.285482  -0.712858  0.219524
C    0.189591  0.024769  1.503695
O    1.231902  0.403168  2.120306
H    0.799078  -1.664481  0.445025
H    0.931925  -0.190163  -0.497620
H    -0.679997  -0.953037  -0.233850
N    -1.021606  0.275924  2.087465
C    -2.105823  0.962455  1.389478
C    -1.635726  2.443010  1.162105
O    -0.518061  2.828709  1.636421
H    -0.919611  0.572959  3.060681
H    -2.237699  0.499091  0.400921
C    -3.415906  0.811683  2.234536
C    -4.742337  0.953338  1.551158
N    -5.356086  -0.073713  0.832204
C    -5.674667  1.961802  1.606031
C    -6.594770  0.284505  0.472113
N    -6.794851  1.521983  0.931965
H    -3.395950  1.520930  3.073719
H    -3.369940  -0.191652  2.684682
H    -4.972340  -0.999710  0.650371
H    -5.649301  2.923526  2.105229
H    -7.305068  -0.320825  -0.083596
H    -7.665940  2.042753  0.820695
N    -2.407282  3.254551  0.465539
C    -2.089128  4.657619  0.152287
H    -3.266759  2.875371  0.074618
H    -2.983925  5.131295  -0.260025
H    -1.285040  4.707736  -0.592648
H    -1.785425  5.186154  1.061839
Ca    1.523261  2.525106  2.386128
