31
Energy: -38167.9416632 eV PBE+vdW (tier 2 basis)
C    -1.956784  3.234457  0.825354
C    -1.008002  2.228404  1.364355
O    -0.105083  2.551746  2.190033
H    -2.683486  2.827454  0.116961
H    -1.353508  3.997796  0.304067
H    -2.468737  3.771376  1.635957
N    -1.058009  0.918648  0.948367
C    -2.278984  0.116610  1.087346
C    -2.549824  -0.053026  2.621926
O    -1.657820  0.342183  3.451424
H    -0.237661  0.406277  1.281499
H    -3.123718  0.672616  0.656346
C    -2.120501  -1.244417  0.348529
C    -2.265671  -1.210636  -1.143701
N    -1.295680  -0.759870  -2.036714
C    -3.288668  -1.684194  -1.928042
C    -1.700959  -0.949830  -3.299517
N    -2.912573  -1.507061  -3.241569
H    -2.871952  -1.949515  0.723100
H    -1.150363  -1.690095  0.621855
H    -0.387955  -0.368853  -1.797821
H    -4.229558  -2.151556  -1.662474
H    -1.146080  -0.703171  -4.199371
H    -3.462042  -1.777276  -4.058324
N    -3.682678  -0.564551  3.060554
C    -4.870543  -1.002967  2.318210
H    -3.742774  -0.655250  4.077823
H    -5.759302  -0.669188  2.865696
H    -4.896288  -2.098754  2.251874
H    -4.897247  -0.560771  1.318160
Ca    -0.112550  1.679413  4.185097
