31
Energy: -38168.4208667 eV PBE+vdW (tier 2 basis)
C    -0.106164  1.904014  0.862333
C    -0.216758  1.270347  2.204858
O    0.666099  1.465493  3.096076
H    0.847799  1.615627  0.398212
H    -0.070626  2.996390  0.990529
H    -0.926798  1.647708  0.184272
N    -1.280097  0.483020  2.468803
C    -1.567704  -0.138762  3.770459
C    -0.529390  -1.260475  4.077551
O    0.513110  -0.899656  4.722632
H    -1.929362  0.317395  1.703210
H    -1.346214  0.616311  4.538525
C    -3.064501  -0.539870  3.897665
C    -4.040643  0.575691  4.141188
N    -4.431482  0.999336  5.410551
C    -4.811800  1.299931  3.265430
C    -5.391689  1.928334  5.317745
N    -5.623422  2.121983  4.017440
H    -3.151854  -1.267890  4.717488
H    -3.394796  -1.076174  2.998711
H    -4.104300  0.627645  6.300306
H    -4.878452  1.273637  2.184400
H    -5.894481  2.421286  6.144248
H    -6.322424  2.767411  3.647578
N    -0.655507  -2.520193  3.701693
C    -1.670008  -3.197164  2.881103
H    0.109882  -3.116078  4.027101
H    -2.517153  -3.531508  3.492782
H    -1.200051  -4.080863  2.437768
H    -2.010496  -2.555141  2.063216
Ca    1.966280  0.679215  4.599127
