31
Energy: -38167.2002863 eV PBE+vdW (tier 2 basis)
C    -0.936908  -1.776487  -0.031966
C    -0.082454  -1.291817  1.084544
O    0.904298  -2.037570  1.499166
H    -0.505783  -1.417258  -0.981186
H    -1.966098  -1.405441  0.022446
H    -0.960046  -2.870767  -0.052833
N    -0.284812  -0.124862  1.669097
C    -1.262645  0.894622  1.235950
C    -0.815760  1.433796  -0.166306
O    0.360440  1.277201  -0.502698
H    0.406456  0.152912  2.365821
H    -2.234659  0.389819  1.153471
C    -1.450635  1.992538  2.304400
C    -0.425005  3.088605  2.416295
N    -0.580167  4.089112  3.374467
C    0.707359  3.427164  1.716778
C    0.397872  4.996045  3.268208
N    1.185978  4.601678  2.266645
H    -1.579926  1.507442  3.286074
H    -2.422699  2.464682  2.093922
H    -1.331519  4.152769  4.059736
H    1.181608  2.944605  0.869615
H    0.522578  5.882999  3.880992
H    2.009898  5.111183  1.950115
N    -1.744186  2.042375  -0.923380
C    -3.166296  2.277063  -0.669720
H    -1.370887  2.401231  -1.802379
H    -3.339121  3.243747  -0.176963
H    -3.606683  1.474822  -0.065999
H    -3.694374  2.287390  -1.628796
Ca    2.255127  -3.542650  1.685599
