31
Energy: -38167.7872418 eV PBE+vdW (tier 2 basis)
C    -1.145069  3.533056  1.558734
C    -0.612753  2.300553  2.188874
O    -0.097965  2.323527  3.347434
H    -0.274042  4.187023  1.370903
H    -1.791900  4.090756  2.247840
H    -1.645291  3.366380  0.600681
N    -0.617047  1.106039  1.519585
C    -1.837334  0.509708  0.969412
C    -2.804537  0.276346  2.175951
O    -2.313931  0.278917  3.357801
H    -0.017195  0.417872  1.979970
H    -2.298419  1.216562  0.266963
C    -1.411676  -0.805373  0.229526
C    -2.283271  -1.376016  -0.845472
N    -2.325702  -0.886786  -2.151502
C    -3.041728  -2.520302  -0.862766
C    -3.067811  -1.689222  -2.925562
N    -3.512007  -2.680656  -2.148979
H    -1.241542  -1.598338  0.971413
H    -0.426960  -0.588704  -0.213463
H    -1.817736  -0.082220  -2.515167
H    -3.252569  -3.242621  -0.082912
H    -3.261806  -1.562720  -3.986585
H    -4.088084  -3.455755  -2.479965
N    -4.101544  0.102724  2.001724
C    -4.915015  0.177256  0.784733
H    -4.624516  -0.057021  2.866564
H    -5.345242  -0.806359  0.562677
H    -4.320643  0.517053  -0.066316
H    -5.733420  0.888012  0.952201
Ca    -1.012247  1.129307  4.903704
