31
Energy: -38168.0183984 eV PBE+vdW (tier 2 basis)
C    -1.417874  3.451374  0.386068
C    -0.744150  2.498310  1.304570
O    0.175016  2.882879  2.087731
H    -1.869662  4.286331  0.939901
H    -2.157367  2.987731  -0.272391
H    -0.629747  3.904832  -0.238657
N    -1.071344  1.167103  1.301634
C    -2.448155  0.720121  1.509510
C    -2.792662  0.980123  3.026422
O    -1.929856  1.557600  3.768449
H    -0.398957  0.622434  1.846745
H    -3.115169  1.367083  0.920605
C    -2.644871  -0.756664  1.064632
C    -2.604418  -1.003614  -0.417434
N    -1.518058  -1.560458  -1.086924
C    -3.580565  -0.853114  -1.372578
C    -1.811332  -1.747009  -2.380235
N    -3.060650  -1.312621  -2.562840
H    -3.616318  -1.117863  1.428691
H    -1.900870  -1.392567  1.568214
H    -0.633766  -1.846596  -0.672227
H    -4.598429  -0.488298  -1.300650
H    -1.159758  -2.177750  -3.134193
H    -3.556927  -1.345584  -3.454170
N    -3.974276  0.627158  3.486738
C    -4.448722  0.830968  4.865660
H    -4.641881  0.213163  2.839583
H    -5.270380  0.133725  5.052879
H    -4.813917  1.858329  4.992625
H    -3.636431  0.632280  5.570781
Ca    -0.179503  2.767593  4.223860
