31
Energy: -38168.464785 eV PBE+vdW (tier 2 basis)
C    -1.231305  -1.037147  -0.041584
C    -0.954732  -0.316993  1.232023
O    0.217118  0.074676  1.517618
H    -0.996744  -0.358697  -0.877090
H    -2.267522  -1.376465  -0.141812
H    -0.553772  -1.895936  -0.140408
N    -1.980569  -0.075996  2.075561
C    -1.946533  0.814126  3.248475
C    -1.240781  0.160372  4.468830
O    0.002045  -0.084692  4.374394
H    -2.891786  -0.413112  1.774577
H    -1.262775  1.639626  2.990558
C    -3.314519  1.500299  3.467514
C    -4.565606  0.675844  3.634582
N    -5.813359  1.296164  3.596460
C    -4.833747  -0.657294  3.837747
C    -6.790703  0.398879  3.768518
N    -6.208306  -0.791879  3.914325
H    -3.466492  2.162783  2.600275
H    -3.212709  2.184067  4.326396
H    -5.984861  2.292930  3.461494
H    -4.179733  -1.515353  3.934330
H    -7.857587  0.604021  3.785304
H    -6.715626  -1.665571  4.059511
N    -1.893265  -0.078886  5.590652
C    -1.266888  -0.614746  6.811524
H    -2.879314  0.160447  5.643563
H    -2.041378  -0.730148  7.573950
H    -0.500609  0.079617  7.176738
H    -0.808522  -1.588359  6.604949
Ca    1.700579  0.015421  3.040024
