31
Energy: -38168.0178891 eV PBE+vdW (tier 2 basis)
C    -1.555155  3.406708  0.355352
C    -0.891754  2.477584  1.305548
O    -0.007847  2.890929  2.114738
H    -2.261237  2.920263  -0.322966
H    -0.756202  3.870684  -0.247503
H    -2.043615  4.236947  0.884479
N    -1.188870  1.140361  1.306048
C    -2.560577  0.662550  1.467522
C    -2.972577  0.937084  2.965386
O    -2.152292  1.542453  3.732684
H    -0.520455  0.613122  1.872548
H    -3.219411  1.283937  0.842924
C    -2.701671  -0.825566  1.044071
C    -2.560519  -1.098499  -0.428433
N    -1.534680  -1.866242  -0.971847
C    -3.382750  -0.791497  -1.485697
C    -1.717158  -2.027325  -2.288636
N    -2.834603  -1.370913  -2.609449
H    -3.685005  -1.200840  1.361036
H    -1.974099  -1.432820  1.603363
H    -0.768903  -2.300725  -0.460433
H    -4.314963  -0.241034  -1.529888
H    -1.080601  -2.590186  -2.964328
H    -3.228354  -1.331311  -3.550250
N    -4.164940  0.564812  3.380777
C    -4.703982  0.774698  4.734625
H    -4.795652  0.128819  2.711175
H    -3.907029  0.653967  5.473574
H    -5.482892  0.027898  4.914476
H    -5.143067  1.777610  4.815471
Ca    -0.442143  2.792533  4.235634
