31
Energy: -38168.4198493 eV PBE+vdW (tier 2 basis)
C    2.115017  -1.194152  1.711257
C    1.119086  -1.191983  2.822018
O    1.488309  -1.403376  4.017981
H    2.693214  -2.128408  1.748167
H    2.836466  -0.379348  1.874534
H    1.673109  -1.076153  0.716277
N    -0.173761  -0.960263  2.513013
C    -1.364682  -0.918025  3.388368
C    -1.249491  0.144454  4.505065
O    -0.474044  -0.042195  5.501194
H    -0.350032  -0.758491  1.531381
H    -2.177416  -0.603499  2.724991
C    -1.767401  -2.304474  3.990274
C    -2.537553  -3.209884  3.073664
N    -1.975387  -4.189120  2.256551
C    -3.895126  -3.327783  2.896739
C    -2.935514  -4.872937  1.618315
N    -4.103618  -4.350296  1.997418
H    -2.404046  -2.119308  4.866831
H    -0.875631  -2.821735  4.368462
H    -0.987756  -4.418489  2.177106
H    -4.719858  -2.791901  3.351858
H    -2.790453  -5.700303  0.930515
H    -5.014136  -4.683120  1.677194
N    -1.993328  1.234384  4.448307
C    -2.944179  1.691141  3.422345
H    -1.895006  1.845637  5.262997
H    -2.568769  1.493825  2.413197
H    -3.056542  2.774484  3.531074
H    -3.927932  1.226935  3.568104
Ca    1.465461  -0.742615  6.047801
