31
Energy: -38168.0190844 eV PBE+vdW (tier 2 basis)
C    -1.631433  3.561319  0.418333
C    -0.862168  2.611718  1.262832
O    0.081294  3.016573  2.006855
H    -2.081137  4.360886  1.023353
H    -2.390970  3.085953  -0.208017
H    -0.902699  4.063475  -0.240498
N    -1.124349  1.268652  1.230924
C    -2.461979  0.740715  1.487589
C    -2.769696  0.974870  3.017369
O    -1.898678  1.560508  3.742293
H    -0.391386  0.733987  1.702515
H    -3.189612  1.346792  0.927525
C    -2.576000  -0.745804  1.061029
C    -2.513166  -1.003827  -0.420368
N    -1.744912  -2.027232  -0.967181
C    -3.200727  -0.461555  -1.478658
C    -1.949788  -2.113291  -2.287613
N    -2.829070  -1.161475  -2.607053
H    -3.521176  -1.160793  1.442068
H    -1.787448  -1.324243  1.566258
H    -1.133429  -2.662265  -0.456783
H    -3.933168  0.334798  -1.526318
H    -1.488393  -2.823300  -2.967112
H    -3.179189  -0.996010  -3.551222
N    -3.931341  0.588180  3.501260
C    -4.377891  0.755305  4.894116
H    -4.606288  0.172165  2.862310
H    -5.131816  -0.008063  5.107985
H    -4.824833  1.748658  5.030968
H    -3.529771  0.629326  5.572630
Ca    -0.168782  2.820978  4.149610
