31
Energy: -38167.7216921 eV PBE+vdW (tier 2 basis)
C    -0.227193  0.117501  0.535032
C    -0.485296  0.223752  2.001765
O    0.369323  0.785055  2.748040
H    -1.130795  0.228971  -0.072322
H    0.229542  -0.856587  0.292491
H    0.496066  0.891261  0.251614
N    -1.645967  -0.231056  2.581797
C    -2.134808  -1.619561  2.467482
C    -1.020884  -2.565460  3.034953
O    0.144351  -2.089815  3.268540
H    -1.715248  0.111088  3.543074
H    -2.976905  -1.683258  3.173370
C    -2.673914  -2.025674  1.067659
C    -4.029688  -1.486571  0.716361
N    -4.382150  -0.139249  0.659435
C    -5.145610  -2.171914  0.304158
C    -5.647744  -0.007350  0.236223
N    -6.116354  -1.236980  0.016796
H    -2.755755  -3.118057  1.024737
H    -1.948840  -1.768986  0.285372
H    -3.793623  0.651294  0.908796
H    -5.318515  -3.233819  0.173648
H    -6.188917  0.923880  0.100507
H    -7.057248  -1.443317  -0.321491
N    -1.287985  -3.824011  3.323591
C    -2.552614  -4.567557  3.257573
H    -0.488514  -4.354154  3.678779
H    -2.575977  -5.205002  2.363767
H    -3.412235  -3.891033  3.266834
H    -2.614162  -5.211936  4.141885
Ca    1.618691  -0.600965  3.851145
