31
Energy: -38167.3856229 eV PBE+vdW (tier 2 basis)
C    -0.401416  0.800693  -0.046992
C    -1.134398  1.439053  1.081364
O    -0.738920  2.621719  1.483876
H    -0.445168  1.454136  -0.930472
H    -0.790205  -0.182635  -0.323248
H    0.659532  0.693358  0.222009
N    -2.151608  0.882696  1.694331
C    -2.953165  -0.292885  1.312691
C    -4.367120  0.095279  1.859759
O    -4.399893  0.979402  2.734545
H    -2.706167  1.403412  2.418479
H    -2.976841  -0.366051  0.218488
C    -2.427465  -1.649378  1.847915
C    -2.655630  -2.019524  3.288452
N    -2.270594  -3.279730  3.744360
C    -3.224820  -1.401150  4.374015
C    -2.587163  -3.430108  5.035696
N    -3.166435  -2.294297  5.427202
H    -1.348858  -1.709249  1.631399
H    -2.892765  -2.429141  1.224564
H    -1.819348  -4.006128  3.190818
H    -3.681762  -0.424267  4.473035
H    -2.407945  -4.310284  5.644598
H    -3.523167  -2.126040  6.366916
N    -5.445352  -0.535214  1.393651
C    -5.552002  -1.558755  0.352648
H    -6.316921  -0.227943  1.826730
H    -5.545544  -2.569861  0.781258
H    -4.746607  -1.464554  -0.384071
H    -6.498771  -1.418014  -0.179038
Ca    -0.054877  4.502870  1.760380
