31
Energy: -38167.9171502 eV PBE+vdW (tier 2 basis)
C    -1.023678  2.080620  -0.717446
C    -0.375626  1.473382  0.472157
O    0.887317  1.381714  0.554297
H    -0.621292  3.079638  -0.931528
H    -2.115990  2.103078  -0.670812
H    -0.737055  1.452841  -1.579801
N    -1.120903  0.945632  1.490087
C    -2.141077  1.719186  2.191742
C    -1.373528  2.704894  3.148573
O    -0.112117  2.832851  3.030132
H    -0.561527  0.353118  2.107748
H    -2.657889  2.339292  1.443869
C    -3.148660  0.754924  2.876305
C    -4.542263  1.261241  3.127452
N    -5.413737  0.561764  3.959906
C    -5.293046  2.282779  2.595904
C    -6.632027  1.115890  3.936065
N    -6.568293  2.165220  3.115443
H    -2.721835  0.381181  3.820342
H    -3.229851  -0.118735  2.209821
H    -5.190213  -0.274809  4.498430
H    -5.051646  3.057742  1.878756
H    -7.505122  0.775958  4.485705
H    -7.357274  2.776026  2.900397
N    -2.054826  3.394562  4.041302
C    -1.467108  4.371563  4.973647
H    -3.062358  3.256599  4.084112
H    -1.021360  5.204811  4.417565
H    -0.703022  3.889363  5.593926
H    -2.262855  4.754946  5.617328
Ca    1.861858  2.470728  2.140578
