31
Energy: -38167.9734726 eV PBE+vdW (tier 2 basis)
C    -2.426984  3.038382  1.585833
C    -1.323047  2.056699  1.743760
O    -0.298525  2.331423  2.436413
H    -3.258548  2.684641  0.969947
H    -1.993569  3.932302  1.104941
H    -2.796648  3.382210  2.561633
N    -1.367655  0.840010  1.115798
C    -2.499114  -0.075305  1.290585
C    -2.571040  -0.441570  2.814929
O    -1.592472  -0.111896  3.570801
H    -0.465404  0.361288  1.161980
H    -3.429999  0.446166  1.023185
C    -2.330064  -1.332615  0.408544
C    -2.450598  -1.114969  -1.074914
N    -2.513225  -2.194270  -1.953263
C    -2.515111  0.002875  -1.867357
C    -2.613697  -1.763368  -3.216671
N    -2.617417  -0.430329  -3.174889
H    -3.083550  -2.073683  0.711969
H    -1.355725  -1.800299  0.632508
H    -2.487261  -3.181418  -1.701586
H    -2.486055  1.056051  -1.622900
H    -2.681760  -2.383942  -4.105105
H    -2.685952  0.169630  -3.997157
N    -3.626624  -1.049361  3.318365
C    -4.884310  -1.450096  2.675134
H    -3.558100  -1.262333  4.316819
H    -5.711123  -1.193106  3.347205
H    -4.897191  -2.535465  2.509869
H    -5.033359  -0.922969  1.728594
Ca    0.025128  1.178318  4.247033
