31
Energy: -38167.4212531 eV PBE+vdW (tier 2 basis)
C    0.709886  -0.880042  1.761972
C    0.268615  0.301880  2.552954
O    1.180627  1.025233  3.150715
H    -0.113992  -1.492510  1.387602
H    1.359644  -1.512460  2.382882
H    1.310288  -0.542805  0.903251
N    -0.991103  0.657248  2.675628
C    -2.175916  0.158641  1.948625
C    -3.073108  1.422583  1.826283
O    -3.024967  2.224900  2.786958
H    -1.242006  1.510650  3.206899
H    -1.855721  -0.202179  0.965512
C    -2.939610  -1.001775  2.639865
C    -3.566213  -0.815389  3.998836
N    -4.081492  0.365063  4.521064
C    -3.903180  -1.797897  4.898888
C    -4.702080  0.123759  5.680873
N    -4.602898  -1.188435  5.917189
H    -2.275549  -1.875080  2.701463
H    -3.735046  -1.290262  1.932849
H    -3.935584  1.293482  4.090140
H    -3.729010  -2.867141  4.882204
H    -5.190413  0.856186  6.314302
H    -5.001960  -1.661769  6.726918
N    -3.871134  1.580932  0.775174
C    -4.061436  0.752219  -0.417655
H    -4.439447  2.429397  0.825406
H    -5.084730  0.356982  -0.439112
H    -3.901236  1.361919  -1.314670
H    -3.360314  -0.086719  -0.438087
Ca    2.845391  2.002005  3.772304
