31
Energy: -38168.4070576 eV PBE+vdW (tier 2 basis)
C    2.790413  -0.438159  2.094521
C    1.591128  -0.749082  2.921559
O    1.713027  -1.050242  4.149777
H    3.355468  0.380399  2.562687
H    2.558660  -0.169515  1.058690
H    3.454962  -1.315781  2.097955
N    0.380931  -0.704136  2.331560
C    -0.949054  -1.078424  2.862820
C    -1.324403  -0.231022  4.101348
O    -0.835468  -0.504286  5.247582
H    0.391592  -0.439824  1.348684
H    -1.641259  -0.809935  2.057113
C    -1.080898  -2.614319  3.114781
C    -2.467596  -3.174832  2.982810
N    -2.912222  -3.835862  1.838670
C    -3.516063  -3.241155  3.867819
C    -4.159363  -4.289183  2.014366
N    -4.536773  -3.926392  3.242672
H    -0.690851  -2.867978  4.107916
H    -0.423870  -3.120391  2.394266
H    -2.370945  -4.012130  0.993633
H    -3.611626  -2.885609  4.886292
H    -4.748139  -4.852789  1.296748
H    -5.443380  -4.150802  3.654154
N    -2.166705  0.777661  3.960971
C    -2.817754  1.292179  2.743600
H    -2.369168  1.282220  4.826804
H    -3.400686  2.173542  3.026007
H    -3.506607  0.552143  2.318691
H    -2.075419  1.601503  1.998517
Ca    1.094070  -0.841796  6.157986
