31
Energy: -38167.7794264 eV PBE+vdW (tier 2 basis)
C    -2.000721  4.348028  1.006324
C    -1.209795  3.133531  1.323378
O    -0.093301  3.211563  1.920761
H    -2.961091  4.145505  0.523358
H    -1.389949  4.942033  0.302666
H    -2.134449  4.986121  1.889911
N    -1.641927  1.891151  0.934159
C    -2.945912  1.385405  1.353637
C    -2.791650  0.898792  2.839304
O    -1.716092  1.165523  3.472172
H    -0.900428  1.193589  1.021112
H    -3.628299  2.247614  1.420497
C    -3.599433  0.431092  0.308419
C    -2.783378  -0.667670  -0.310943
N    -2.972712  -2.025187  -0.056247
C    -1.868357  -0.618211  -1.336322
C    -2.223074  -2.766361  -0.882611
N    -1.541188  -1.918429  -1.656469
H    -3.936853  1.080013  -0.511885
H    -4.526093  0.006977  0.720737
H    -3.634038  -2.430423  0.603037
H    -1.468464  0.224740  -1.887321
H    -2.186010  -3.850794  -0.922311
H    -0.903660  -2.205144  -2.400332
N    -3.805994  0.293616  3.425031
C    -3.850878  -0.114478  4.839131
H    -4.669779  0.185673  2.897321
H    -2.887575  -0.540375  5.134249
H    -4.634712  -0.868119  4.957109
H    -4.088562  0.748467  5.474907
Ca    0.118374  2.287756  3.863220
