31
Energy: -38167.325327 eV PBE+vdW (tier 2 basis)
C    0.313684  0.461353  0.268108
C    0.123658  0.454063  1.739716
O    1.175890  0.616410  2.503664
H    0.679067  1.452623  -0.042041
H    -0.590701  0.188009  -0.284462
H    1.093627  -0.268841  0.007048
N    -1.041756  0.298169  2.352123
C    -2.429919  0.082849  1.835957
C    -2.520066  -1.214305  0.969990
O    -2.229973  -1.151994  -0.224984
H    -0.976136  0.313152  3.370404
H    -3.025409  -0.035828  2.750868
C    -2.952943  1.312311  1.046268
C    -4.372924  1.188774  0.576511
N    -5.451156  1.828022  1.183473
C    -4.899891  0.541289  -0.514569
C    -6.578474  1.593119  0.500231
N    -6.251603  0.807741  -0.529824
H    -2.327433  1.456931  0.157178
H    -2.846283  2.211630  1.668661
H    -5.411759  2.430672  2.002561
H    -4.415715  -0.069885  -1.266635
H    -7.566523  1.974498  0.735298
H    -6.913261  0.474245  -1.230241
N    -2.924366  -2.318095  1.621990
C    -3.073331  -3.624692  0.975517
H    -3.187092  -2.249231  2.600378
H    -2.673957  -3.559534  -0.039911
H    -4.131293  -3.911707  0.934610
H    -2.521413  -4.383938  1.541408
Ca    3.061441  0.835461  3.223182
