31
Energy: -38168.037733 eV PBE+vdW (tier 2 basis)
C    -1.682300  3.567573  0.850508
C    -0.936887  2.506317  1.576238
O    0.009238  2.799261  2.367062
H    -2.466181  3.193408  0.186122
H    -0.943872  4.119861  0.244399
H    -2.100320  4.307594  1.547023
N    -1.228800  1.182866  1.383277
C    -2.586784  0.664351  1.554929
C    -2.976890  0.866257  3.069514
O    -2.099325  1.302257  3.885657
H    -0.516227  0.574323  1.792806
H    -3.280374  1.273020  0.954962
C    -2.683140  -0.815100  1.120463
C    -2.533137  -1.081512  -0.352385
N    -2.803174  -2.341370  -0.881779
C    -2.152118  -0.311700  -1.421780
C    -2.602344  -2.344856  -2.205164
N    -2.208383  -1.116256  -2.543116
H    -3.659550  -1.208289  1.441683
H    -1.936364  -1.406051  1.678584
H    -3.110820  -3.162588  -0.362621
H    -1.838463  0.721416  -1.484376
H    -2.737938  -3.188935  -2.874686
H    -1.983892  -0.827092  -3.495318
N    -4.212190  0.603156  3.441424
C    -4.751117  0.740373  4.803818
H    -4.878963  0.320326  2.724732
H    -5.187445  1.739083  4.936563
H    -3.954535  0.578299  5.534055
H    -5.533963  -0.011584  4.944227
Ca    -0.306742  2.395595  4.472181
