31
Energy: -38167.0672602 eV PBE+vdW (tier 2 basis)
C    -0.059604  0.410265  0.470346
C    -0.163213  -0.210332  1.813428
O    0.939395  -0.397496  2.494335
H    0.249533  -0.359676  -0.252406
H    0.705553  1.196005  0.488432
H    -1.005302  0.833523  0.129157
N    -1.292178  -0.578504  2.396293
C    -2.705157  -0.721012  1.941475
C    -2.796518  -1.950819  0.995024
O    -2.072670  -1.959698  -0.016634
H    -1.149938  -0.974066  3.326529
H    -3.223635  -0.937020  2.882696
C    -3.451936  0.522805  1.388713
C    -3.405187  0.980350  -0.050056
N    -3.228149  0.185065  -1.175636
C    -3.749023  2.224541  -0.525088
C    -3.442527  0.900220  -2.284478
N    -3.765621  2.139919  -1.900284
H    -3.205864  1.385234  2.023768
H    -4.510529  0.305327  1.609107
H    -2.864341  -0.783383  -1.123825
H    -4.009957  3.137676  -0.003211
H    -3.360852  0.544613  -3.305941
H    -4.003235  2.899554  -2.537282
N    -3.673659  -2.912648  1.294601
C    -4.590267  -3.018211  2.437733
H    -3.701931  -3.667323  0.607787
H    -5.313840  -2.193457  2.456890
H    -4.046794  -3.069812  3.389840
H    -5.154322  -3.949111  2.330170
Ca    2.822238  -0.592700  3.231279
