31
Energy: -38167.80978 eV PBE+vdW (tier 2 basis)
C    -0.183658  0.294748  0.223491
C    -0.205989  0.223197  1.711411
O    0.841632  0.495859  2.370913
H    -1.171695  0.447227  -0.217199
H    0.277046  -0.609800  -0.205066
H    0.472970  1.129647  -0.058792
N    -1.346344  -0.068710  2.414938
C    -2.138204  -1.303340  2.278782
C    -1.248343  -2.479797  2.815409
O    0.010669  -2.295335  2.944899
H    -1.226307  0.177258  3.400261
H    -2.976083  -1.189577  2.983648
C    -2.734969  -1.602443  0.885667
C    -3.774404  -0.624201  0.411424
N    -4.569464  -0.897783  -0.699858
C    -4.189537  0.603899  0.862069
C    -5.428635  0.105618  -0.917703
N    -5.206506  1.021652  0.025981
H    -3.205124  -2.595170  0.942742
H    -1.940006  -1.705826  0.133045
H    -4.530341  -1.733968  -1.281109
H    -3.855495  1.211397  1.693015
H    -6.166978  0.159801  -1.712198
H    -5.722726  1.897913  0.109306
N    -1.790153  -3.627434  3.173258
C    -3.197831  -4.044396  3.212017
H    -1.118635  -4.328430  3.496419
H    -3.426126  -4.697530  2.359460
H    -3.869616  -3.181169  3.219658
H    -3.360032  -4.612851  4.134917
Ca    1.827852  -1.168408  3.342453
