31
Energy: -38168.5266619 eV PBE+vdW (tier 2 basis)
C    0.610129  3.965135  1.784960
C    0.031987  2.814775  2.537707
O    0.522213  1.649420  2.408023
H    0.084661  4.911966  1.947025
H    0.605565  3.725565  0.711612
H    1.665258  4.091152  2.068865
N    -1.014476  3.052995  3.351744
C    -1.832137  2.117969  4.154244
C    -1.015845  1.322822  5.205943
O    -0.167239  0.441133  4.858980
H    -1.301140  4.027755  3.402925
H    -2.502850  2.775979  4.720956
C    -2.713207  1.162941  3.296401
C    -3.912167  1.809290  2.653781
N    -4.307248  1.533143  1.347688
C    -4.890659  2.631722  3.159154
C    -5.463896  2.147402  1.065836
N    -5.821714  2.821583  2.159944
H    -3.065745  0.347868  3.948435
H    -2.093329  0.689374  2.523792
H    -3.826820  0.925643  0.687054
H    -5.023380  3.074115  4.138897
H    -6.005131  2.104629  0.125617
H    -6.670887  3.382562  2.238284
N    -1.278094  1.568811  6.476365
C    -0.665985  0.887702  7.624658
H    -1.947340  2.303739  6.697078
H    0.141271  1.506506  8.038449
H    -0.271884  -0.081537  7.310651
H    -1.432610  0.743857  8.393529
Ca    1.325700  -0.046014  3.411403
