31
Energy: -38167.1717412 eV PBE+vdW (tier 2 basis)
C    -0.238111  0.098011  2.591115
C    -1.276751  -0.767112  1.949177
O    -1.078747  -2.059744  2.013219
H    0.762684  -0.230161  2.292298
H    -0.336404  -0.008968  3.683050
H    -0.327503  1.157170  2.343514
N    -2.573118  -0.360470  1.763775
C    -2.826853  0.768117  0.859403
C    -1.751037  0.597692  -0.270757
O    -0.802909  -0.180850  -0.016759
H    -3.178396  -1.157153  1.565758
H    -3.823437  0.600846  0.426671
C    -2.808054  2.177936  1.495735
C    -4.023050  2.545078  2.297748
N    -4.246857  3.859063  2.701667
C    -5.084474  1.829978  2.790796
C    -5.383998  3.948358  3.402029
N    -5.901613  2.720523  3.460844
H    -2.698624  2.914111  0.685670
H    -1.915063  2.301518  2.123873
H    -3.646949  4.658487  2.504516
H    -5.327600  0.777817  2.731916
H    -5.805128  4.850071  3.835060
H    -6.775615  2.488475  3.931368
N    -1.867888  1.232442  -1.431066
C    -2.945392  2.097380  -1.917890
H    -1.096868  1.066553  -2.079029
H    -3.872843  1.925479  -1.362398
H    -3.137305  1.858223  -2.969690
H    -2.660865  3.155917  -1.851520
Ca    -0.160282  -3.850463  1.917025
