31
Energy: -38168.0183074 eV PBE+vdW (tier 2 basis)
C    -1.537719  3.524954  0.567185
C    -0.919266  2.562351  1.514273
O    -0.060646  2.942487  2.365721
H    -2.032158  4.348342  1.101326
H    -2.227053  3.066393  -0.146820
H    -0.712684  3.992641  0.003564
N    -1.230743  1.228897  1.466433
C    -2.612880  0.763715  1.567809
C    -3.070309  0.997468  3.058932
O    -2.271418  1.573828  3.869924
H    -0.589415  0.679283  2.042966
H    -3.243238  1.412365  0.941566
C    -2.758514  -0.708546  1.092076
C    -2.582088  -0.936004  -0.384019
N    -1.510174  -1.632408  -0.934962
C    -3.406854  -0.642754  -1.443215
C    -1.668311  -1.764951  -2.258088
N    -2.815305  -1.159589  -2.575313
H    -3.754612  -1.081490  1.368593
H    -2.054418  -1.343263  1.651013
H    -0.729022  -2.041253  -0.425893
H    -4.366556  -0.141260  -1.483694
H    -0.995217  -2.274421  -2.940715
H    -3.199933  -1.114576  -3.519670
N    -4.277490  0.624346  3.427876
C    -4.849603  0.804849  4.772881
H    -4.891700  0.210400  2.729874
H    -4.101795  0.554963  5.531598
H    -5.706948  0.133515  4.874002
H    -5.187263  1.840813  4.905291
Ca    -0.568668  2.790904  4.467486
