31
Energy: -38167.4710997 eV PBE+vdW (tier 2 basis)
C    0.046953  -0.120307  -0.338700
C    -0.020149  -0.099606  1.148905
O    1.083820  -0.318640  1.819935
H    0.767478  0.635176  -0.684644
H    -0.913330  0.068901  -0.824915
H    0.420605  -1.099105  -0.673098
N    -1.123193  0.125381  1.822367
C    -2.424314  0.634441  1.357150
C    -2.910512  1.457448  2.600099
O    -2.392517  1.178417  3.694185
H    -1.112647  0.226178  2.866402
H    -2.258811  1.306474  0.505107
C    -3.430706  -0.448785  0.893014
C    -4.144698  -1.290507  1.915301
N    -5.098179  -2.218043  1.497667
C    -4.137805  -1.371178  3.285585
C    -5.649464  -2.832648  2.550487
N    -5.071638  -2.326306  3.640816
H    -2.918464  -1.113219  0.178577
H    -4.196468  0.077086  0.299998
H    -5.366728  -2.410059  0.533973
H    -3.572593  -0.815720  4.023715
H    -6.420794  -3.595324  2.519957
H    -5.303876  -2.602069  4.593961
N    -3.855739  2.371386  2.389544
C    -4.425325  3.219583  3.443803
H    -4.161104  2.551780  1.436644
H    -3.992291  2.927245  4.403377
H    -5.513944  3.095418  3.472759
H    -4.189534  4.270973  3.241107
Ca    2.952645  -0.487953  2.570443
