31
Energy: -38168.5758866 eV PBE+vdW (tier 2 basis)
C    0.691156  1.038208  0.446741
C    0.325980  0.110686  1.556079
O    1.230149  -0.448102  2.251610
H    1.245793  1.893933  0.859746
H    -0.167388  1.415295  -0.118691
H    1.382713  0.523984  -0.236136
N    -0.981931  -0.110351  1.793535
C    -1.628512  -1.002837  2.778828
C    -1.254883  -0.663675  4.243583
O    -0.093147  -0.908611  4.700872
H    -1.620739  0.416439  1.202340
H    -2.700088  -0.793332  2.665646
C    -1.405099  -2.520704  2.482373
C    -2.159267  -3.062744  1.303850
N    -3.396236  -3.697496  1.410664
C    -1.834438  -3.127426  -0.029038
C    -3.803912  -4.132111  0.211652
N    -2.863490  -3.784686  -0.669860
H    -1.686395  -3.090648  3.380187
H    -0.335666  -2.708944  2.326439
H    -3.915351  -3.872831  2.269266
H    -0.954703  -2.791981  -0.563925
H    -4.721348  -4.672827  -0.000745
H    -2.903522  -4.000013  -1.666740
N    -2.206848  -0.153929  5.003933
C    -2.074151  0.191956  6.425302
H    -3.108510  0.047272  4.575464
H    -1.255839  -0.380224  6.868628
H    -3.013539  -0.051995  6.932577
H    -1.881982  1.267885  6.531714
Ca    1.985191  -0.872193  4.195104
