31
Energy: -38168.4252521 eV PBE+vdW (tier 2 basis)
C    1.984287  -0.863383  1.396402
C    1.103538  -0.845422  2.599808
O    1.589408  -1.049949  3.754503
H    2.473469  -1.847193  1.335009
H    2.789457  -0.125352  1.520649
H    1.459492  -0.664006  0.456323
N    -0.212050  -0.610069  2.415470
C    -1.334496  -0.624877  3.378273
C    -1.188068  0.433355  4.498103
O    -0.252586  0.347619  5.359747
H    -0.470240  -0.400981  1.454527
H    -2.206285  -0.330302  2.782512
C    -1.627126  -2.016182  3.997993
C    -2.290387  -3.008162  3.081615
N    -2.675903  -4.264043  3.545526
C    -2.682908  -2.974382  1.767057
C    -3.274138  -4.961573  2.571730
N    -3.282411  -4.187063  1.486724
H    -2.284955  -1.861659  4.869094
H    -0.694494  -2.447530  4.391001
H    -2.550003  -4.623498  4.490344
H    -2.602123  -2.207854  1.007612
H    -3.677533  -5.966473  2.653308
H    -3.680760  -4.460567  0.587976
N    -2.070809  1.412047  4.579255
C    -3.223392  1.723381  3.716630
H    -1.927300  2.036671  5.376447
H    -3.612210  2.698905  4.022977
H    -4.023011  0.982993  3.843296
H    -2.922906  1.798347  2.665210
Ca    1.767442  -0.246799  5.718878
