31
Energy: -38168.420354 eV PBE+vdW (tier 2 basis)
C    -0.996875  2.411349  1.662228
C    -0.556415  1.085584  2.185646
O    0.677500  0.792415  2.239127
H    -0.604306  3.203996  2.316983
H    -2.083844  2.523294  1.590362
H    -0.544188  2.576691  0.674195
N    -1.506040  0.219035  2.595384
C    -1.369945  -1.151487  3.133398
C    -0.504590  -1.209415  4.412771
O    0.761702  -1.065604  4.347051
H    -2.458421  0.574471  2.550412
H    -2.389177  -1.432740  3.419038
C    -0.873924  -2.204458  2.088438
C    -1.922508  -2.733685  1.153828
N    -2.199585  -2.220990  -0.112210
C    -2.746463  -3.824956  1.289714
C    -3.137619  -2.960254  -0.720759
N    -3.479074  -3.932035  0.127992
H    -0.473835  -3.065750  2.641705
H    -0.030958  -1.795416  1.515784
H    -1.734756  -1.437170  -0.563805
H    -2.850622  -4.540170  2.097217
H    -3.537110  -2.803167  -1.717949
H    -4.168791  -4.657057  -0.074509
N    -1.077156  -1.453788  5.577599
C    -2.494187  -1.643633  5.925977
H    -0.416260  -1.537364  6.354297
H    -2.605757  -1.432582  6.994209
H    -2.804267  -2.680888  5.745926
H    -3.137173  -0.946927  5.378830
Ca    2.304645  0.083700  3.425120
