31
Energy: -38168.428831 eV PBE+vdW (tier 2 basis)
C    0.018198  1.307006  0.676731
C    -0.075321  0.884140  2.101118
O    0.877507  1.095858  2.913297
H    0.238080  2.384055  0.638057
H    -0.885963  1.099997  0.094743
H    0.872213  0.800908  0.202809
N    -1.199995  0.271057  2.526325
C    -1.450897  -0.151935  3.914609
C    -0.502605  -1.327008  4.305830
O    0.601759  -0.998150  4.855997
H    -1.917522  0.084843  1.828523
H    -1.105130  0.662993  4.567498
C    -2.950235  -0.384538  4.194414
C    -3.792291  0.853909  4.342645
N    -5.088982  0.775448  4.844824
C    -3.593787  2.181019  4.057432
C    -5.655765  1.987643  4.869828
N    -4.755401  2.849155  4.394616
H    -3.022756  -0.961929  5.129556
H    -3.396096  -1.022404  3.415987
H    -5.565009  -0.069078  5.159679
H    -2.743210  2.706391  3.643938
H    -6.658127  2.222890  5.215188
H    -4.916345  3.851858  4.298131
N    -0.761969  -2.602848  4.083902
C    -1.877926  -3.266552  3.396230
H    -0.037629  -3.229395  4.443963
H    -2.216534  -2.682842  2.534978
H    -2.707960  -3.461653  4.086738
H    -1.511931  -4.228775  3.023751
Ca    2.179630  0.405939  4.468664
