31
Energy: -38167.1050681 eV PBE+vdW (tier 2 basis)
C    0.276504  0.304992  0.366537
C    0.000260  -0.219359  1.726798
O    1.022297  -0.543334  2.477886
H    0.936168  1.181456  0.455795
H    -0.625800  0.574797  -0.181838
H    0.806001  -0.461979  -0.214332
N    -1.199398  -0.314891  2.279390
C    -2.555060  -0.312790  1.690890
C    -2.661599  -1.533338  0.716085
O    -1.676992  -1.883998  0.078667
H    -1.180703  -0.646350  3.244084
H    -3.195533  -0.491522  2.563265
C    -3.058331  1.042361  1.084038
C    -3.090380  1.268537  -0.398846
N    -3.814495  0.490712  -1.297811
C    -2.638404  2.340147  -1.129706
C    -3.801811  1.046612  -2.514391
N    -3.089611  2.172784  -2.422343
H    -2.492660  1.865759  1.538799
H    -4.088115  1.171121  1.450759
H    -4.281850  -0.386054  -1.064769
H    -2.072756  3.213919  -0.829736
H    -4.279236  0.657535  -3.407708
H    -2.929689  2.817344  -3.196088
N    -3.904000  -2.062176  0.596424
C    -4.162045  -3.264267  -0.215462
H    -4.594099  -1.841011  1.310918
H    -3.928270  -4.175064  0.350457
H    -3.532530  -3.237850  -1.110061
H    -5.218845  -3.282383  -0.499835
Ca    2.790972  -1.077003  3.311954
