31
Energy: -38168.4257131 eV PBE+vdW (tier 2 basis)
C    1.973168  -0.876601  1.372948
C    1.097758  -0.905485  2.580029
O    1.590663  -1.141979  3.725572
H    2.776184  -0.140517  1.520004
H    1.443311  -0.646024  0.442905
H    2.465691  -1.855756  1.274130
N    -0.220932  -0.677624  2.408743
C    -1.338590  -0.733179  3.375634
C    -1.196395  0.291663  4.526559
O    -0.257412  0.186483  5.382323
H    -0.485383  -0.439410  1.456321
H    -2.216170  -0.429445  2.793101
C    -1.614891  -2.145371  3.954218
C    -2.273721  -3.115718  3.011882
N    -2.659837  -4.382633  3.444351
C    -2.658663  -3.052087  1.696189
C    -3.251234  -5.058300  2.451179
N    -3.254658  -4.258820  1.384400
H    -2.269562  -2.023287  4.832775
H    -0.676272  -2.579561  4.329542
H    -2.538510  -4.763829  4.381222
H    -2.574254  -2.268231  0.955061
H    -3.653488  -6.065410  2.507066
H    -3.647494  -4.511971  0.477297
N    -2.085790  1.260995  4.640191
C    -3.243215  1.590595  3.790931
H    -1.944481  1.861715  5.455948
H    -2.948179  1.691526  2.740204
H    -3.632458  2.557647  4.122562
H    -4.040560  0.845490  3.903567
Ca    1.769374  -0.400878  5.714150
