31
Energy: -38168.0185045 eV PBE+vdW (tier 2 basis)
C    -1.492515  3.379091  0.405859
C    -0.780992  2.426366  1.295771
O    0.137310  2.820330  2.075429
H    -2.231482  2.909547  -0.248983
H    -0.725492  3.861192  -0.223804
H    -1.954124  4.193651  0.981342
N    -1.070570  1.087036  1.268311
C    -2.430830  0.595923  1.483093
C    -2.762793  0.810771  3.009908
O    -1.908599  1.398932  3.753401
H    -0.374641  0.549256  1.790138
H    -3.123604  1.237561  0.918582
C    -2.591337  -0.874771  1.006068
C    -2.549156  -1.084959  -0.482022
N    -1.480933  -1.673552  -1.153104
C    -3.506627  -0.868793  -1.443549
C    -1.766861  -1.816628  -2.453531
N    -2.993509  -1.322880  -2.638910
H    -3.550940  -1.269929  1.366895
H    -1.827781  -1.501509  1.491211
H    -0.614916  -2.008128  -0.735681
H    -4.508335  -0.461332  -1.374338
H    -1.125971  -2.257894  -3.210560
H    -3.480121  -1.312778  -3.536080
N    -3.926192  0.409908  3.477345
C    -4.388273  0.568377  4.866405
H    -4.588893  -0.011296  2.829792
H    -5.184442  -0.159068  5.048739
H    -4.784599  1.580376  5.020526
H    -3.560515  0.381164  5.556510
Ca    -0.187265  2.649037  4.212237
