31
Energy: -38168.0188201 eV PBE+vdW (tier 2 basis)
C    -1.364963  1.387768  -0.088949
C    -1.121670  0.657872  1.181783
O    -0.112981  -0.098035  1.318070
H    -1.414155  0.629191  -0.888330
H    -0.513917  2.033183  -0.347968
H    -2.294842  1.962584  -0.100847
N    -2.000838  0.751361  2.227205
C    -2.381598  2.042707  2.794620
C    -1.117918  2.608429  3.551290
O    -0.030559  1.941725  3.526362
H    -1.803477  0.048715  2.943366
H    -2.586877  2.738508  1.967507
C    -3.638320  1.919581  3.697087
C    -4.926302  1.617645  2.979655
N    -5.757885  0.559441  3.333484
C    -5.601599  2.295365  1.993580
C    -6.883785  0.585356  2.609132
N    -6.793498  1.634054  1.788208
H    -3.773461  2.854594  4.260281
H    -3.456640  1.151243  4.463714
H    -5.583271  -0.127724  4.064688
H    -5.354161  3.195975  1.444823
H    -7.712574  -0.112348  2.679582
H    -7.517377  1.906974  1.122571
N    -1.206490  3.770723  4.163085
C    -0.115461  4.442890  4.887812
H    -2.086165  4.280267  4.107014
H    0.497215  5.028471  4.190014
H    0.503852  3.699574  5.397228
H    -0.557455  5.116948  5.627504
Ca    1.386173  0.466964  2.776430
