31
Energy: -38167.7721198 eV PBE+vdW (tier 2 basis)
C    -0.286050  0.205777  0.782970
C    -0.496742  0.061584  2.251775
O    0.424094  0.380175  3.064580
H    0.565244  0.873253  0.610783
H    -1.168903  0.604400  0.271782
H    -0.037027  -0.767956  0.329018
N    -1.671048  -0.402787  2.774954
C    -2.325649  -1.648850  2.359595
C    -1.295864  -2.814370  2.580004
O    -0.151848  -2.562008  3.078938
H    -1.716572  -0.249702  3.783443
H    -3.118469  -1.808305  3.106004
C    -3.000632  -1.573586  0.947757
C    -4.259887  -2.362339  0.737065
N    -5.500593  -2.013222  1.272512
C    -4.513042  -3.424209  -0.098267
C    -6.458504  -2.814915  0.789430
N    -5.867741  -3.678404  -0.039315
H    -2.295233  -1.863917  0.160000
H    -3.236578  -0.513256  0.776092
H    -5.697053  -1.228463  1.891703
H    -3.856366  -3.979468  -0.758465
H    -7.517912  -2.766814  1.024562
H    -6.362048  -4.399560  -0.566778
N    -1.658836  -4.046163  2.281242
C    -0.826224  -5.242043  2.494720
H    -2.599256  -4.192241  1.920959
H    -0.657959  -5.400174  3.566979
H    0.135022  -5.129489  1.981245
H    -1.353710  -6.107036  2.084610
Ca    1.420833  -1.306933  3.961666
