31
Energy: -38168.6160686 eV PBE+vdW (tier 2 basis)
C    -1.690951  -2.873543  1.450590
C    -1.369200  -1.591949  2.138818
O    -0.364977  -0.897278  1.790432
H    -2.597555  -3.360698  1.824416
H    -0.843862  -3.567110  1.554091
H    -1.800003  -2.678894  0.373364
N    -2.173229  -1.176665  3.138369
C    -2.056394  0.092492  3.880353
C    -0.825158  0.050519  4.835626
O    0.322910  0.246069  4.324116
H    -2.927469  -1.806974  3.403812
H    -1.801821  0.878481  3.152734
C    -3.386377  0.457500  4.569635
C    -4.527129  0.838836  3.664450
N    -5.764834  1.198697  4.192597
C    -4.660973  0.966993  2.305439
C    -6.612088  1.533411  3.212042
N    -5.951659  1.395582  2.061576
H    -3.188161  1.311544  5.237174
H    -3.719500  -0.373372  5.217042
H    -6.017422  1.224067  5.179828
H    -3.962723  0.798460  1.496428
H    -7.642033  1.855878  3.333294
H    -6.353612  1.584868  1.143200
N    -0.978098  -0.186380  6.123165
C    0.109176  -0.247754  7.112215
H    -1.915222  -0.358271  6.479308
H    -0.257295  0.164605  8.057802
H    0.959618  0.339728  6.758351
H    0.413755  -1.290793  7.269673
Ca    1.421285  0.042949  2.491058
