31
Energy: -38167.5217471 eV PBE+vdW (tier 2 basis)
C    -0.071253  -0.797744  1.845256
C    0.155441  0.540935  1.233672
O    1.387119  0.953556  1.077858
H    0.295053  -1.578941  1.161234
H    -1.119132  -1.006094  2.074777
H    0.511586  -0.879567  2.772877
N    -0.823681  1.323438  0.834670
C    -2.264259  1.021204  0.704512
C    -2.690230  1.826257  -0.557063
O    -2.175714  2.955083  -0.702477
H    -0.605277  2.229655  0.388278
H    -2.382952  -0.056475  0.538384
C    -3.130464  1.391947  1.938170
C    -3.228421  2.816014  2.421078
N    -3.187895  3.959788  1.633531
C    -3.558250  3.245454  3.684340
C    -3.475688  5.037351  2.370711
N    -3.706607  4.613572  3.617936
H    -2.809885  0.778295  2.791536
H    -4.147479  1.042135  1.694184
H    -2.904022  3.953983  0.638480
H    -3.726210  2.693871  4.601615
H    -3.510553  6.064356  2.024126
H    -3.968933  5.218885  4.394864
N    -3.593726  1.273813  -1.359577
C    -4.151231  1.928919  -2.549315
H    -3.923990  0.333913  -1.153002
H    -3.648287  2.888027  -2.693960
H    -5.228154  2.087661  -2.416130
H    -3.989251  1.290736  -3.425495
Ca    3.391691  1.164376  0.845716
