31
Energy: -38168.5354713 eV PBE+vdW (tier 2 basis)
C    0.624139  1.330203  0.317917
C    0.313752  0.423157  1.460757
O    1.242086  -0.002244  2.216178
H    1.404927  0.869894  -0.304327
H    1.052890  2.265912  0.707114
H    -0.242978  1.574547  -0.304633
N    -0.972676  0.073656  1.662180
C    -1.562894  -0.816064  2.685893
C    -1.290336  -0.339938  4.134412
O    -0.127859  -0.415995  4.647030
H    -1.640550  0.511129  1.031138
H    -2.644529  -0.732267  2.521139
C    -1.183932  -2.324305  2.512881
C    -1.980269  -3.078403  1.487737
N    -1.597170  -3.276437  0.162481
C    -3.161238  -3.766698  1.629098
C    -2.491045  -4.047834  -0.472030
N    -3.447111  -4.343329  0.411122
H    -1.347210  -2.824817  3.477633
H    -0.110773  -2.418086  2.300010
H    -0.740690  -2.947496  -0.276497
H    -3.799611  -3.912577  2.492683
H    -2.441837  -4.376621  -1.505529
H    -4.257195  -4.930485  0.207690
N    -2.325549  0.101704  4.824794
C    -2.295703  0.549946  6.223012
H    -3.226635  0.161588  4.353974
H    -1.418871  0.134009  6.724364
H    -3.206944  0.201303  6.720769
H    -2.266972  1.646952  6.262148
Ca    1.952781  -0.201403  4.215863
