31
Energy: -38167.1990888 eV PBE+vdW (tier 2 basis)
C    0.261357  -0.354793  0.966312
C    -0.581890  -0.330976  2.187477
O    -0.022970  -0.615768  3.337218
H    -0.307713  -0.220418  0.040532
H    0.776577  -1.324782  0.907441
H    1.038346  0.420607  1.052136
N    -1.874339  -0.036587  2.201708
C    -2.818067  0.334290  1.103317
C    -2.862119  -0.766944  -0.005837
O    -2.123335  -0.648535  -0.984111
H    -2.300082  -0.072943  3.128604
H    -3.790049  0.390751  1.608405
C    -2.481102  1.719163  0.490836
C    -3.477489  2.211617  -0.518672
N    -4.415578  3.207823  -0.257848
C    -3.641118  1.895657  -1.845872
C    -5.113456  3.494005  -1.364217
N    -4.651227  2.696856  -2.331369
H    -1.507472  1.662337  -0.010751
H    -2.388841  2.453851  1.302928
H    -4.544973  3.698401  0.624178
H    -3.115479  1.177092  -2.462813
H    -5.899090  4.236278  -1.457296
H    -4.993974  2.700316  -3.291646
N    -3.719006  -1.789154  0.172735
C    -4.672109  -2.015679  1.259551
H    -3.709017  -2.465839  -0.589653
H    -5.459275  -1.249891  1.286397
H    -4.175176  -2.074647  2.237466
H    -5.159534  -2.979810  1.087582
Ca    1.272279  -1.156626  4.806278
