31
Energy: -38168.3820584 eV PBE+vdW (tier 2 basis)
C    0.536877  0.618394  -0.343290
C    0.201751  0.794877  1.094708
O    0.978002  1.423846  1.879755
H    -0.195548  0.021376  -0.896532
H    1.529997  0.157024  -0.437091
H    0.610682  1.614048  -0.808069
N    -0.953683  0.283411  1.563880
C    -1.487258  0.506282  2.919760
C    -0.617906  -0.258692  3.958754
O    0.326374  0.408958  4.502855
H    -1.535156  -0.220435  0.896784
H    -1.304910  1.562475  3.167945
C    -3.016532  0.290977  2.875587
C    -3.792980  0.604213  4.122040
N    -5.185915  0.616364  4.097319
C    -3.450755  0.925966  5.411031
C    -5.673179  0.929469  5.303576
N    -4.627830  1.119171  6.109726
H    -3.257506  -0.732636  2.552496
H    -3.384439  0.955439  2.075966
H    -5.776562  0.428622  3.287674
H    -2.488223  1.040484  5.892090
H    -6.722123  1.014053  5.572223
H    -4.702427  1.372743  7.094978
N    -0.779276  -1.533371  4.267090
C    -1.711312  -2.539727  3.739216
H    -0.115283  -1.871377  4.967612
H    -1.797608  -2.467255  2.650355
H    -2.695920  -2.455986  4.215961
H    -1.302663  -3.526970  3.975723
Ca    1.937313  1.661257  3.755877
