31
Energy: -38167.5744795 eV PBE+vdW (tier 2 basis)
C    0.097078  -0.892294  -0.086900
C    0.036896  -0.538569  1.357151
O    1.083454  -0.777356  2.105250
H    0.833684  -0.247956  -0.590798
H    -0.861220  -0.790239  -0.602241
H    0.444120  -1.928938  -0.195271
N    -1.016165  0.011466  1.922083
C    -2.299050  0.459553  1.340024
C    -2.668251  1.698208  2.196881
O    -2.684438  1.527363  3.424506
H    -0.985858  0.213994  2.932218
H    -2.158994  0.700954  0.280306
C    -3.376462  -0.658887  1.533034
C    -4.803833  -0.209326  1.559591
N    -5.377256  0.433130  2.653768
C    -5.828606  -0.408063  0.669123
C    -6.684296  0.621320  2.446986
N    -6.968837  0.113476  1.243167
H    -3.163110  -1.170295  2.482908
H    -3.262135  -1.408246  0.739659
H    -4.860000  0.744489  3.479401
H    -5.844287  -0.892152  -0.299894
H    -7.384900  1.092167  3.128451
H    -7.900032  0.101644  0.828197
N    -2.971487  2.827434  1.548430
C    -3.354118  4.072882  2.221035
H    -2.899457  2.845917  0.534954
H    -3.328643  3.910377  3.301741
H    -4.361719  4.375435  1.911686
H    -2.649095  4.869428  1.955609
Ca    2.860217  -1.214860  2.976737
