31
Energy: -38168.4629136 eV PBE+vdW (tier 2 basis)
C    0.467468  0.459096  5.933018
C    -0.710850  0.583609  5.031175
O    -1.387002  1.655554  4.987088
H    0.181257  0.720763  6.960623
H    1.218356  1.202148  5.620914
H    0.928040  -0.534256  5.924328
N    -1.040656  -0.465297  4.248234
C    -2.010222  -0.447804  3.139727
C    -3.481440  -0.497294  3.637660
O    -3.919348  0.497712  4.294760
H    -0.447228  -1.286978  4.333311
H    -1.944450  0.555285  2.686982
C    -1.581000  -1.410563  2.008755
C    -1.338753  -2.870287  2.297632
N    -0.731450  -3.674542  1.334592
C    -1.582871  -3.706532  3.361374
C    -0.611570  -4.931097  1.777992
N    -1.123507  -4.962799  3.008956
H    -0.649645  -0.995500  1.591190
H    -2.317401  -1.319025  1.193341
H    -0.416735  -3.373263  0.411908
H    -2.037157  -3.526037  4.328002
H    -0.177875  -5.766757  1.235610
H    -1.162956  -5.798709  3.593323
N    -4.272337  -1.510433  3.338504
C    -5.697934  -1.580535  3.703110
H    -3.899030  -2.274824  2.782879
H    -6.100239  -2.529479  3.339656
H    -6.246207  -0.753016  3.237036
H    -5.812755  -1.527142  4.791590
Ca    -3.367505  2.418003  5.121730
