31
Energy: -38168.3166487 eV PBE+vdW (tier 2 basis)
C    -3.256248  -1.603037  -1.291152
C    -2.638651  -1.096806  -0.037104
O    -1.654478  -0.291922  -0.063499
H    -2.484724  -2.073688  -1.916987
H    -3.640849  -0.744886  -1.863820
H    -4.071988  -2.314028  -1.123899
N    -3.139315  -1.493918  1.149287
C    -2.706653  -0.953904  2.450152
C    -1.240166  -1.378171  2.740306
O    -0.334716  -0.512103  2.495732
H    -3.936164  -2.127794  1.126519
H    -2.634298  0.137367  2.336437
C    -3.799112  -1.239901  3.520527
C    -3.744309  -0.418093  4.778053
N    -3.480933  -0.946412  6.039798
C    -4.061777  0.900724  4.998202
C    -3.632308  -0.006944  6.982371
N    -3.977093  1.120346  6.355697
H    -3.836122  -2.303779  3.783988
H    -4.763572  -1.020966  3.036183
H    -3.266983  -1.917335  6.257257
H    -4.374435  1.680876  4.314395
H    -3.506621  -0.140032  8.052553
H    -4.176368  2.002705  6.828546
N    -0.894614  -2.579646  3.174863
C    -1.688875  -3.798107  3.376462
H    0.111318  -2.683695  3.328467
H    -1.982738  -3.912837  4.427717
H    -1.061724  -4.656213  3.110204
H    -2.568348  -3.814332  2.727833
Ca    0.167865  0.527532  0.659912
