31
Energy: -38168.1803096 eV PBE+vdW (tier 2 basis)
C    -1.535288  0.447427  -0.479788
C    -1.076641  0.563142  0.933291
O    0.111586  0.911194  1.202318
H    -0.855747  -0.207185  -1.041856
H    -1.462845  1.442666  -0.946006
H    -2.561848  0.080948  -0.583718
N    -1.961900  0.298229  1.918455
C    -1.806746  0.587013  3.352487
C    -0.927884  -0.483538  4.072181
O    0.253656  -0.608224  3.604206
H    -2.892733  0.027107  1.610427
H    -1.143222  1.465797  3.416646
C    -3.147687  1.089426  3.945241
C    -4.429381  0.354179  3.657133
N    -5.652272  1.005160  3.810505
C    -4.751806  -0.926789  3.273760
C    -6.666119  0.173538  3.545273
N    -6.131041  -1.002376  3.213478
H    -3.270834  2.114476  3.562123
H    -3.028621  1.207313  5.033165
H    -5.784061  1.975570  4.096540
H    -4.133478  -1.789223  3.055113
H    -7.724817  0.413537  3.589533
H    -6.673039  -1.829066  2.959279
N    -1.247575  -1.191514  5.142086
C    -2.431464  -1.267668  6.006164
H    -0.458010  -1.755598  5.468726
H    -3.355847  -1.131668  5.444081
H    -2.361527  -0.528251  6.815106
H    -2.448618  -2.265912  6.455779
Ca    1.778808  0.172290  2.304272
