31
Energy: -38167.7246885 eV PBE+vdW (tier 2 basis)
C    -0.749906  0.260066  -0.378183
C    -0.709043  -0.289898  0.998853
O    0.251458  -1.018972  1.389529
H    0.184716  0.777971  -0.632228
H    -1.615031  0.898062  -0.580470
H    -0.801348  -0.606256  -1.061805
N    -1.739088  -0.062869  1.879026
C    -2.134748  1.296297  2.243471
C    -1.013456  1.870638  3.173591
O    -0.036345  1.108788  3.505096
H    -1.655033  -0.665520  2.700337
H    -2.106906  1.915581  1.334124
C    -3.604704  1.370440  2.767102
C    -4.124345  0.289853  3.669307
N    -4.852663  -0.802457  3.197246
C    -4.193053  0.202820  5.039264
C    -5.347991  -1.512131  4.217793
N    -4.944138  -0.913187  5.341802
H    -4.249818  1.407202  1.878125
H    -3.759374  2.329852  3.274189
H    -5.050060  -1.014222  2.220290
H    -3.813103  0.859300  5.812924
H    -5.968714  -2.400245  4.145989
H    -5.196211  -1.224165  6.280672
N    -1.027412  3.131823  3.560049
C    -1.938252  4.228614  3.198269
H    -0.246141  3.395556  4.165130
H    -2.671043  4.404183  3.996555
H    -2.449198  4.028362  2.251990
H    -1.338797  5.137872  3.077153
Ca    1.487232  -0.378502  3.052521
