31
Energy: -38168.3546505 eV PBE+vdW (tier 2 basis)
C    0.251714  -0.647340  0.414270
C    -0.041743  0.195364  1.605106
O    0.879661  0.833131  2.199581
H    0.644921  0.003756  -0.382277
H    -0.619267  -1.189561  0.031622
H    1.050654  -1.362773  0.652489
N    -1.316771  0.290128  2.043762
C    -1.750047  1.183064  3.128032
C    -1.325229  0.600401  4.501658
O    -0.147863  0.860838  4.905715
H    -1.999927  -0.311618  1.591992
H    -1.124454  2.082644  3.037102
C    -3.195594  1.737766  2.955038
C    -4.417704  0.863661  2.890472
N    -4.971894  0.391208  1.698378
C    -5.331683  0.530022  3.863889
C    -6.154390  -0.195363  1.930188
N    -6.375109  -0.124963  3.244030
H    -3.175074  2.358752  2.046524
H    -3.349733  2.448673  3.779184
H    -4.613320  0.554375  0.758930
H    -5.357477  0.762955  4.922782
H    -6.813302  -0.635267  1.186933
H    -7.215929  -0.476342  3.705381
N    -2.148982  -0.153515  5.204015
C    -1.829266  -0.768227  6.501622
H    -3.059059  -0.362243  4.800098
H    -1.150337  -0.116283  7.058060
H    -1.360891  -1.749918  6.352733
H    -2.757120  -0.895990  7.066972
Ca    1.795443  1.317265  4.069648
