18
Energy: -237066.576296 eV PBE+vdW (tier 2 basis)
N    1.271565  -1.966167  0.866667
C    0.548070  -0.737137  1.359022
C    1.438365  -0.001120  2.361457
O    1.103049  1.161342  2.744747
H    1.743049  -1.820824  -0.033139
H    0.521931  -2.692493  0.755906
H    0.342506  -0.091911  0.494919
C    -0.812075  -1.202713  1.980067
O    -1.175093  -2.307025  1.140668
C    -1.851564  -0.096026  1.985798
H    -0.624008  -1.567424  3.007479
H    -2.002154  -2.716739  1.445618
H    -2.080971  0.225979  0.961924
H    -1.508627  0.772054  2.562041
H    -2.777312  -0.457629  2.451238
O    2.487045  -0.591111  2.794350
H    1.978895  -2.249313  1.564777
Ba    3.095328  1.459256  4.238462
