18
Energy: -237065.555133 eV PBE+vdW (tier 2 basis)
N    0.729623  -0.374346  0.042983
C    0.307449  0.022985  1.347138
C    1.500670  0.319986  2.268377
O    2.668783  0.488755  1.844993
H    1.076162  -1.326379  -0.039179
H    0.059232  -0.170804  -0.692740
H    -0.181569  1.012104  1.253806
C    -0.737855  -0.904550  2.045855
O    -1.026745  -0.209147  3.367449
C    -0.323474  -2.338981  2.277566
H    -1.679517  -0.837191  1.488570
H    -1.495009  -0.798103  3.992037
H    -1.111568  -2.897130  2.801253
H    0.611206  -2.426621  2.848707
H    -0.188364  -2.843650  1.312003
O    1.265228  0.462207  3.557539
H    0.006309  0.125603  3.703625
Ba    3.802766  1.336429  3.867414
