18
Energy: -237064.646435 eV PBE+vdW (tier 2 basis)
N    0.379036  -0.570951  -0.074728
C    0.047377  0.017401  1.193933
C    1.290254  0.462964  1.975874
O    2.423597  0.408110  1.604790
H    0.050098  -0.022505  -0.865176
H    1.385881  -0.709340  -0.174498
H    -0.586503  0.912706  1.079797
C    -0.786446  -1.029963  2.007813
O    -1.236760  -0.443387  3.321279
C    -0.076625  -2.346987  2.258753
H    -1.711188  -1.177998  1.427242
H    -0.499215  0.193255  3.586207
H    -0.735721  -3.103541  2.726479
H    0.811675  -2.226908  2.893586
H    0.234084  -2.779678  1.298983
O    0.918859  0.944295  3.230566
H    1.723533  1.237983  3.708463
Ba    -2.961960  -1.716304  4.430579
