18
Energy: -237065.586501 eV PBE+vdW (tier 2 basis)
N    0.549798  -0.463448  0.022982
C    0.341694  0.027687  1.351539
C    1.577711  0.108213  2.268394
O    2.748493  0.153806  1.808831
H    1.208085  -1.234898  -0.052331
H    0.785839  0.255888  -0.654129
H    -0.000695  1.077041  1.286058
C    -0.824872  -0.766931  2.004570
O    -0.996802  -0.121942  3.381927
C    -0.635717  -2.257929  2.136751
H    -1.746322  -0.514263  1.469968
H    -1.545301  -0.675986  3.973011
H    -1.501337  -2.724987  2.625991
H    0.274102  -2.527434  2.691070
H    -0.577724  -2.695322  1.131556
O    1.398618  0.172927  3.568558
H    0.033604  0.012470  3.728321
Ba    4.001823  0.613109  3.905935
