18
Energy: -237066.228373 eV PBE+vdW (tier 2 basis)
N    -0.058177  0.497864  -0.095359
C    0.243727  0.104117  1.280700
C    1.587082  -0.653484  1.218692
O    2.097019  -1.209799  2.221957
H    -0.253741  1.492352  -0.202350
H    -0.812260  -0.032068  -0.532772
H    0.430834  1.006914  1.883004
C    -0.873422  -0.706199  1.985485
O    -0.509068  -0.848785  3.424626
C    -1.154372  -2.074382  1.391989
H    -1.776936  -0.081454  1.958820
H    -1.310018  -0.639716  3.935417
H    -1.477518  -1.996530  0.344626
H    -1.971819  -2.568975  1.930175
H    -0.269353  -2.726791  1.411371
O    2.147347  -0.662700  0.065383
H    1.455444  -0.131409  -0.506027
Ba    1.683231  -1.899955  4.473264
