18
Energy: -237066.072355 eV PBE+vdW (tier 2 basis)
N    -1.016244  -0.400839  0.131394
C    -0.273088  -0.179520  1.393732
C    1.223717  -0.286169  1.107659
O    1.867964  -1.352333  1.152370
H    -0.531623  -0.031147  -0.688204
H    -1.919657  0.077806  0.163116
H    -0.453988  0.810373  1.837970
C    -0.740369  -1.303035  2.363032
O    -0.784553  -2.518851  1.534048
C    -2.085417  -1.035213  3.009505
H    0.021639  -1.466234  3.144272
H    -1.114463  -2.102626  0.663794
H    -2.389275  -1.888406  3.626836
H    -2.873472  -0.863750  2.264348
H    -2.023530  -0.152213  3.659662
O    1.768440  0.863201  0.795886
H    2.728561  0.773864  0.603825
Ba    1.365358  -3.819908  1.486755
