18
Energy: -237065.637207 eV PBE+vdW (tier 2 basis)
N    0.824107  -0.257007  0.219022
C    0.041548  -0.020862  1.425801
C    1.152160  0.275971  2.431749
O    1.651624  1.406483  2.628334
H    0.520377  0.289822  -0.581647
H    0.917638  -1.239401  -0.029435
H    -0.564179  0.888205  1.322387
C    -0.874169  -1.169864  1.895342
O    0.071822  -2.280267  2.187893
C    -1.915878  -1.597506  0.887680
H    -1.347775  -0.875898  2.846536
H    -0.390363  -3.036548  2.592159
H    -2.512215  -2.431868  1.279133
H    -1.468699  -1.905132  -0.064836
H    -2.610139  -0.767870  0.697621
O    1.716083  -0.758369  3.062070
H    1.087703  -1.641783  2.808791
Ba    3.780242  0.932035  3.779775
