18
Energy: -237065.89372 eV PBE+vdW (tier 2 basis)
N    -0.542261  0.211657  -0.018077
C    -0.153341  0.146314  1.431165
C    1.349094  0.480803  1.429539
O    1.986921  0.413523  0.397221
H    -1.222544  -0.551534  -0.186675
H    -0.951137  1.113630  -0.288082
H    -0.737341  0.880960  1.998769
C    -0.448760  -1.306732  1.934611
O    -1.696198  -1.734985  1.405960
C    -0.432579  -1.377197  3.457205
H    0.346720  -1.956906  1.524713
H    0.353059  0.086584  -0.550500
H    0.516969  -1.028505  3.880584
H    -0.554722  -2.419478  3.786293
H    -1.237072  -0.762774  3.886304
O    1.803200  0.801302  2.633806
H    2.764850  0.992246  2.581583
Ba    -3.405858  -3.138908  1.792580
