18
Energy: -237065.917996 eV PBE+vdW (tier 2 basis)
N    0.435116  -0.391592  0.089944
C    -0.034348  0.114940  1.432370
C    0.527087  -0.909387  2.427304
O    1.127823  -1.895995  2.041228
H    0.965200  0.299990  -0.451546
H    1.036522  -1.224041  0.321928
H    0.423220  1.094264  1.623598
C    -1.581130  0.239872  1.470725
O    -2.166915  -1.013317  1.166129
C    -2.084550  1.342453  0.540596
H    -1.810601  0.519946  2.513195
H    -0.369103  -0.718145  -0.463610
H    -3.171558  1.445502  0.642009
H    -1.874084  1.127772  -0.518090
H    -1.640190  2.314619  0.792061
O    0.275752  -0.572933  3.685528
H    0.713356  -1.208658  4.290844
Ba    -3.729595  -2.591287  1.230787
