18
Energy: -237066.207656 eV PBE+vdW (tier 2 basis)
N    0.728216  1.116418  1.730259
C    -0.339957  0.085333  2.052017
C    0.192942  -1.327407  1.897931
O    -0.461468  -2.316372  2.199914
H    1.509254  1.103914  2.402904
H    1.130757  0.957384  0.794137
H    -0.625557  0.241887  3.100281
C    -1.643197  0.325006  1.170320
O    -2.588225  -0.583610  1.585514
C    -1.362706  0.248195  -0.331178
H    -1.958460  1.359511  1.427199
H    0.317933  2.063169  1.740072
H    -2.303278  0.420364  -0.867698
H    -0.980745  -0.739151  -0.628062
H    -0.664146  1.020636  -0.689235
O    1.415127  -1.366531  1.367505
H    1.724098  -2.293635  1.269944
Ba    -3.193591  -2.622112  2.288178
