18
Energy: -237064.856012 eV PBE+vdW (tier 2 basis)
N    0.304296  -0.595776  0.216359
C    -0.171743  -0.178541  1.526661
C    1.045692  0.389541  2.207788
O    1.986422  -0.303872  2.774940
H    0.514717  0.159009  -0.433774
H    1.024030  -1.315289  0.191519
H    -0.870610  0.655048  1.384582
C    -0.953381  -1.312117  2.254851
O    -1.732077  -0.786269  3.305444
C    -0.101352  -2.490247  2.742592
H    -1.609265  -1.683646  1.446704
H    1.731097  -1.250881  2.873841
H    0.435876  -2.251791  3.677434
H    0.595554  -2.867211  1.977004
H    -0.745699  -3.342599  2.990579
O    1.246697  1.664514  2.111205
H    2.136045  1.935896  2.436748
Ba    -3.390302  -0.455772  4.718524
