18
Energy: -237066.300137 eV PBE+vdW (tier 2 basis)
N    0.007252  0.661377  -0.007627
C    0.246174  0.161035  1.394335
C    1.654340  -0.511681  1.294344
O    2.101904  -1.019982  2.391152
H    -0.809825  0.254230  -0.477532
H    0.918479  0.318367  -0.482019
H    0.293793  1.025756  2.067661
C    -0.869511  -0.799495  1.875440
O    -0.610236  -1.063916  3.302950
C    -0.964247  -2.104466  1.102504
H    -1.825412  -0.255202  1.827361
H    -1.474257  -1.058226  3.749000
H    -0.022857  -2.669610  1.132165
H    -1.210168  -1.937806  0.043477
H    -1.770113  -2.728969  1.506473
O    2.191828  -0.511434  0.191076
H    -0.061507  1.683679  -0.068614
Ba    1.703364  -1.957657  4.465853
