18
Energy: -237065.606955 eV PBE+vdW (tier 2 basis)
N    0.739677  -0.731319  0.041908
C    0.150841  -0.132498  1.222829
C    1.255265  0.217511  2.227893
O    1.932739  1.278990  2.137817
H    1.200226  -0.069445  -0.577565
H    1.321538  -1.550559  0.201959
H    -0.331032  0.810259  0.927517
C    -0.949741  -1.009440  1.851248
O    -0.176920  -2.166812  2.491019
C    -1.971209  -1.563382  0.898295
H    -1.414013  -0.468110  2.689096
H    -0.747141  -2.709675  3.070157
H    -2.531844  -0.727423  0.456994
H    -2.699089  -2.194628  1.424509
H    -1.503588  -2.127584  0.085360
O    1.578654  -0.662176  3.155021
H    0.671852  -1.650435  2.995473
Ba    3.572787  0.941727  3.952470
