18
Energy: -237065.746285 eV PBE+vdW (tier 2 basis)
N    0.415497  0.177350  0.176239
C    0.278854  -0.131792  1.630269
C    1.675360  -0.277819  2.227223
O    2.672436  0.124491  1.593522
H    -0.487846  0.573590  -0.110249
H    0.427629  -0.724537  -0.320086
H    -0.148709  0.767202  2.112660
C    -0.749212  -1.274338  1.879438
O    -1.882328  -0.777994  1.175210
C    -1.062586  -1.558237  3.349792
H    -0.365338  -2.198315  1.400664
H    -2.623857  -1.402298  1.247983
H    -1.973826  -2.169217  3.411665
H    -1.254173  -0.642761  3.927031
H    -0.302138  -2.188448  3.843359
O    1.857826  -0.748280  3.427673
H    1.018925  -1.059416  3.839602
Ba    2.832487  1.412818  -0.477994
