27
Energy: -243225.169524 eV PBE+vdW (tier 2 basis)
C    -0.628637  1.269499  -0.226050
C    -0.334043  0.679957  1.113001
O    0.875842  0.481931  1.486505
H    -0.203744  0.621520  -1.005036
H    -0.133207  2.245921  -0.312423
H    -1.700574  1.392587  -0.409006
N    -1.341263  0.363972  1.911989
C    -1.248685  -0.269350  3.215529
C    -2.689392  -0.827689  3.451164
O    -3.609739  -0.349226  2.792897
H    -2.330678  0.478426  1.631035
H    -0.512955  -1.085928  3.169503
C    -0.860656  0.740753  4.346668
C    0.301714  0.280025  5.195856
O    1.424123  0.019032  4.670812
N    0.122006  0.163743  6.506550
H    -1.737342  0.974659  4.962793
H    -0.547602  1.686413  3.881473
H    -0.763102  0.392334  6.948040
H    0.897708  -0.102388  7.109373
N    -2.820762  -1.759568  4.412660
C    -4.116132  -2.353505  4.756154
H    -1.986569  -2.191981  4.795098
H    -4.902946  -1.620784  4.556002
H    -4.121997  -2.617754  5.818308
H    -4.308816  -3.252115  4.156042
Ba    2.888448  0.093518  2.684057
