27
Energy: -243225.087969 eV PBE+vdW (tier 2 basis)
C    0.392996  1.610319  0.632067
C    0.111247  0.727425  1.804114
O    1.032167  -0.020989  2.279715
H    1.253940  2.254964  0.851386
H    -0.462737  2.231550  0.350385
H    0.673687  0.979392  -0.223294
N    -1.110341  0.741645  2.324811
C    -1.677287  -0.180412  3.301632
C    -3.136729  -0.402460  2.767179
O    -3.591001  0.456067  2.010318
H    -1.879485  1.226585  1.827188
H    -1.093353  -1.109890  3.309546
C    -1.785384  0.421195  4.718762
C    -0.486501  0.753377  5.425239
O    0.552935  0.045582  5.292352
N    -0.496709  1.800426  6.243769
H    -2.303754  -0.302462  5.369830
H    -2.429607  1.310759  4.680084
H    -1.325063  2.373822  6.371138
H    0.313036  2.011525  6.821493
N    -3.829996  -1.479391  3.177103
C    -3.426015  -2.563315  4.062451
H    -4.782988  -1.503283  2.816812
H    -3.738392  -2.384453  5.101777
H    -2.340677  -2.712153  4.032637
H    -3.891764  -3.494586  3.722278
Ba    2.383775  -0.942239  3.995232
