27
Energy: -243225.169263 eV PBE+vdW (tier 2 basis)
C    0.239483  0.241857  0.011408
C    0.043237  0.168106  1.495237
O    0.858067  0.578612  2.319326
H    1.093965  -0.395305  -0.256358
H    0.510456  1.267638  -0.266636
H    -0.633476  -0.080769  -0.566624
N    -1.139040  -0.434562  1.944547
C    -1.353066  -0.418620  3.376135
C    -2.288410  -1.519108  3.872740
O    -2.831350  -1.411650  5.018407
H    -1.943623  -0.397398  1.321510
H    -0.363895  -0.680026  3.794641
C    -1.720771  0.991236  3.942575
C    -0.946124  1.291209  5.207094
O    -1.484467  1.136538  6.349943
N    0.314663  1.663051  5.069196
H    -2.794226  1.078492  4.144015
H    -1.465890  1.734259  3.179150
H    0.750483  1.652078  4.141258
H    0.891496  1.851407  5.885664
N    -2.448434  -2.582949  3.104293
C    -3.225752  -3.773442  3.443153
H    -1.920716  -2.583596  2.231481
H    -2.572912  -4.552015  3.859105
H    -3.702581  -4.156579  2.535392
H    -3.995322  -3.511934  4.173778
Ba    -3.108796  -0.424527  7.243567
