27
Energy: -243225.017319 eV PBE+vdW (tier 2 basis)
C    -1.648290  2.025861  0.222749
C    -1.110152  1.429899  1.488621
O    -0.016960  1.847058  1.984409
H    -0.926266  1.839810  -0.584697
H    -1.740826  3.114280  0.331417
H    -2.619354  1.617351  -0.075417
N    -1.822084  0.453066  2.060334
C    -1.476379  -0.380022  3.227736
C    -2.766420  -1.147057  3.606404
O    -3.744077  -0.499372  4.016335
H    -2.709480  0.231712  1.614240
H    -0.677259  -1.070660  2.926533
C    -0.952052  0.395798  4.468844
C    -1.522777  1.783099  4.732362
O    -0.720128  2.771258  4.809889
N    -2.823443  1.909343  4.881025
H    0.134149  0.499130  4.392583
H    -1.140286  -0.226204  5.357176
H    -3.421698  1.074188  4.699348
H    -3.230832  2.816174  5.096733
N    -2.779577  -2.481257  3.482533
C    -1.728355  -3.379554  2.999111
H    -3.654550  -2.905878  3.788136
H    -0.884101  -3.433907  3.698930
H    -1.372931  -3.088773  2.002885
H    -2.156857  -4.382243  2.914282
Ba    1.111985  3.494903  3.404499
