27
Energy: -243225.153333 eV PBE+vdW (tier 2 basis)
C    0.841723  2.903244  1.547026
C    0.779540  1.584809  2.257848
O    1.799422  1.132006  2.865398
H    1.185754  3.684022  2.237526
H    -0.114505  3.212536  1.112680
H    1.585942  2.830293  0.741545
N    -0.379825  0.919142  2.218526
C    -0.692146  -0.435735  2.713793
C    -2.233779  -0.574867  2.670518
O    -2.926023  0.123352  3.427956
H    -1.142339  1.389634  1.736253
H    -0.219456  -1.162573  2.035473
C    -0.173950  -0.756378  4.142747
C    -0.168977  0.370275  5.167695
O    0.927134  0.665738  5.749122
N    -1.300289  0.989930  5.424574
H    0.847202  -1.142285  4.075668
H    -0.787787  -1.578482  4.541385
H    -2.131966  0.759075  4.837214
H    -1.337171  1.719106  6.132927
N    -2.723391  -1.466310  1.799160
C    -4.150756  -1.750496  1.649330
H    -2.075981  -1.980847  1.210093
H    -4.343262  -2.810802  1.851194
H    -4.475695  -1.512966  0.629388
H    -4.704632  -1.134267  2.362033
Ba    3.158214  1.062846  4.902926
