27
Energy: -243225.964067 eV PBE+vdW (tier 2 basis)
C    -0.643434  0.572173  0.292699
C    -0.407377  -0.069252  1.626272
O    0.654975  -0.690074  1.866957
H    -0.553255  -0.189865  -0.492284
H    0.149955  1.310439  0.112392
H    -1.616569  1.066055  0.203232
N    -1.382403  0.066932  2.556120
C    -1.381972  -0.397406  3.953475
C    0.010795  -0.276037  4.623439
O    0.769311  -1.265228  4.777477
H    -2.197130  0.603232  2.271292
H    -2.019821  0.325863  4.481301
C    -2.082693  -1.763921  4.188313
C    -1.833541  -2.891655  3.199346
O    -0.681528  -3.235076  2.840140
N    -2.907466  -3.545436  2.755622
H    -3.161631  -1.575114  4.253242
H    -1.779349  -2.139688  5.178315
H    -3.849793  -3.309920  3.046999
H    -2.787913  -4.359850  2.157988
N    0.323663  0.938284  5.070266
C    1.574577  1.271353  5.751689
H    -0.345820  1.690760  4.935530
H    1.957953  0.381046  6.257606
H    1.376637  2.052258  6.492314
H    2.321331  1.640559  5.036269
Ba    1.741589  -2.673943  2.942270
