27
Energy: -243225.931251 eV PBE+vdW (tier 2 basis)
C    1.325482  -1.934925  1.550449
C    0.595056  -0.732254  2.061287
O    1.185792  0.365244  2.228613
H    1.785636  -1.694235  0.583295
H    0.692722  -2.821083  1.435593
H    2.144820  -2.167993  2.244661
N    -0.715738  -0.880516  2.354920
C    -1.621787  0.110446  2.952635
C    -2.051323  1.169984  1.908156
O    -1.217509  1.872862  1.288226
H    -1.111966  -1.800726  2.188650
H    -2.520547  -0.469151  3.193809
C    -1.079484  0.651396  4.327788
C    -1.075613  2.154193  4.555065
O    -0.294838  2.902093  3.917477
N    -1.896740  2.647285  5.482662
H    -0.031933  0.343308  4.429961
H    -1.634475  0.145926  5.126304
H    -1.861342  3.639079  5.707311
H    -2.492735  2.056523  6.051831
N    -3.365269  1.272956  1.704189
C    -3.991589  2.192599  0.754892
H    -3.981751  0.635967  2.200684
H    -4.362625  1.639663  -0.117409
H    -3.252148  2.926943  0.428114
H    -4.831537  2.701275  1.240618
Ba    1.065442  2.813142  1.805219
