27
Energy: -243225.070138 eV PBE+vdW (tier 2 basis)
C    -0.199179  1.683756  -0.331749
C    0.033981  1.104948  1.024543
O    1.190252  1.180568  1.571472
H    0.047615  2.753926  -0.319320
H    -1.230067  1.556455  -0.676149
H    0.481237  1.203704  -1.048473
N    -0.973054  0.515956  1.649089
C    -0.935665  -0.182470  2.923659
C    -2.176112  -1.134266  2.832996
O    -3.007129  -0.912600  1.953916
H    -1.890965  0.362294  1.190177
H    -0.002891  -0.759103  2.994879
C    -1.067549  0.776630  4.147844
C    0.081771  0.734964  5.133025
O    1.286377  0.720254  4.746750
N    -0.211692  0.754667  6.428665
H    -2.020052  0.607461  4.666074
H    -1.112790  1.811065  3.773794
H    -1.169645  0.780785  6.763266
H    0.531796  0.788908  7.122266
N    -2.287217  -2.130634  3.732103
C    -1.368894  -2.513108  4.794805
H    -3.141184  -2.676111  3.628952
H    -1.596599  -2.007172  5.744581
H    -0.328950  -2.305086  4.514717
H    -1.447808  -3.592678  4.960262
Ba    3.027414  1.178889  3.060857
