27
Energy: -243225.495334 eV PBE+vdW (tier 2 basis)
C    0.338775  0.171152  0.352857
C    -0.005460  0.190132  1.804591
O    0.814582  0.584996  2.673756
H    -0.487333  -0.157481  -0.286270
H    1.200524  -0.492586  0.198465
H    0.655241  1.177809  0.048919
N    -1.250414  -0.230976  2.176849
C    -1.575633  -0.208606  3.589208
C    -1.166868  -1.498114  4.334410
O    -0.131810  -1.442163  5.053785
H    -1.894503  -0.564044  1.465745
H    -0.838159  0.509566  3.936527
C    -2.851256  0.482069  4.069426
C    -2.480948  1.310403  5.327874
O    -1.283599  1.526260  5.640635
N    -3.490686  1.797667  6.041693
H    -3.683815  -0.196347  4.297130
H    -3.207107  1.188289  3.303278
H    -4.460327  1.641813  5.785949
H    -3.303264  2.384336  6.850980
N    -1.893209  -2.599379  4.183477
C    -1.591995  -3.894575  4.798384
H    -2.712182  -2.552598  3.582938
H    -0.703366  -3.789323  5.424669
H    -1.406429  -4.642154  4.017952
H    -2.440041  -4.218305  5.412907
Ba    1.219282  0.717155  5.239861
