27
Energy: -243225.191008 eV PBE+vdW (tier 2 basis)
C    2.124817  0.962114  0.906837
C    1.302244  0.862765  2.149223
O    1.798451  1.126096  3.289801
H    2.520954  1.981921  0.810463
H    1.568036  0.709274  -0.001475
H    2.988378  0.288364  0.995134
N    0.019056  0.486726  2.049928
C    -0.862685  0.367569  3.210490
C    -2.132276  -0.501194  2.966449
O    -3.172178  -0.183892  3.542665
H    -0.378879  0.370985  1.120045
H    -0.277456  -0.158057  3.982899
C    -1.301062  1.754612  3.755928
C    -1.293083  1.750087  5.267087
O    -0.213652  2.023236  5.887791
N    -2.402131  1.411260  5.893652
H    -2.294265  1.999782  3.364586
H    -0.594521  2.524605  3.427287
H    -3.191030  1.065421  5.341346
H    -2.441992  1.372523  6.909430
N    -2.000272  -1.567648  2.155322
C    -3.106264  -2.494495  1.899494
H    -1.076789  -1.837673  1.832875
H    -3.153273  -3.274723  2.670374
H    -2.962317  -2.958948  0.919382
H    -4.046207  -1.935207  1.905760
Ba    2.190905  2.018305  5.534551
