27
Energy: -243224.991995 eV PBE+vdW (tier 2 basis)
C    0.101421  0.147082  -0.027335
C    -0.331929  0.602883  1.338584
O    -0.273877  1.766758  1.723175
H    1.200667  0.116965  -0.048211
H    -0.210577  0.887888  -0.771459
H    -0.278968  -0.842238  -0.306591
N    -0.836182  -0.386653  2.183363
C    -0.926147  -0.124700  3.622892
C    -1.270885  -1.436588  4.331167
O    -2.424089  -1.959657  4.231601
H    -0.659968  -1.348000  1.903709
H    0.055776  0.218965  3.990497
C    -1.921464  1.018535  4.005023
C    -3.126889  1.168549  3.099847
O    -4.151651  0.425832  3.237729
N    -3.089668  2.119170  2.185642
H    -1.355623  1.954252  4.007202
H    -2.293084  0.853041  5.025880
H    -2.213857  2.614433  2.005984
H    -3.885418  2.280132  1.572993
N    -0.304477  -1.995728  5.046050
C    -0.408864  -3.247627  5.794012
H    0.584605  -1.502650  5.091164
H    -1.249289  -3.831620  5.411557
H    -0.556889  -3.041258  6.862016
H    0.518728  -3.815959  5.667981
Ba    -4.833365  -1.793507  3.836686
