27
Energy: -243225.069965 eV PBE+vdW (tier 2 basis)
C    -0.419434  1.567530  -0.375143
C    -0.135028  1.122406  1.021245
O    1.022713  1.308410  1.537870
H    -1.444009  1.347574  -0.690446
H    0.282113  1.071687  -1.059952
H    -0.241171  2.648274  -0.457127
N    -1.098606  0.536062  1.713223
C    -1.003884  -0.044791  3.042636
C    -2.192754  -1.064032  3.060223
O    -3.049168  -0.962553  2.183429
H    -2.013676  0.294799  1.287650
H    -0.040389  -0.563346  3.144629
C    -1.167892  1.010019  4.181396
C    -0.004715  1.110712  5.145674
O    1.193364  1.127772  4.739602
N    -0.280531  1.221711  6.440576
H    -2.103816  0.840231  4.728794
H    -1.269870  2.004370  3.720023
H    -1.233709  1.225216  6.789480
H    0.469751  1.352255  7.115166
N    -2.235336  -1.983495  4.043216
C    -1.279893  -2.225841  5.114322
H    -3.060703  -2.579123  4.004988
H    -1.518915  -1.654166  6.023132
H    -0.257700  -1.987407  4.795750
H    -1.297094  -3.290241  5.370898
Ba    2.879350  1.534970  2.985745
