27
Energy: -243224.908279 eV PBE+vdW (tier 2 basis)
C    -0.148075  1.056492  0.200580
C    -0.194492  1.124692  1.697234
O    0.084175  2.228594  2.283251
H    -0.929931  1.719744  -0.197208
H    -0.309916  0.046613  -0.188891
H    0.811646  1.442171  -0.165555
N    -0.520904  0.009646  2.336273
C    -0.898269  -0.304797  3.717759
C    -0.354174  0.569486  4.844083
O    0.805485  1.081385  4.820860
H    -0.741497  -0.855674  1.767793
H    -1.998281  -0.261604  3.758499
C    -0.464622  -1.772752  4.006415
C    -1.005652  -2.765749  2.961807
O    -1.172089  -2.426775  1.780081
N    -1.249971  -4.011122  3.395214
H    -0.786774  -2.058953  5.015571
H    0.634378  -1.830929  3.988021
H    -1.104573  -4.304034  4.353570
H    -1.540624  -4.713245  2.719679
N    -1.121401  0.713487  5.925382
C    -2.480877  0.218686  6.174327
H    -0.660733  1.184254  6.702610
H    -3.164667  0.518087  5.371689
H    -2.835337  0.668050  7.106137
H    -2.500755  -0.872102  6.291333
Ba    1.776607  3.060767  3.728782
