27
Energy: -243225.042658 eV PBE+vdW (tier 2 basis)
C    -0.330930  -0.031165  -0.076594
C    -0.356773  -0.106488  1.414225
O    0.603223  -0.632390  2.064313
H    0.560646  0.522799  -0.399818
H    -1.219926  0.448100  -0.499613
H    -0.244133  -1.047519  -0.485101
N    -1.412242  0.388636  2.071560
C    -1.520254  0.345854  3.529212
C    -2.969883  0.553239  4.071142
O    -3.138312  1.357328  4.987346
H    -2.145603  0.845737  1.535089
H    -1.206063  -0.667307  3.831298
C    -0.591315  1.397899  4.189598
C    0.017161  0.844887  5.455422
O    1.073347  0.135767  5.382074
N    -0.598696  1.078560  6.598178
H    -1.171060  2.306307  4.386232
H    0.232294  1.643934  3.510281
H    -1.499050  1.561099  6.588472
H    -0.237492  0.711249  7.475550
N    -3.970971  -0.183132  3.543971
C    -3.921299  -1.296252  2.600001
H    -4.876772  0.030306  3.958701
H    -4.071586  -0.970312  1.561048
H    -4.722371  -1.999535  2.850555
H    -2.972968  -1.840663  2.675468
Ba    2.360766  -1.078996  3.703775
