27
Energy: -243225.388208 eV PBE+vdW (tier 2 basis)
C    0.549900  0.655987  1.281487
C    -0.252534  0.870718  2.519790
O    0.107123  1.671439  3.418637
H    1.504194  0.201433  1.590588
H    0.796645  1.615442  0.812002
H    0.077509  -0.013530  0.556138
N    -1.407038  0.159987  2.721794
C    -2.455933  -0.034438  1.724086
C    -2.649101  1.253002  0.877608
O    -2.315489  2.373696  1.349800
H    -1.752920  0.252081  3.674750
H    -2.191595  -0.866349  1.056609
C    -3.763456  -0.433044  2.444726
C    -4.331746  0.577603  3.448752
O    -3.658844  1.533012  3.914753
N    -5.585876  0.364258  3.841829
H    -3.579835  -1.373406  2.990372
H    -4.532229  -0.670231  1.697223
H    -6.142332  -0.412206  3.498350
H    -5.996412  0.954220  4.561620
N    -3.168665  1.156065  -0.343219
C    -3.618313  -0.027334  -1.079782
H    -3.285369  2.053845  -0.813939
H    -3.449581  0.145515  -2.147387
H    -4.690016  -0.207734  -0.922830
H    -3.051906  -0.917572  -0.789631
Ba    -1.835178  3.336543  3.654875
