27
Energy: -243225.472178 eV PBE+vdW (tier 2 basis)
C    0.779612  -0.072314  0.574541
C    0.401309  0.707774  1.787833
O    1.176467  1.546307  2.311383
H    -0.023252  -0.705515  0.184835
H    1.616825  -0.727700  0.862235
H    1.158476  0.593638  -0.209609
N    -0.814421  0.498418  2.385860
C    -2.090501  0.427722  1.678244
C    -2.110336  1.430352  0.488277
O    -1.427798  2.486460  0.531452
H    -0.872251  0.936038  3.303306
H    -2.254620  -0.587624  1.284926
C    -3.233892  0.710280  2.679651
C    -3.228579  2.073402  3.380649
O    -2.214899  2.817779  3.426301
N    -4.361273  2.418122  3.989190
H    -3.197103  -0.062703  3.465423
H    -4.197734  0.570927  2.171821
H    -5.186241  1.826442  3.985377
H    -4.399420  3.273877  4.537760
N    -2.881621  1.102514  -0.542312
C    -3.078030  1.915397  -1.743948
H    -3.359822  0.204974  -0.510497
H    -4.128272  2.221540  -1.821900
H    -2.809571  1.329259  -2.630569
H    -2.440423  2.799950  -1.682973
Ba    -0.112634  3.769684  2.303744
