27
Energy: -243225.185706 eV PBE+vdW (tier 2 basis)
C    0.773036  0.423860  0.157487
C    -0.283201  0.314334  1.216706
O    -0.586032  -0.761830  1.753443
H    0.462782  -0.180505  -0.705829
H    1.702269  -0.019859  0.535948
H    0.966600  1.448781  -0.176648
N    -0.917661  1.476873  1.583951
C    -2.087716  1.551045  2.459812
C    -1.798807  1.219768  3.943547
O    -2.257949  2.007894  4.843799
H    -0.609756  2.344346  1.157914
H    -2.378898  2.608785  2.463959
C    -3.267231  0.726085  1.878145
C    -4.652477  1.064563  2.394127
O    -4.858427  1.879606  3.341379
N    -5.673829  0.461487  1.794770
H    -3.086496  -0.349559  2.023825
H    -3.267291  0.878676  0.788067
H    -5.540875  -0.192254  1.028999
H    -6.627787  0.656563  2.087033
N    -1.112770  0.135739  4.219536
C    -0.722742  -0.298896  5.556499
H    -0.839616  -0.430525  3.378720
H    0.284547  -0.724966  5.505749
H    -1.408940  -1.074340  5.922715
H    -0.726217  0.550306  6.245400
Ba    -4.309515  3.089023  5.405946
