27
Energy: -243224.980159 eV PBE+vdW (tier 2 basis)
C    0.462802  0.459004  0.466066
C    -0.179899  -0.588797  1.324762
O    0.380826  -1.625998  1.684524
H    0.771740  -0.005331  -0.479779
H    1.377923  0.813234  0.957601
H    -0.188202  1.313248  0.250204
N    -1.492931  -0.365206  1.719963
C    -2.063594  -1.355158  2.604684
C    -3.589166  -1.430691  2.596823
O    -4.212694  -1.622794  3.693942
H    -1.900861  0.560670  1.635744
H    -1.718667  -2.322217  2.188643
C    -1.469447  -1.253717  4.043663
C    -1.246255  -2.615815  4.657814
O    -2.076561  -3.102461  5.489671
N    -0.181193  -3.285617  4.249725
H    -2.109076  -0.648300  4.695170
H    -0.505600  -0.741667  3.957246
H    0.418120  -2.892397  3.518235
H    0.015427  -4.218454  4.604699
N    -4.270277  -1.371924  1.459265
C    -3.789632  -1.328792  0.072276
H    -5.280916  -1.425784  1.581552
H    -2.844890  -1.868520  -0.031535
H    -3.661971  -0.295651  -0.271996
H    -4.543387  -1.816428  -0.553987
Ba    -4.441503  -2.694840  5.885268
