27
Energy: -243225.001079 eV PBE+vdW (tier 2 basis)
C    -2.207814  -1.390936  -0.708556
C    -1.626307  -1.679865  0.638230
O    -1.412265  -2.883783  0.994534
H    -3.189697  -1.879576  -0.779499
H    -1.570976  -1.836447  -1.484184
H    -2.325760  -0.321853  -0.910533
N    -1.346006  -0.641850  1.429231
C    -0.983642  -0.607915  2.862021
C    0.327025  -1.328271  3.207877
O    0.424550  -2.591744  3.252972
H    -1.717980  0.259424  1.126733
H    -0.823695  0.462820  3.043913
C    -2.157123  -1.012429  3.769743
C    -3.270461  0.050411  3.607781
O    -3.157004  0.939627  2.764913
N    -4.336999  -0.078904  4.421154
H    -1.822160  -1.060744  4.816707
H    -2.549635  -2.005039  3.505297
H    -4.389411  -0.767211  5.161644
H    -5.079227  0.612009  4.360101
N    1.352006  -0.545464  3.517999
C    2.671836  -1.013712  3.939563
H    1.216819  0.460095  3.449351
H    2.574867  -1.986224  4.429657
H    3.093271  -0.290128  4.644144
H    3.343173  -1.101360  3.075221
Ba    -0.294239  -4.643047  2.150926
