27
Energy: -243225.834319 eV PBE+vdW (tier 2 basis)
C    -1.018960  1.012058  -0.153474
C    -0.584560  0.758947  1.256755
O    0.604144  0.447225  1.525340
H    -0.403256  1.812489  -0.583921
H    -2.075492  1.283098  -0.249048
H    -0.826413  0.107473  -0.746841
N    -1.524273  0.857321  2.221388
C    -1.395033  0.562168  3.651232
C    -0.637348  1.677876  4.404619
O    0.378458  2.233436  3.917618
H    -2.455317  1.118041  1.911089
H    -2.428165  0.590972  4.013834
C    -0.885455  -0.898050  3.937307
C    0.341224  -1.067527  4.819460
O    1.425691  -0.493831  4.556584
N    0.235186  -1.890779  5.863766
H    -0.616117  -1.356957  2.976162
H    -1.722917  -1.483088  4.334147
H    -0.614228  -2.405662  6.067963
H    1.058562  -2.097185  6.424708
N    -1.103159  2.032692  5.603412
C    -2.294358  1.549199  6.308635
H    -0.573309  2.780846  6.049133
H    -3.216557  1.832947  5.784575
H    -2.313476  2.016704  7.297024
H    -2.264011  0.462737  6.454986
Ba    2.471137  1.175850  2.985550
