27
Energy: -243225.088097 eV PBE+vdW (tier 2 basis)
C    -0.518441  1.871240  -0.024515
C    -0.113476  1.218399  1.257055
O    1.120544  1.156237  1.584502
H    -0.122120  2.894218  -0.061011
H    -1.603267  1.897521  -0.166326
H    -0.062231  1.320080  -0.859086
N    -1.062796  0.706863  2.032249
C    -0.900253  -0.151836  3.199715
C    -2.059805  -1.194734  3.038296
O    -3.042564  -0.843026  2.387449
H    -2.035406  0.643456  1.685963
H    0.090683  -0.623191  3.176533
C    -1.138093  0.588140  4.533269
C    -0.142240  1.666696  4.908950
O    1.084744  1.584185  4.613892
N    -0.604366  2.692142  5.616753
H    -1.111346  -0.147820  5.354370
H    -2.156737  1.001065  4.532543
H    -1.584221  2.769408  5.872133
H    0.032801  3.394432  5.983936
N    -1.946693  -2.384003  3.657482
C    -0.781920  -2.946673  4.332271
H    -2.755829  -2.988397  3.527517
H    0.057355  -3.106188  3.640336
H    -1.063205  -3.921717  4.740280
H    -0.451780  -2.327765  5.178135
Ba    2.965662  1.424268  3.051305
