27
Energy: -243225.171557 eV PBE+vdW (tier 2 basis)
C    0.494433  0.071096  0.133241
C    -0.645060  0.294455  1.085018
O    -1.558996  -0.518912  1.238680
H    0.826703  -0.970326  0.210692
H    1.344644  0.744146  0.290459
H    0.122508  0.211871  -0.892169
N    -0.620134  1.476960  1.801666
C    -1.703147  1.979476  2.636088
C    -1.714577  1.416362  4.068630
O    -2.623226  1.802976  4.870647
H    0.105199  2.145127  1.558989
H    -1.463174  3.042489  2.789026
C    -3.126961  1.962024  1.965469
C    -4.163793  0.994722  2.516973
O    -5.094328  1.434336  3.272178
N    -4.077083  -0.276044  2.185687
H    -2.987210  1.772111  0.894895
H    -3.568443  2.960586  2.050367
H    -3.233590  -0.591731  1.674511
H    -4.786471  -0.937354  2.490969
N    -0.740339  0.602423  4.422861
C    -0.539928  0.025352  5.748738
H    -0.073554  0.368279  3.688568
H    -0.855224  -1.025942  5.757903
H    -1.117943  0.590933  6.483618
H    0.523295  0.078807  6.006039
Ba    -4.928601  2.379775  5.473261
