27
Energy: -243225.191575 eV PBE+vdW (tier 2 basis)
C    -0.031874  3.405999  1.438726
C    0.172249  2.287405  2.408289
O    1.298733  2.143807  2.995060
H    0.210587  4.362447  1.919576
H    -1.051327  3.447296  1.042933
H    0.670930  3.279303  0.602964
N    -0.838011  1.455398  2.633600
C    -0.815451  0.187121  3.352531
C    -1.744731  -0.730825  2.479666
O    -2.587634  -0.173651  1.777849
H    -1.686606  1.499850  2.042242
H    0.213661  -0.195787  3.393596
C    -1.437004  0.274982  4.762297
C    -0.714884  1.130411  5.783638
O    0.545804  1.228008  5.811088
N    -1.463964  1.739980  6.696690
H    -1.474909  -0.741207  5.190085
H    -2.482319  0.602121  4.670335
H    -2.476586  1.663995  6.697418
H    -1.030839  2.242989  7.467017
N    -1.578636  -2.056713  2.606082
C    -2.406317  -3.036256  1.898147
H    -0.807155  -2.406707  3.164225
H    -2.801200  -3.772664  2.607084
H    -1.817957  -3.550951  1.128735
H    -3.235031  -2.505959  1.421786
Ba    2.724469  1.829608  4.864339
