27
Energy: -243225.894318 eV PBE+vdW (tier 2 basis)
C    -1.371650  0.446234  0.496000
C    -0.793690  0.668727  1.860521
O    0.286557  1.285508  2.014490
H    -1.533760  1.422232  0.018523
H    -2.313849  -0.111635  0.498236
H    -0.638297  -0.090610  -0.119882
N    -1.496872  0.187311  2.913705
C    -1.181958  0.321472  4.344004
C    -0.563861  1.697064  4.680065
O    0.664608  1.831873  4.918292
H    -2.369963  -0.283180  2.692901
H    -2.161866  0.318015  4.842414
C    -0.431398  -0.886295  4.967021
C    0.708101  -1.524320  4.188191
O    1.640145  -0.855537  3.680104
N    0.702918  -2.855050  4.104785
H    -1.179937  -1.654023  5.200215
H    -0.011915  -0.566484  5.934016
H    -0.020946  -3.426407  4.526553
H    1.486764  -3.333333  3.667095
N    -1.394553  2.736529  4.759075
C    -2.848471  2.767246  4.577617
H    -0.943311  3.609922  5.027327
H    -3.134496  2.425360  3.576077
H    -3.180656  3.802890  4.689460
H    -3.360702  2.166521  5.341126
Ba    2.479143  1.443967  3.230109
