27
Energy: -243224.92224 eV PBE+vdW (tier 2 basis)
C    0.429810  -1.384514  0.541534
C    -0.022648  -0.545016  1.704592
O    0.528365  -0.541287  2.802667
H    1.521816  -1.336300  0.464771
H    -0.020309  -1.099721  -0.416332
H    0.172546  -2.432406  0.753026
N    -1.123214  0.273060  1.478860
C    -1.835933  0.889575  2.602274
C    -3.110983  1.530275  2.047301
O    -3.134670  2.750039  1.686892
H    -1.618862  0.163115  0.599586
H    -2.132479  0.099837  3.311582
C    -0.987152  1.879585  3.456199
C    0.037534  2.708711  2.709742
O    -0.274491  3.823745  2.180543
N    1.272241  2.246248  2.657603
H    -0.472322  1.282629  4.214815
H    -1.662282  2.568804  3.980761
H    1.474209  1.305045  3.006139
H    2.004849  2.776249  2.191911
N    -4.200015  0.780828  1.935384
C    -4.386210  -0.625738  2.315475
H    -5.017643  1.267053  1.567452
H    -3.508609  -1.225182  2.054765
H    -5.244138  -1.015414  1.759700
H    -4.594371  -0.715606  3.389454
Ba    -2.204390  4.986768  1.340391
