37
Energy: -611338.449305 eV PBE+vdW (tier 2 basis)
C    0.878009  -0.755923  0.431496
C    0.388869  -0.252207  1.747892
O    1.095954  -0.482209  2.840165
H    0.209431  -0.491748  -0.394542
H    0.960842  -1.853403  0.460699
H    1.871752  -0.335141  0.215946
N    -0.733693  0.408992  1.818313
C    -1.487396  0.987515  2.942246
C    -2.950475  0.839682  2.426916
O    -3.115439  1.018600  1.213229
H    -1.298949  0.553733  0.953791
H    -1.282789  0.420461  3.856572
C    -1.095038  2.490402  3.096461
C    -2.082926  3.417883  3.840210
C    -3.054391  4.162085  2.908284
N    -3.811955  5.165280  3.663564
C    -4.911413  5.809461  3.223629
N    -5.576470  6.619957  4.054328
N    -5.358681  5.618821  1.976751
H    -0.919987  2.891050  2.087195
H    -0.124445  2.513748  3.608750
H    -1.475411  4.167183  4.369654
H    -2.644616  2.880767  4.617081
H    -3.767329  3.468121  2.441325
H    -2.476645  4.646999  2.102840
H    -3.367203  5.553038  4.490515
H    -6.281645  7.263967  3.712590
H    -5.399331  6.625224  5.052111
H    -6.251773  5.999541  1.682348
H    -4.758125  5.257903  1.246065
N    -3.943827  0.573563  3.288174
C    -3.869420  0.171657  4.693613
H    -4.848634  0.459796  2.829920
H    -4.799902  0.464811  5.190769
H    -3.045168  0.674763  5.209175
H    -3.754722  -0.916383  4.793883
Pb    2.837423  -1.499189  3.576688
