37
Energy: -611340.047857 eV PBE+vdW (tier 2 basis)
C    0.316226  1.972295  1.481586
C    0.062209  0.521932  1.705202
O    0.971361  -0.322408  1.392602
H    0.540454  2.128043  0.415556
H    1.216768  2.273989  2.035560
H    -0.520416  2.616748  1.770811
N    -1.118310  0.148227  2.215180
C    -1.699395  -1.201940  2.418537
C    -0.881634  -2.004451  3.448413
O    0.186472  -2.635072  3.113856
H    -1.753648  0.917724  2.417413
H    -2.671723  -0.994010  2.881599
C    -1.978994  -1.953738  1.096991
C    -2.984153  -3.111872  1.254886
C    -3.437281  -3.663964  -0.109436
N    -4.408265  -4.748529  0.054359
C    -5.371255  -5.086798  -0.831525
N    -6.315872  -5.959339  -0.467397
N    -5.402711  -4.539577  -2.051635
H    -1.042706  -2.312470  0.646100
H    -2.387294  -1.204257  0.403017
H    -3.873370  -2.760776  1.800772
H    -2.538668  -3.924841  1.850991
H    -2.564965  -4.012275  -0.687796
H    -3.922555  -2.860959  -0.682441
H    -4.253905  -5.405284  0.813578
H    -6.920881  -6.399072  -1.153492
H    -6.483383  -6.193272  0.504624
H    -6.210019  -4.666098  -2.654025
H    -4.573180  -4.154244  -2.485853
N    -1.295729  -2.079727  4.698233
C    -2.474009  -1.463137  5.331118
H    -0.697314  -2.641948  5.308119
H    -3.404144  -1.856681  4.903851
H    -2.441745  -0.370812  5.243719
H    -2.451320  -1.719816  6.393984
Pb    2.041356  -2.188590  1.924944
