37
Energy: -611338.327106 eV PBE+vdW (tier 2 basis)
C    -0.038355  -1.122944  -0.608154
C    -0.531325  -1.458891  0.748596
O    -0.899786  -2.670264  0.975965
H    0.298715  -0.086152  -0.702831
H    -0.830765  -1.324759  -1.343078
H    0.789725  -1.803724  -0.857194
N    -0.584955  -0.528811  1.709200
C    -0.801640  -0.764067  3.156338
C    -2.255496  -1.236948  3.430994
O    -3.019208  -0.544412  4.255844
H    -0.386787  0.428444  1.428625
H    -0.181465  -1.635988  3.425906
C    -0.348986  0.442148  3.993281
C    1.152875  0.517326  4.348448
C    2.093559  1.163384  3.318962
N    3.425963  1.303718  3.919934
C    4.558886  1.662560  3.284586
N    5.734907  1.515415  3.901257
N    4.513195  2.133012  2.030216
H    -0.893918  0.381664  4.943168
H    -0.699215  1.378440  3.528638
H    1.524316  -0.486793  4.605417
H    1.219010  1.113968  5.271027
H    1.696565  2.153152  3.033460
H    2.186940  0.550272  2.408760
H    3.489350  1.200245  4.928340
H    6.573662  1.971113  3.556688
H    5.834343  0.951728  4.738268
H    3.682611  2.588297  1.672292
H    5.371104  2.294907  1.512264
N    -2.614352  -2.335865  2.849265
C    -3.918475  -2.885824  3.065016
H    -1.564990  -2.724944  1.802015
H    -4.071768  -3.810054  2.491211
H    -4.733981  -2.196672  2.721100
H    -4.069330  -3.188877  4.134006
Pb    -5.039010  -0.893797  4.977492
