37
Energy: -611338.720745 eV PBE+vdW (tier 2 basis)
C    1.220481  -0.931791  1.701496
C    0.425862  0.321849  1.724547
O    0.923675  1.356449  1.142286
H    1.301076  -1.281259  0.661054
H    0.797046  -1.728562  2.320804
H    2.245435  -0.712245  2.031223
N    -0.769029  0.338494  2.321978
C    -1.695672  1.450871  2.653469
C    -2.015465  2.392054  1.486445
O    -3.299259  2.717118  1.383132
H    -1.059173  -0.559123  2.705154
H    -2.649704  0.947890  2.856999
C    -1.319647  2.181911  3.975699
C    0.069452  2.829033  4.091946
C    0.261758  3.421467  5.500512
N    1.603542  3.986290  5.668138
C    2.238998  4.156962  6.847150
N    1.601995  3.946478  8.004162
N    3.527874  4.514441  6.851282
H    -1.437855  1.433261  4.773894
H    -2.108040  2.929999  4.154582
H    0.196573  3.620489  3.336493
H    0.860051  2.084636  3.919525
H    0.135745  2.625257  6.248717
H    -0.506037  4.189737  5.692873
H    2.026082  4.440297  4.864110
H    2.114282  3.915729  8.879875
H    0.592397  3.981636  8.072972
H    4.107666  4.435952  6.023808
H    3.979558  4.849349  7.695868
N    -1.095823  2.826610  0.692388
C    -1.429099  3.675442  -0.418607
H    0.182340  2.098532  0.949803
H    -0.539615  3.927557  -1.010225
H    -1.858516  4.650314  -0.088018
H    -2.115735  3.161333  -1.137321
Pb    -4.500882  3.790841  -0.044134
