37
Energy: -611338.202052 eV PBE+vdW (tier 2 basis)
C    -0.379084  0.006290  -1.731404
C    0.259646  -0.107140  -0.401228
O    1.577931  -0.174347  -0.337078
H    -0.058033  0.942298  -2.213447
H    -1.466210  -0.037293  -1.674367
H    -0.040211  -0.829247  -2.360654
N    -0.369530  -0.133876  0.756637
C    -1.807619  -0.077638  1.141457
C    -2.449361  -1.471921  0.871811
O    -2.539193  -1.872645  -0.297176
H    0.257488  -0.224585  1.558160
H    -1.740342  0.078112  2.222700
C    -2.620301  1.123956  0.556181
C    -3.712952  0.894988  -0.505039
C    -5.036717  0.339460  0.055535
N    -6.042017  0.101645  -0.979035
C    -6.272079  -1.067870  -1.602681
N    -5.409263  -2.087114  -1.489565
N    -7.383118  -1.212274  -2.334675
H    -1.897469  1.856714  0.172038
H    -3.079506  1.620778  1.423204
H    -3.367013  0.244433  -1.318418
H    -3.920357  1.872497  -0.963614
H    -5.471924  1.053598  0.767931
H    -4.895966  -0.598325  0.609596
H    -6.644468  0.879342  -1.230449
H    -5.665040  -3.005803  -1.832689
H    -4.455336  -1.971441  -1.148466
H    -7.507887  -2.000781  -2.959413
H    -8.159204  -0.564120  -2.259729
N    -2.902269  -2.156675  1.933746
C    -2.868433  -1.802607  3.358699
H    -3.300989  -3.064239  1.696552
H    -1.841769  -1.758784  3.744847
H    -3.393290  -2.587685  3.910859
H    -3.388323  -0.857112  3.556256
Pb    3.640510  -0.194589  -0.877856
