37
Energy: -611338.309753 eV PBE+vdW (tier 2 basis)
C    0.372462  0.934621  0.469152
C    0.136163  0.296482  1.792386
O    1.142857  0.028822  2.588663
H    -0.447865  1.595757  0.167137
H    0.473042  0.152679  -0.302307
H    1.302495  1.512043  0.485305
N    -1.071423  -0.037980  2.212921
C    -2.339232  0.149504  1.484639
C    -2.918969  1.609170  1.553802
O    -3.305156  2.063163  0.478599
H    -1.124114  -0.459782  3.143121
H    -2.113077  0.031549  0.420236
C    -3.372396  -0.919985  1.913898
C    -4.811032  -0.693899  1.405532
C    -5.004303  -0.810021  -0.118417
N    -6.373387  -0.498204  -0.539343
C    -7.431598  -1.329251  -0.572518
N    -8.657795  -0.826340  -0.750705
N    -7.274066  -2.650287  -0.407874
H    -3.418512  -0.961250  3.012841
H    -2.999350  -1.901407  1.582832
H    -5.176276  0.290092  1.733676
H    -5.448662  -1.435610  1.906947
H    -4.714917  -1.808003  -0.479382
H    -4.365772  -0.096161  -0.653327
H    -6.544915  0.458873  -0.830385
H    -9.443081  -1.420349  -0.994245
H    -8.840155  0.169455  -0.702352
H    -6.380392  -3.095457  -0.572336
H    -8.081325  -3.263214  -0.373413
N    -3.013341  2.272686  2.721892
C    -2.681628  1.845798  4.077886
H    -3.407502  3.206931  2.616906
H    -3.199571  2.508489  4.778471
H    -1.605172  1.923331  4.287817
H    -3.036138  0.829168  4.287418
Pb    3.194168  -0.159828  3.210537
