37
Energy: -611340.392950 eV PBE+vdW (tier 2 basis)
C    -0.816464  0.450327  -0.706971
C    -1.060356  1.334840  0.463861
O    -0.846086  2.592315  0.358427
H    0.220426  0.571305  -1.050564
H    -1.459610  0.785860  -1.535296
H    -1.014681  -0.607542  -0.505300
N    -1.527361  0.802338  1.601240
C    -1.978253  1.534812  2.801569
C    -0.736919  1.986215  3.606615
O    -0.145896  3.076309  3.285207
H    -1.662034  -0.207810  1.601315
H    -2.452286  2.465675  2.453728
C    -3.038647  0.689950  3.538446
C    -3.800308  1.420572  4.660399
C    -4.957262  0.557046  5.197281
N    -5.709473  1.267551  6.234025
C    -6.505521  0.686346  7.159600
N    -7.001810  1.429894  8.153027
N    -6.771487  -0.623256  7.106777
H    -2.590122  -0.243828  3.920854
H    -3.759130  0.372280  2.768623
H    -4.209739  2.363016  4.262110
H    -3.130635  1.687112  5.491569
H    -4.559094  -0.367738  5.640331
H    -5.621534  0.274437  4.362765
H    -5.810970  2.273049  6.131822
H    -6.631754  2.347909  8.371804
H    -7.758680  1.091306  8.738373
H    -7.236888  -1.087750  7.880444
H    -6.707775  -1.146864  6.242228
N    -0.284775  1.246123  4.596792
C    0.915651  1.524121  5.397423
H    -0.790088  0.388589  4.810482
H    1.143992  2.591662  5.356487
H    1.765069  0.946761  5.008900
H    0.724097  1.223389  6.432397
Pb    0.059316  4.333064  1.413814
