37
Energy: -611340.233151 eV PBE+vdW (tier 2 basis)
C    0.477910  -0.918506  -0.134606
C    0.180575  -0.357876  1.211002
O    0.979601  0.496982  1.728018
H    -0.268893  -1.639403  -0.483426
H    1.468923  -1.393963  -0.123880
H    0.540553  -0.086549  -0.852680
N    -0.936020  -0.739508  1.847117
C    -1.461676  -0.187161  3.110372
C    -0.652506  -0.780172  4.290176
O    0.446179  -0.219956  4.636201
H    -1.508723  -1.435549  1.371981
H    -1.228264  0.888719  3.114734
C    -2.996856  -0.354220  3.154839
C    -3.673722  0.411394  4.308794
C    -5.186371  0.166956  4.475735
N    -6.020016  0.898011  3.515893
C    -7.274137  1.343309  3.762085
N    -7.850152  2.183086  2.895428
N    -7.928781  0.972280  4.866271
H    -3.267490  -1.424164  3.193732
H    -3.368298  0.005557  2.182646
H    -3.492584  1.491927  4.206138
H    -3.217653  0.116096  5.265582
H    -5.465172  0.518448  5.477707
H    -5.404013  -0.913894  4.431742
H    -5.726821  0.933890  2.545284
H    -7.308996  2.707441  2.217745
H    -8.847166  2.370854  2.927727
H    -8.786258  1.440852  5.142486
H    -7.696742  0.124364  5.369503
N    -1.079495  -1.857304  4.914281
C    -0.380855  -2.550969  6.005757
H    -1.958502  -2.264977  4.602030
H    0.191112  -3.397860  5.603997
H    -1.125837  -2.927730  6.713803
H    0.292971  -1.854757  6.510617
Pb    2.017174  1.053348  3.625170
