37
Energy: -611338.920287 eV PBE+vdW (tier 2 basis)
C    -0.368823  0.393307  0.975511
C    -0.667631  0.247830  2.423769
O    -0.047003  1.012664  3.252173
H    0.555466  -0.147901  0.716923
H    -0.160249  1.456610  0.790473
H    -1.181591  0.063013  0.327122
N    -1.595097  -0.594403  2.935601
C    -1.704975  -2.054701  2.722501
C    -0.574364  -2.659758  3.602523
O    0.498322  -1.977194  3.807381
H    -1.831386  -0.338284  3.897084
H    -2.676721  -2.333347  3.153631
C    -1.691435  -2.497099  1.236115
C    -2.282008  -3.889865  0.943971
C    -2.457029  -4.099700  -0.572709
N    -3.111874  -5.379294  -0.855366
C    -3.045403  -6.052812  -2.026231
N    -3.559362  -7.284074  -2.100566
N    -2.445145  -5.513452  -3.092811
H    -0.672825  -2.431734  0.828940
H    -2.304278  -1.754461  0.705653
H    -3.267227  -3.979078  1.429519
H    -1.641188  -4.689606  1.339906
H    -1.472920  -4.105458  -1.063375
H    -3.044246  -3.265887  -0.994228
H    -3.845998  -5.675843  -0.218733
H    -3.721360  -7.735468  -2.995097
H    -3.795542  -7.817396  -1.271488
H    -2.258383  -6.073523  -3.918821
H    -2.344576  -4.511358  -3.197794
N    -0.683505  -3.848117  4.166430
C    -1.809398  -4.785130  4.227318
H    0.147740  -4.133038  4.691166
H    -1.957118  -5.076179  5.274267
H    -1.581677  -5.685852  3.644545
H    -2.728088  -4.325725  3.856639
Pb    1.422368  -0.016958  4.606120
