37
Energy: -611339.469829 eV PBE+vdW (tier 2 basis)
C    -0.194847  -0.890023  0.251545
C    0.101396  0.158157  1.268026
O    1.288075  0.631782  1.341940
H    0.483929  -1.740268  0.415611
H    0.033458  -0.499508  -0.750730
H    -1.230024  -1.246397  0.273125
N    -0.885689  0.560781  2.077862
C    -0.883262  1.469657  3.250036
C    -0.470942  2.902948  2.866039
O    0.761930  3.228495  2.700409
H    -1.777862  0.100108  1.908709
H    -1.941392  1.518235  3.533566
C    -0.130066  0.899192  4.477833
C    -0.437513  1.693010  5.770212
C    -0.562147  0.874021  7.065696
N    0.718400  0.361242  7.572378
C    0.819338  -0.565798  8.557836
N    2.030549  -0.978883  8.944405
N    -0.273718  -1.094808  9.113825
H    0.949331  0.844392  4.283442
H    -0.475936  -0.139512  4.582385
H    -1.414453  2.191126  5.668595
H    0.286264  2.510316  5.910653
H    -1.226623  0.015054  6.890844
H    -1.037807  1.519659  7.822343
H    1.519171  0.980998  7.485149
H    2.864782  -0.764782  8.411343
H    2.157487  -1.527541  9.788786
H    -0.204005  -1.885826  9.746790
H    -1.173237  -0.630693  9.075569
N    -1.388838  3.842728  2.749201
C    -2.851686  3.761850  2.893079
H    -1.012720  4.770167  2.535771
H    -3.281805  4.645158  2.410966
H    -3.140963  3.771267  3.951779
H    -3.252208  2.874640  2.392201
Pb    2.541988  2.441414  1.586667
