37
Energy: -611340.208127 eV PBE+vdW (tier 2 basis)
C    -0.750996  0.137453  0.154055
C    -0.499114  -0.103856  1.601817
O    0.223604  -1.103188  1.948161
H    -1.372189  1.016884  -0.045255
H    -1.241406  -0.753193  -0.267687
H    0.208569  0.241520  -0.372099
N    -1.051225  0.723679  2.496189
C    -1.100193  0.661508  3.979160
C    0.301104  0.849677  4.595938
O    1.173084  -0.088828  4.603576
H    -1.597293  1.480462  2.088602
H    -1.683348  1.552973  4.248664
C    -1.879951  -0.562844  4.515339
C    -2.381947  -0.378669  5.961091
C    -3.395106  -1.466388  6.361266
N    -3.912565  -1.223839  7.710898
C    -4.520682  -2.141083  8.495170
N    -4.793458  -1.836241  9.767231
N    -4.818086  -3.355845  8.019461
H    -1.274516  -1.476540  4.429258
H    -2.738980  -0.697718  3.841675
H    -2.872931  0.605278  6.044379
H    -1.543688  -0.381990  6.673992
H    -2.913236  -2.455081  6.352864
H    -4.220471  -1.483808  5.629160
H    -4.005785  -0.256665  8.007194
H    -4.373773  -1.037277  10.228833
H    -5.427785  -2.402115  10.321742
H    -5.139999  -4.089264  8.643255
H    -4.947126  -3.521477  7.028700
N    0.571111  2.013700  5.153496
C    1.839797  2.392138  5.787644
H    -0.150679  2.732115  5.123849
H    1.620435  3.002199  6.670197
H    2.442287  2.986089  5.087314
H    2.387697  1.494118  6.081745
Pb    1.875837  -1.754885  3.267128
