37
Energy: -611338.968780 eV PBE+vdW (tier 2 basis)
C    0.452254  -0.578658  0.153922
C    0.545439  0.086802  1.479635
O    1.700541  0.377016  1.954327
H    0.426201  -1.674582  0.281749
H    1.361602  -0.351218  -0.415558
H    -0.431173  -0.272222  -0.413042
N    -0.539961  0.417261  2.219200
C    -1.664866  -0.483185  2.544477
C    -1.048202  -1.693095  3.318251
O    0.165872  -1.650088  3.732389
H    -0.298819  1.040484  2.990527
H    -2.249533  0.075235  3.292862
C    -2.609406  -0.855798  1.377690
C    -3.226547  0.334544  0.605783
C    -4.531734  0.882528  1.219253
N    -5.098122  2.006225  0.468171
C    -6.239689  2.006195  -0.254902
N    -6.852314  3.165930  -0.506884
N    -6.764181  0.864032  -0.716069
H    -3.427998  -1.463428  1.794769
H    -2.087264  -1.517590  0.676407
H    -3.431359  -0.002365  -0.420059
H    -2.494267  1.150464  0.512093
H    -4.369475  1.231076  2.250632
H    -5.294414  0.094229  1.280895
H    -4.673521  2.917318  0.613387
H    -6.666366  4.000942  0.038117
H    -7.561172  3.242677  -1.229655
H    -7.701725  0.845732  -1.104666
H    -6.202297  0.033849  -0.852342
N    -1.792507  -2.744197  3.586355
C    -1.351185  -3.912239  4.366207
H    -2.750891  -2.752369  3.245899
H    -1.000392  -3.593307  5.354375
H    -0.544983  -4.436780  3.839669
H    -2.203444  -4.586296  4.483214
Pb    2.266748  -0.744020  3.842507
