37
Energy: -611338.341909 eV PBE+vdW (tier 2 basis)
C    0.760303  0.577667  0.607972
C    0.290478  -0.317051  1.703317
O    1.162107  -1.057774  2.362117
H    1.504967  1.288138  0.996332
H    -0.057083  1.146340  0.152789
H    1.236870  -0.022225  -0.182297
N    -0.978200  -0.375670  2.013846
C    -1.686352  -1.227910  2.976842
C    -3.074674  -1.406021  2.308976
O    -3.469381  -0.468225  1.586387
H    -1.676157  0.143163  1.443241
H    -1.138752  -2.172750  3.071965
C    -1.832769  -0.570809  4.391392
C    -3.068055  0.297622  4.685274
C    -3.163743  1.700369  4.021551
N    -4.327556  1.840195  3.148159
C    -5.288715  2.779515  3.218517
N    -6.426333  2.597057  2.535274
N    -5.139771  3.883990  3.960057
H    -0.908493  -0.011608  4.600155
H    -1.843598  -1.401552  5.110332
H    -3.080212  0.438798  5.774513
H    -3.987658  -0.264469  4.469677
H    -2.252517  1.933575  3.447916
H    -3.232270  2.457142  4.810290
H    -4.401298  1.142225  2.404975
H    -6.679567  1.693226  2.154951
H    -7.077153  3.359401  2.380616
H    -5.928609  4.493532  4.147649
H    -4.229569  4.219852  4.246684
N    -3.789800  -2.499089  2.570516
C    -3.411187  -3.665780  3.374631
H    -4.688420  -2.535461  2.089897
H    -4.288505  -4.312604  3.464581
H    -3.109469  -3.375863  4.388164
H    -2.614614  -4.246556  2.891357
Pb    3.178952  -1.769530  2.546845
