37
Energy: -611338.666501 eV PBE+vdW (tier 2 basis)
C    -0.565316  1.057835  0.148652
C    -0.208135  1.085432  1.596946
O    0.518514  2.081743  2.072131
H    0.351416  1.021207  -0.459929
H    -1.125140  1.967909  -0.114749
H    -1.179536  0.191075  -0.117010
N    -0.608850  0.128324  2.387835
C    -0.394442  -0.153143  3.815785
C    -0.395715  -1.712185  3.817128
O    -1.176130  -2.262331  3.032298
H    -1.143801  -0.673870  1.989098
H    0.558818  0.278900  4.146194
C    -1.592455  0.415654  4.631803
C    -1.746754  -0.083281  6.085937
C    -2.724561  -1.260415  6.234018
N    -2.958109  -1.549393  7.652999
C    -3.591870  -2.637369  8.134380
N    -3.636362  -2.844395  9.455077
N    -4.143978  -3.526496  7.299760
H    -2.512790  0.196772  4.070378
H    -1.486542  1.508463  4.635033
H    -2.135146  0.760621  6.675419
H    -0.774492  -0.343220  6.530416
H    -2.330481  -2.167919  5.754105
H    -3.673988  -0.998510  5.736403
H    -2.810392  -0.789113  8.310326
H    -4.261751  -3.531509  9.862129
H    -3.061171  -2.313751  10.099061
H    -4.383954  -3.281846  6.347099
H    -4.516817  -4.403021  7.649091
N    0.420336  -2.332046  4.679500
C    0.541367  -3.790496  4.763259
H    1.073411  -1.773475  5.220735
H    1.503817  -4.117721  4.350647
H    -0.267749  -4.242409  4.183272
H    0.477315  -4.108469  5.810110
Pb    1.614817  3.834233  1.492766
