37
Energy: -611339.188143 eV PBE+vdW (tier 2 basis)
C    -1.118818  3.004540  -0.767641
C    -0.676406  2.163250  0.371246
O    0.291094  2.555072  1.115193
H    -1.524135  3.962927  -0.409727
H    -1.840372  2.511922  -1.424921
H    -0.220833  3.265392  -1.350906
N    -1.251576  0.970090  0.645906
C    -2.702429  0.778396  0.742776
C    -3.164977  1.586091  1.997551
O    -2.306113  2.074679  2.815562
H    -0.724928  0.414708  1.323725
H    -3.177908  1.221621  -0.144658
C    -3.047426  -0.725714  0.859823
C    -2.665923  -1.613666  -0.346140
C    -3.767643  -1.765913  -1.410126
N    -3.348865  -2.714537  -2.445808
C    -4.142974  -3.586812  -3.102667
N    -3.586425  -4.589257  -3.788898
N    -5.475408  -3.469297  -3.054331
H    -4.121648  -0.821666  1.075290
H    -2.543949  -1.114901  1.758460
H    -2.429867  -2.614084  0.041153
H    -1.740245  -1.239602  -0.812253
H    -4.023427  -0.793973  -1.865606
H    -4.675838  -2.166216  -0.937545
H    -2.377453  -2.687057  -2.741053
H    -4.116897  -5.118308  -4.473678
H    -2.626644  -4.877061  -3.633944
H    -6.071489  -4.212520  -3.404837
H    -5.923985  -2.580104  -2.872019
N    -4.453022  1.752506  2.209608
C    -5.040933  2.472031  3.351096
H    -5.102665  1.368281  1.526405
H    -6.098657  2.203445  3.417455
H    -4.954193  3.555915  3.202075
H    -4.531167  2.182784  4.275371
Pb    -0.206939  2.861515  3.307272
