37
Energy: -611340.054042 eV PBE+vdW (tier 2 basis)
C    -2.440208  -0.417910  -0.149284
C    -1.943685  -0.332214  1.253502
O    -1.209176  -1.273819  1.709723
H    -2.967981  -1.373601  -0.280777
H    -1.580862  -0.442286  -0.835476
H    -3.102797  0.405896  -0.434539
N    -2.297111  0.728290  1.992903
C    -2.032139  1.039565  3.417856
C    -0.529526  1.234282  3.689320
O    0.271265  0.235646  3.805862
H    -2.872603  1.410454  1.504043
H    -2.502979  2.019630  3.561438
C    -2.688553  0.065810  4.426173
C    -4.224515  0.183291  4.469054
C    -4.848822  -0.755105  5.521479
N    -6.315119  -0.727023  5.513450
C    -7.132422  -0.458809  6.556088
N    -8.379592  -0.937203  6.546312
N    -6.715896  0.281152  7.590629
H    -2.268815  0.296967  5.417863
H    -2.394054  -0.969473  4.200316
H    -4.647639  -0.058018  3.481616
H    -4.515835  1.221897  4.689218
H    -4.501148  -0.502067  6.531129
H    -4.529747  -1.793451  5.340164
H    -6.768997  -1.151132  4.709265
H    -9.091888  -0.568076  7.168553
H    -8.653776  -1.710127  5.949500
H    -7.266871  0.338787  8.440901
H    -5.934754  0.918857  7.511931
N    -0.043051  2.447292  3.862408
C    -0.720648  3.752789  3.807739
H    0.955698  2.469157  4.083938
H    -1.333451  3.844365  2.904476
H    0.052646  4.525737  3.770471
H    -1.328038  3.916336  4.706901
Pb    0.616085  -1.771882  2.889848
