37
Energy: -611340.038133 eV PBE+vdW (tier 2 basis)
C    -1.011428  -3.142045  0.060906
C    -0.729796  -2.158641  1.140238
O    0.422315  -1.608421  1.208558
H    -0.858539  -2.649873  -0.911565
H    -2.025035  -3.554505  0.099693
H    -0.280113  -3.961280  0.113118
N    -1.695542  -1.848831  2.018419
C    -1.604996  -0.805878  3.052952
C    -0.622540  -1.258651  4.163535
O    0.568012  -0.771958  4.135927
H    -2.594875  -2.309780  1.889721
H    -1.097189  0.057619  2.597066
C    -3.019151  -0.346093  3.468713
C    -3.055186  0.818049  4.475540
C    -4.507482  1.245333  4.771185
N    -4.592620  2.320335  5.765568
C    -5.332290  3.450101  5.680571
N    -5.660497  3.977956  4.496110
N    -5.727396  4.054903  6.804302
H    -3.601831  -1.194441  3.854094
H    -3.514334  -0.034143  2.535526
H    -2.491638  1.680057  4.088162
H    -2.568789  0.523989  5.419752
H    -5.087446  0.383636  5.139163
H    -5.007332  1.576277  3.852620
H    -4.274836  2.089404  6.702913
H    -6.348067  4.721665  4.432595
H    -5.153301  3.755561  3.649796
H    -6.066340  5.011938  6.797777
H    -5.750565  3.571498  7.695559
N    -0.924357  -2.120575  5.114907
C    -2.163760  -2.863258  5.375268
H    -0.152728  -2.304471  5.761052
H    -2.863403  -2.263479  5.970458
H    -1.901271  -3.757013  5.949942
H    -2.635065  -3.186509  4.442845
Pb    2.036408  -0.642477  2.420013
