37
Energy: -611338.842123 eV PBE+vdW (tier 2 basis)
C    0.226356  -0.658744  0.674990
C    -0.130713  -0.229809  2.052259
O    0.816255  -0.166278  2.967427
H    0.818631  0.130790  0.186406
H    -0.644365  -0.875115  0.050759
H    0.851680  -1.560310  0.722160
N    -1.345338  0.104692  2.424934
C    -2.590065  0.171235  1.624310
C    -3.360105  1.413898  2.165300
O    -3.808923  1.353868  3.318876
H    -1.481486  0.353294  3.411961
H    -2.318831  0.294662  0.568846
C    -3.442196  -1.093459  1.853166
C    -4.846747  -1.001530  1.204128
C    -5.993757  -1.461357  2.108343
N    -6.204958  -0.533987  3.225548
C    -7.294544  -0.514979  4.011069
N    -8.241873  -1.451145  3.893837
N    -7.433034  0.463119  4.918051
H    -3.527486  -1.235959  2.940147
H    -2.895067  -1.963857  1.466315
H    -4.874990  -1.621936  0.299820
H    -5.064079  0.022764  0.864717
H    -5.790720  -2.477560  2.487576
H    -6.911454  -1.506386  1.502792
H    -5.459581  0.134328  3.437710
H    -9.116573  -1.382034  4.402015
H    -8.112297  -2.277823  3.324856
H    -8.184527  0.453842  5.597959
H    -6.811860  1.262374  4.928817
N    -3.481592  2.453798  1.333088
C    -4.204625  3.683324  1.667585
H    -3.101382  2.377461  0.394082
H    -4.286616  3.761605  2.754945
H    -5.208019  3.675151  1.222410
H    -3.651111  4.543570  1.276716
Pb    2.746869  -0.259265  3.878694
