37
Energy: -611340.139334 eV PBE+vdW (tier 2 basis)
C    -1.958671  2.080382  0.518031
C    -1.955957  0.769675  1.221430
O    -2.567395  -0.225815  0.699946
H    -1.410862  2.864421  1.051132
H    -2.994951  2.405849  0.349836
H    -1.511173  1.940951  -0.478136
N    -1.288969  0.647643  2.377654
C    -1.043363  -0.601789  3.123837
C    -2.322518  -0.976869  3.907500
O    -3.246839  -1.635851  3.315091
H    -0.837001  1.491477  2.726290
H    -0.920129  -1.402070  2.377896
C    0.278628  -0.483398  3.913838
C    0.767563  -1.806008  4.539656
C    2.280505  -1.862229  4.836164
N    2.747761  -1.057132  5.974046
C    3.376430  -1.538335  7.073985
N    3.160919  -2.786475  7.500021
N    4.205433  -0.741310  7.754531
H    0.209457  0.316001  4.671923
H    1.026131  -0.136941  3.182525
H    0.577912  -2.626498  3.829872
H    0.199120  -2.048252  5.449690
H    2.847723  -1.549898  3.946060
H    2.568453  -2.904839  5.017282
H    2.906152  -0.069617  5.798027
H    3.759814  -3.209147  8.202056
H    2.377399  -3.339214  7.177732
H    4.623461  0.081941  7.334704
H    4.525988  -0.985919  8.686407
N    -2.465734  -0.603490  5.161657
C    -3.654745  -0.837292  5.993295
H    -1.703164  -0.079519  5.585553
H    -4.187934  -1.719451  5.630503
H    -4.316786  0.037919  5.954918
H    -3.333068  -0.996340  7.027157
Pb    -3.916592  -1.937561  1.171893
