37
Energy: -611338.423885 eV PBE+vdW (tier 2 basis)
C    0.967434  1.371825  0.347581
C    0.447148  1.393325  1.745323
O    0.963258  2.239720  2.620538
H    0.845997  2.363579  -0.112884
H    0.452558  0.636290  -0.279213
H    2.039188  1.119567  0.353835
N    -0.506179  0.578735  2.103192
C    -1.133632  0.302329  3.401460
C    -1.449901  -1.220066  3.257290
O    -1.606110  -1.649434  2.106085
H    -0.834997  -0.170353  1.443589
H    -0.414548  0.504437  4.206113
C    -2.420656  1.149038  3.634688
C    -3.591407  0.936372  2.648014
C    -4.620335  -0.160972  3.002966
N    -5.664703  0.258107  3.946389
C    -6.938673  0.571833  3.634158
N    -7.864576  0.600206  4.599852
N    -7.289776  0.860187  2.376081
H    -2.115146  2.204460  3.612833
H    -2.739228  0.960185  4.671113
H    -3.205732  0.713788  1.642913
H    -4.126962  1.891447  2.552460
H    -4.135333  -1.046853  3.432604
H    -5.114477  -0.516533  2.089885
H    -5.458415  0.198259  4.937700
H    -7.722064  0.140106  5.491601
H    -8.776438  1.016666  4.443867
H    -8.266161  0.908228  2.105191
H    -6.606798  1.069476  1.660404
N    -1.571649  -1.937678  4.379868
C    -1.838595  -3.379960  4.390025
H    -1.349890  -1.494846  5.267326
H    -0.924736  -3.935050  4.637313
H    -2.183544  -3.681834  3.397685
H    -2.604978  -3.606385  5.139661
Pb    2.560091  3.631467  2.963370
