37
Energy: -611338.842459 eV PBE+vdW (tier 2 basis)
C    0.851053  2.318810  0.237035
C    0.779291  1.107828  1.098339
O    1.868062  0.359416  1.182920
H    -0.097727  2.850674  0.164695
H    1.174302  2.047031  -0.773737
H    1.597254  3.000333  0.677700
N    -0.151203  0.868974  2.027329
C    -1.587267  1.015470  1.767736
C    -1.798892  0.293733  0.381619
O    -0.816345  0.163418  -0.362654
H    0.083698  0.094364  2.648558
H    -2.077849  0.442257  2.566546
C    -2.135981  2.471209  1.804797
C    -3.568215  2.567948  2.361478
C    -4.037224  4.027221  2.484131
N    -5.373579  4.094406  3.082914
C    -6.250418  5.109309  2.941764
N    -7.500983  4.963121  3.393114
N    -5.890427  6.243934  2.330718
H    -2.102331  2.917443  0.801125
H    -1.461869  3.057506  2.445745
H    -3.601399  2.093142  3.355795
H    -4.277755  2.028310  1.716254
H    -4.086348  4.488312  1.487021
H    -3.316111  4.600679  3.090765
H    -5.595670  3.409897  3.799843
H    -7.879533  4.054158  3.633230
H    -8.119438  5.759849  3.502059
H    -6.584579  6.942038  2.084906
H    -4.920705  6.526505  2.262068
N    -3.035989  -0.108234  0.089884
C    -3.396154  -0.771965  -1.168997
H    -3.748235  -0.055758  0.810725
H    -3.307048  -1.861447  -1.072123
H    -2.729179  -0.423543  -1.962043
H    -4.429665  -0.516576  -1.421930
Pb    3.617381  -0.589993  0.475554
