37
Energy: -611338.580979 eV PBE+vdW (tier 2 basis)
C    -0.469364  1.187413  -1.198128
C    -1.223728  0.569387  -0.073569
O    -2.168964  -0.254073  -0.326889
H    0.327150  1.864307  -0.871864
H    -1.166033  1.733078  -1.850434
H    -0.035513  0.384001  -1.812245
N    -0.879829  0.869189  1.186687
C    -1.430905  0.274737  2.419013
C    -2.804448  0.922934  2.724269
O    -3.839857  0.517956  2.085732
H    -0.137764  1.557756  1.299352
H    -1.656778  -0.779473  2.194939
C    -0.403214  0.325133  3.567564
C    0.813291  -0.603560  3.375368
C    1.735184  -0.585469  4.608459
N    2.857804  -1.510950  4.437733
C    4.026171  -1.459471  5.115701
N    4.191155  -0.602681  6.129337
N    5.033098  -2.254880  4.742264
H    -0.929912  0.033394  4.488800
H    -0.054988  1.362383  3.716505
H    1.394684  -0.315852  2.486970
H    0.454036  -1.631621  3.206736
H    1.152669  -0.847401  5.508345
H    2.146413  0.424533  4.752745
H    2.683349  -2.367424  3.920315
H    5.109504  -0.453430  6.535712
H    3.404859  -0.232492  6.649172
H    5.038539  -2.726376  3.844964
H    5.839527  -2.402223  5.340586
N    -2.905372  1.879929  3.621015
C    -4.135800  2.594813  3.987379
H    -2.057988  2.157861  4.112387
H    -4.186835  2.668167  5.079241
H    -5.003124  2.049702  3.610015
H    -4.114528  3.606068  3.560567
Pb    -4.298987  -0.665443  0.226018
