37
Energy: -611338.453245 eV PBE+vdW (tier 2 basis)
C    -0.224664  -0.780058  -0.101597
C    -0.049658  -0.469118  1.336818
O    1.067698  -0.822722  1.939704
H    -0.149248  -1.869963  -0.238637
H    0.590289  -0.319160  -0.679085
H    -1.195894  -0.462262  -0.494167
N    -0.949824  0.136309  2.089381
C    -2.270931  0.733377  1.729648
C    -3.255162  -0.358580  1.192004
O    -3.395563  -0.537940  -0.021202
H    -0.676588  0.247392  3.067588
H    -2.661156  1.068851  2.699617
C    -2.089220  1.977417  0.816855
C    -3.280529  2.443965  -0.042220
C    -4.622015  2.644363  0.681182
N    -5.679026  3.104291  -0.221386
C    -6.480685  2.317678  -0.960435
N    -7.543374  2.850271  -1.573249
N    -6.239937  1.001397  -1.065004
H    -1.261218  1.794671  0.119927
H    -1.756872  2.796551  1.471150
H    -3.411285  1.747433  -0.879168
H    -2.980833  3.403124  -0.488936
H    -4.533094  3.398987  1.474154
H    -4.977468  1.722775  1.166402
H    -5.808228  4.106855  -0.315056
H    -8.055185  2.342158  -2.285907
H    -7.884507  3.776619  -1.341524
H    -5.328739  0.599450  -0.866365
H    -6.913178  0.397897  -1.523237
N    -3.914338  -1.042140  2.144496
C    -4.886595  -2.096542  1.847683
H    -3.804896  -0.769470  3.116647
H    -4.841415  -2.857068  2.633808
H    -4.641507  -2.548014  0.881980
H    -5.906170  -1.690101  1.809299
Pb    3.041948  -1.588004  2.242945
