37
Energy: -611337.873731 eV PBE+vdW (tier 2 basis)
C    -0.290125  -0.924711  0.332320
C    -0.380240  -0.621528  1.799806
O    0.581190  -0.664044  2.571423
H    0.306479  -0.142537  -0.159240
H    -1.262203  -0.989139  -0.168674
H    0.254269  -1.867420  0.196370
N    -1.629750  -0.249808  2.273925
C    -1.789741  0.171187  3.658558
C    -3.000918  -0.561109  4.243509
O    -2.772130  -1.676683  4.905449
H    -2.364304  -0.071883  1.594325
H    -0.922380  -0.278486  4.167386
C    -1.735495  1.695098  3.942677
C    -0.301008  2.266810  4.019406
C    0.304853  2.711009  2.673785
N    1.642056  3.280887  2.823588
C    2.812443  2.658897  2.583701
N    3.938188  3.383033  2.557913
N    2.865492  1.339368  2.368247
H    -2.219064  1.875959  4.914662
H    -2.324135  2.251642  3.200096
H    0.369008  1.545250  4.509258
H    -0.333803  3.146080  4.678216
H    -0.326660  3.484678  2.214570
H    0.365299  1.891633  1.948660
H    1.698517  4.250395  3.120693
H    4.851210  2.942754  2.539976
H    3.921891  4.395378  2.505334
H    2.081249  0.709148  2.535231
H    3.725398  0.916232  2.038322
N    -4.249936  -0.176818  4.135760
C    -4.828622  0.982727  3.440700
H    -4.933540  -0.772942  4.608375
H    -5.804763  0.681444  3.045222
H    -4.193132  1.307667  2.614989
H    -4.972190  1.809078  4.149466
Pb    -2.289153  -3.493746  5.909810
