37
Energy: -611338.603612 eV PBE+vdW (tier 2 basis)
C    -0.561950  -1.294200  -0.687775
C    -0.622231  -2.101056  0.564281
O    -0.446664  -3.407826  0.511014
H    -0.722909  -0.226426  -0.506960
H    -1.335221  -1.639814  -1.390736
H    0.421103  -1.418720  -1.166059
N    -0.851804  -1.520448  1.712555
C    -1.013138  -2.077392  3.062827
C    -1.950620  -1.053093  3.744529
O    -1.863035  0.130120  3.352983
H    -1.045060  -0.500314  1.740481
H    -1.462857  -3.074659  2.986021
C    0.344376  -2.185695  3.818559
C    1.158782  -0.902822  4.097208
C    0.868811  -0.123683  5.404803
N    0.087051  1.098767  5.210866
C    0.208133  2.220191  5.943599
N    -0.428857  3.330831  5.546078
N    0.960527  2.251370  7.049669
H    0.970224  -2.872503  3.231121
H    0.142497  -2.711828  4.763337
H    1.138715  -0.208499  3.244752
H    2.204084  -1.231355  4.166227
H    1.833607  0.171336  5.837234
H    0.375355  -0.783605  6.138726
H    -0.678049  1.056876  4.530359
H    -0.510021  4.139385  6.152541
H    -0.808270  3.417150  4.611136
H    1.184581  3.130657  7.503293
H    1.240896  1.407847  7.533465
N    -2.747326  -1.448236  4.738014
C    -2.995789  -2.807813  5.228170
H    -3.339423  -0.707303  5.113531
H    -3.455436  -2.735243  6.218398
H    -2.062837  -3.371120  5.338326
H    -3.687175  -3.350122  4.569470
Pb    -0.183294  -5.125771  -0.754845
