37
Energy: -611338.679584 eV PBE+vdW (tier 2 basis)
C    -0.208434  -3.173491  -0.640579
C    0.214998  -1.833836  -0.171042
O    0.963413  -1.086298  -0.961836
H    -0.687984  -3.756878  0.150027
H    0.676033  -3.727127  -0.986752
H    -0.885677  -3.059393  -1.501032
N    -0.094145  -1.305005  0.996646
C    -0.958538  -1.783486  2.121797
C    -0.318683  -3.021476  2.824153
O    -0.524475  -4.152870  2.362254
H    0.303753  -0.376216  1.148291
H    -0.942240  -0.930872  2.814264
C    -2.420490  -2.040709  1.710546
C    -3.395844  -2.040022  2.906151
C    -3.555523  -3.333894  3.718940
N    -4.284347  -4.387693  2.995014
C    -3.951375  -5.695041  2.939887
N    -4.919671  -6.608871  2.799740
N    -2.671903  -6.078710  2.995376
H    -2.496344  -2.986028  1.156147
H    -2.718590  -1.235463  1.024966
H    -4.385812  -1.749223  2.525491
H    -3.125792  -1.239639  3.612607
H    -4.122104  -3.094879  4.631376
H    -2.598279  -3.747111  4.053225
H    -5.261266  -4.184015  2.798038
H    -4.710426  -7.563564  2.528713
H    -5.884686  -6.402642  3.033475
H    -1.904439  -5.429179  2.810364
H    -2.439007  -7.053824  3.144013
N    0.412185  -2.760766  3.914873
C    1.068162  -3.792634  4.722808
H    0.474037  -1.802281  4.246424
H    2.038650  -3.417208  5.063784
H    1.212543  -4.687233  4.111112
H    0.458183  -4.043321  5.600586
Pb    2.088586  -0.387266  -2.635285
