37
Energy: -611338.435390 eV PBE+vdW (tier 2 basis)
C    0.441022  1.072711  0.794776
C    -0.051580  -0.215442  1.360807
O    0.760064  -1.254649  1.429869
H    1.311718  1.426137  1.366902
H    -0.322639  1.857345  0.810731
H    0.751349  0.924017  -0.250956
N    -1.283446  -0.321244  1.784101
C    -2.037899  -1.467147  2.307353
C    -3.491633  -1.152404  1.871488
O    -3.809318  0.050132  1.771141
H    -1.928174  0.484721  1.666533
H    -1.664928  -2.383257  1.834043
C    -1.945377  -1.620104  3.859728
C    -1.904326  -0.360540  4.745262
C    -3.116378  0.578256  4.835514
N    -4.335271  -0.078964  5.336295
C    -5.598462  0.288852  5.011667
N    -6.577032  0.125510  5.909017
N    -5.877451  0.772246  3.797655
H    -1.033139  -2.194026  4.072845
H    -2.780617  -2.268733  4.160991
H    -1.047450  0.272111  4.466143
H    -1.661109  -0.715611  5.758716
H    -3.343649  1.031687  3.867863
H    -2.849597  1.400957  5.517142
H    -4.245876  -0.529343  6.244371
H    -7.554371  0.187899  5.643121
H    -6.382272  0.024006  6.899095
H    -6.765869  1.226275  3.616514
H    -5.221650  0.681599  3.018972
N    -4.337172  -2.163853  1.665667
C    -4.063635  -3.604692  1.679475
H    -5.265176  -1.874040  1.358648
H    -3.520480  -3.918730  0.778007
H    -5.021868  -4.132096  1.696392
H    -3.507809  -3.901319  2.576084
Pb    2.687229  -2.057205  0.922822
