37
Energy: -611338.903716 eV PBE+vdW (tier 2 basis)
C    -0.131396  0.025147  -0.583741
C    0.291283  -0.687836  0.648518
O    1.486986  -1.158895  0.698238
H    -1.014800  0.649626  -0.449768
H    -0.288021  -0.684797  -1.410481
H    0.716554  0.656749  -0.890973
N    -0.472292  -0.810605  1.760426
C    -1.827602  -1.397149  1.865394
C    -1.584490  -2.932833  1.822165
O    -0.605575  -3.394090  1.122431
H    0.101791  -1.060108  2.569376
H    -2.183482  -1.125169  2.868935
C    -2.854978  -0.872374  0.830186
C    -4.317330  -1.259037  1.116818
C    -5.347461  -0.634156  0.158676
N    -5.599893  0.785237  0.444782
C    -6.297187  1.613956  -0.371344
N    -6.459636  2.892618  -0.018246
N    -6.783507  1.175463  -1.536043
H    -2.585327  -1.217436  -0.177775
H    -2.761389  0.223016  0.838875
H    -4.593669  -1.004664  2.152617
H    -4.446854  -2.345994  1.023594
H    -6.281731  -1.212065  0.245885
H    -4.995312  -0.720080  -0.879977
H    -5.597548  1.053601  1.425482
H    -7.119720  3.494693  -0.499958
H    -5.945236  3.306283  0.750764
H    -7.189922  1.822170  -2.205166
H    -6.941866  0.190864  -1.713235
N    -2.334359  -3.783189  2.497821
C    -3.418627  -3.563154  3.461519
H    -2.078827  -4.763590  2.351292
H    -3.220466  -4.181758  4.344937
H    -4.378241  -3.871745  3.029103
H    -3.470745  -2.516447  3.768850
Pb    1.670971  -3.402275  0.767146
