37
Energy: -611339.360505 eV PBE+vdW (tier 2 basis)
C    -0.604641  -1.837330  -0.264657
C    -0.523037  -0.667870  0.655651
O    -0.019743  0.432175  0.228108
H    -1.276304  -1.566051  -1.095320
H    -0.982729  -2.749327  0.209290
H    0.376849  -2.035700  -0.715296
N    -1.001103  -0.800675  1.899079
C    -1.353087  0.195595  2.932009
C    -0.342572  1.325645  3.110573
O    0.900528  1.187240  2.809583
H    -1.405837  -1.717213  2.083533
H    -2.303442  0.656569  2.616875
C    -1.639730  -0.547891  4.273511
C    -0.427678  -1.204795  4.956647
C    -0.773753  -2.241115  6.040071
N    -1.341322  -1.647296  7.258785
C    -1.995674  -2.353072  8.214600
N    -2.507370  -1.707266  9.266950
N    -2.165176  -3.672764  8.095968
H    -2.407873  -1.304726  4.044287
H    -2.136146  0.161003  4.949106
H    0.246385  -0.440928  5.376335
H    0.177871  -1.747208  4.215048
H    0.145101  -2.799909  6.280676
H    -1.507608  -2.956767  5.641152
H    -0.914211  -0.783452  7.582240
H    -2.837237  -2.209150  10.085200
H    -2.598432  -0.698365  9.285063
H    -2.780033  -4.176009  8.728322
H    -1.564856  -4.239759  7.509441
N    -0.752401  2.466300  3.643362
C    -2.091925  2.898921  4.063343
H    -0.000622  3.136947  3.815978
H    -2.178746  3.973487  3.870244
H    -2.233693  2.725719  5.137658
H    -2.873136  2.381672  3.498527
Pb    1.848745  1.507079  0.772155
