37
Energy: -611338.651849 eV PBE+vdW (tier 2 basis)
C    -1.492500  2.278084  2.153945
C    -1.222570  0.942818  2.739180
O    -0.106036  0.772568  3.356875
H    -1.538243  3.022475  2.962875
H    -2.413885  2.318318  1.564792
H    -0.638396  2.566135  1.523515
N    -2.125869  -0.037865  2.626573
C    -1.982520  -1.490191  2.905116
C    -1.632940  -1.777397  4.373661
O    -2.404072  -2.659323  4.993726
H    -2.999001  0.231724  2.179831
H    -2.986115  -1.904271  2.746120
C    -0.989886  -2.189117  1.932851
C    -1.411525  -2.084553  0.456049
C    -0.344106  -2.529428  -0.564462
N    -0.153328  -3.978564  -0.711376
C    -0.499032  -4.712021  -1.792295
N    -1.459583  -4.298839  -2.625371
N    0.118961  -5.876204  -2.020946
H    -0.924667  -3.243303  2.243468
H    0.012817  -1.757381  2.073890
H    -1.629402  -1.033208  0.214165
H    -2.345410  -2.643269  0.288381
H    0.632517  -2.093545  -0.307917
H    -0.597561  -2.123327  -1.551976
H    0.496781  -4.427689  -0.074783
H    -1.591731  -4.739012  -3.529987
H    -2.111480  -3.567083  -2.374977
H    1.026607  -6.086479  -1.621032
H    -0.243972  -6.541071  -2.696396
N    -0.624420  -1.180400  4.917268
C    -0.286662  -1.420266  6.289665
H    -0.139401  -0.067487  4.003717
H    0.580673  -0.824297  6.603793
H    0.006804  -2.484061  6.471178
H    -1.111285  -1.108066  6.982680
Pb    -2.479505  -3.362777  7.037190
