37
Energy: -611339.689957 eV PBE+vdW (tier 2 basis)
C    -2.364645  0.285969  -0.173323
C    -1.933636  -0.065985  1.209003
O    -1.200413  -1.096802  1.385162
H    -3.005026  1.172703  -0.224626
H    -2.898497  -0.573510  -0.605183
H    -1.475539  0.444800  -0.800569
N    -2.344860  0.709012  2.224640
C    -2.150884  0.553733  3.686871
C    -0.660566  0.669152  4.062903
O    0.139914  -0.326378  3.931294
H    -2.903442  1.511185  1.943002
H    -2.655129  1.427870  4.116205
C    -2.799100  -0.719260  4.279511
C    -4.344407  -0.762409  4.234184
C    -5.036542  -0.222979  5.498186
N    -6.481447  -0.456251  5.409928
C    -7.422897  0.086036  6.212415
N    -8.713625  -0.073336  5.907267
N    -7.070647  0.807202  7.283918
H    -2.447327  -0.821605  5.317596
H    -2.414340  -1.598847  3.748009
H    -4.635184  -1.816221  4.111886
H    -4.727547  -0.238854  3.345088
H    -4.868473  0.858723  5.617263
H    -4.616736  -0.732477  6.382559
H    -6.790569  -1.219018  4.814312
H    -9.445507  0.128392  6.580974
H    -9.012366  -0.401312  4.995521
H    -7.769976  1.321963  7.810023
H    -6.175940  0.675388  7.739565
N    -0.186922  1.789912  4.571362
C    -0.867968  3.064145  4.843536
H    0.803387  1.747600  4.825899
H    -0.099257  3.834565  4.957211
H    -1.440725  3.008467  5.778089
H    -1.515158  3.355362  4.009728
Pb    0.526998  -1.988932  2.481592
