37
Energy: -611339.657935 eV PBE+vdW (tier 2 basis)
C    -1.601608  1.016676  0.786510
C    -1.033686  0.320789  1.974732
O    -0.395757  -0.775457  1.805260
H    -0.795652  1.233720  0.070960
H    -2.130823  1.944095  1.028935
H    -2.292738  0.329033  0.275960
N    -1.224201  0.861133  3.185622
C    -0.892375  0.345642  4.537612
C    0.637618  0.257864  4.737358
O    1.331147  -0.698088  4.244082
H    -1.734577  1.741960  3.177917
H    -1.251857  1.136753  5.210537
C    -1.642496  -0.958330  4.897359
C    -1.596317  -1.323138  6.400762
C    -2.681822  -0.707118  7.306054
N    -3.940027  -1.461419  7.275080
C    -4.799028  -1.599686  8.309777
N    -5.754614  -2.532776  8.247504
N    -4.691760  -0.827426  9.395744
H    -1.232926  -1.791640  4.311462
H    -2.677958  -0.834284  4.547213
H    -0.619845  -1.042858  6.824048
H    -1.641561  -2.415906  6.504437
H    -2.865004  0.350246  7.045991
H    -2.314847  -0.729157  8.340728
H    -4.236347  -1.872772  6.396070
H    -5.701437  -3.313043  7.602636
H    -6.537596  -2.528149  8.893539
H    -5.213358  -1.044210  10.239466
H    -4.223019  0.069788  9.373315
N    1.216513  1.192840  5.465464
C    2.652202  1.287500  5.760493
H    0.628507  1.936412  5.838011
H    2.773755  1.666709  6.780396
H    3.130597  1.987133  5.061979
H    3.112536  0.300548  5.673166
Pb    1.396362  -1.952386  2.377823
