37
Energy: -611338.786048 eV PBE+vdW (tier 2 basis)
C    0.372159  -0.381259  1.182792
C    -0.161298  0.488751  2.261773
O    0.705471  1.053573  3.092451
H    1.067942  0.194532  0.555553
H    -0.415732  -0.794873  0.547861
H    0.942381  -1.210114  1.626657
N    -1.421487  0.747053  2.457025
C    -2.643452  0.346930  1.732934
C    -3.600709  1.512512  2.145734
O    -3.387279  2.052579  3.237476
H    -1.747106  1.391620  3.226401
H    -2.454809  0.328243  0.651030
C    -3.127326  -1.027339  2.279032
C    -4.528670  -1.537759  1.893308
C    -4.720124  -1.964129  0.423165
N    -5.746524  -2.998542  0.237084
C    -7.031518  -2.819091  -0.119658
N    -7.720381  -3.837147  -0.641915
N    -7.617151  -1.618742  0.023445
H    -3.099768  -0.958234  3.375959
H    -2.375650  -1.781116  1.995832
H    -5.293985  -0.806221  2.192420
H    -4.702823  -2.421008  2.524490
H    -3.788014  -2.394924  0.030549
H    -4.972478  -1.117839  -0.231149
H    -5.437136  -3.963074  0.311510
H    -8.734355  -3.823756  -0.684551
H    -7.258676  -4.658668  -1.017645
H    -8.531697  -1.446697  -0.381311
H    -7.319819  -0.983454  0.752849
N    -4.597653  1.832185  1.311944
C    -5.530699  2.930714  1.595957
H    -4.586467  1.448819  0.372314
H    -6.414571  2.817004  0.961789
H    -5.064637  3.903059  1.391240
H    -5.824167  2.894987  2.649587
Pb    2.267749  1.890457  4.236054
