37
Energy: -611338.397896 eV PBE+vdW (tier 2 basis)
C    -1.542081  0.554356  -0.400168
C    -1.343081  0.398915  1.062520
O    -0.165402  0.626376  1.529386
H    -1.370030  1.606283  -0.673207
H    -2.535350  0.246611  -0.741317
H    -0.773416  -0.028196  -0.927624
N    -2.374676  0.047734  1.837297
C    -2.475121  -0.346873  3.268432
C    -1.757697  0.596948  4.241966
O    -2.456787  0.899045  5.330419
H    -3.253057  -0.056726  1.333019
H    -3.539056  -0.212571  3.502596
C    -2.184293  -1.862612  3.483801
C    -0.760791  -2.365115  3.190224
C    -0.653685  -3.867712  2.881399
N    -0.965084  -4.734352  4.026381
C    -1.204676  -6.063002  3.925788
N    -1.540310  -6.753695  5.021070
N    -1.143218  -6.680372  2.742545
H    -2.903229  -2.389713  2.837612
H    -2.486981  -2.102858  4.513848
H    -0.070574  -2.099421  4.005924
H    -0.355172  -1.874419  2.294879
H    0.368803  -4.066428  2.520644
H    -1.352869  -4.120474  2.070632
H    -0.656591  -4.416640  4.940563
H    -1.544075  -7.768381  5.024545
H    -1.830571  -6.293339  5.875335
H    -0.623975  -6.293851  1.963589
H    -1.468963  -7.636097  2.637488
N    -0.572449  1.046981  4.000057
C    0.057521  1.971379  4.899946
H    -0.176177  0.750059  2.584899
H    1.047107  2.276695  4.535178
H    0.233516  1.526329  5.908261
H    -0.521585  2.927755  4.980412
Pb    -2.189155  2.302941  6.946597
