37
Energy: -611340.298507 eV PBE+vdW (tier 2 basis)
C    -1.386829  1.805877  -0.373300
C    -1.130618  0.525752  0.342049
O    -0.046080  -0.114038  0.117896
H    -2.335160  2.279434  -0.098568
H    -1.369322  1.629474  -1.458243
H    -0.558707  2.498209  -0.159207
N    -2.032194  0.080686  1.228063
C    -1.901691  -1.092680  2.112816
C    -2.195029  -2.376167  1.296745
O    -1.278017  -2.857100  0.540313
H    -2.883269  0.632709  1.319351
H    -0.839437  -1.168147  2.392987
C    -2.742220  -0.913368  3.393135
C    -2.223976  0.176360  4.354272
C    -3.133213  0.310865  5.593010
N    -2.723630  1.400714  6.485002
C    -2.517301  1.326578  7.819553
N    -2.664093  2.426569  8.562964
N    -2.158085  0.177146  8.402656
H    -2.749587  -1.880239  3.918768
H    -3.790908  -0.694361  3.123827
H    -2.175535  1.149286  3.840829
H    -1.197406  -0.059589  4.672082
H    -3.152706  -0.623236  6.168205
H    -4.172705  0.497571  5.279339
H    -2.839786  2.343081  6.122623
H    -3.191795  3.228917  8.236540
H    -2.291536  2.480480  9.505868
H    -2.169740  0.082930  9.412999
H    -1.734222  -0.578596  7.880913
N    -3.370762  -2.960684  1.373912
C    -3.788246  -4.162736  0.638696
H    -4.062656  -2.549193  1.997497
H    -4.321290  -4.826803  1.327800
H    -2.909453  -4.670646  0.236520
H    -4.463185  -3.878374  -0.179139
Pb    0.666387  -2.178681  -0.369773
