37
Energy: -611339.522853 eV PBE+vdW (tier 2 basis)
C    -0.838189  -2.459101  -0.444851
C    -0.568854  -1.784402  0.852533
O    0.638064  -1.574589  1.216383
H    -1.904663  -2.587137  -0.657476
H    -0.341654  -3.439905  -0.456914
H    -0.377527  -1.867086  -1.250216
N    -1.598614  -1.387710  1.616791
C    -1.479735  -0.592048  2.847979
C    -0.891147  -1.467547  3.983539
O    0.361398  -1.338197  4.242983
H    -2.532904  -1.568251  1.254019
H    -0.690896  0.154121  2.669148
C    -2.780574  0.196461  3.121984
C    -2.701100  1.114688  4.357469
C    -3.711500  2.280148  4.363683
N    -5.113909  1.918619  4.615805
C    -5.868534  2.367333  5.647854
N    -7.196258  2.428774  5.509522
N    -5.307276  2.724599  6.806901
H    -3.643160  -0.480666  3.191175
H    -2.936394  0.813301  2.222479
H    -1.707311  1.588451  4.392807
H    -2.798453  0.530807  5.285425
H    -3.669247  2.815933  3.403202
H    -3.408070  3.011608  5.122391
H    -5.646735  1.581068  3.819971
H    -7.804904  2.555625  6.312278
H    -7.640064  2.454311  4.597860
H    -5.836643  3.230945  7.509412
H    -4.356798  2.474248  7.046013
N    -1.588505  -2.342975  4.680894
C    -2.999803  -2.730891  4.580607
H    -1.039840  -2.835829  5.389836
H    -3.637197  -2.048252  5.156387
H    -3.100064  -3.735319  5.003587
H    -3.326310  -2.769220  3.537322
Pb    2.145366  -1.290913  2.848218
