37
Energy: -611338.875417 eV PBE+vdW (tier 2 basis)
C    -0.290379  -1.874718  1.938879
C    -0.006315  -0.418777  2.023984
O    1.211060  -0.041302  2.391878
H    0.346168  -2.328957  1.164801
H    -1.335978  -2.088005  1.701672
H    -0.036864  -2.356409  2.893616
N    -0.865148  0.523063  1.760278
C    -2.226594  0.470637  1.200633
C    -2.270641  1.849180  0.455662
O    -1.545384  2.745840  0.909884
H    -0.605470  1.547047  1.781856
H    -2.313218  -0.374761  0.504101
C    -3.296364  0.379282  2.323814
C    -4.731731  0.247016  1.785039
C    -5.817099  -0.004405  2.841923
N    -6.149577  1.206653  3.606056
C    -6.989190  1.232191  4.663987
N    -7.206993  2.386811  5.304391
N    -7.573252  0.110243  5.096143
H    -3.192311  1.261111  2.973211
H    -3.059305  -0.500542  2.941977
H    -4.784167  -0.604895  1.090069
H    -5.010668  1.133366  1.194300
H    -5.489602  -0.782578  3.547787
H    -6.713006  -0.376868  2.318655
H    -6.006770  2.095929  3.136262
H    -7.957655  2.483196  5.979671
H    -6.643956  3.210058  5.128033
H    -8.105558  0.099329  5.959934
H    -7.647473  -0.712578  4.510593
N    -3.087764  1.964260  -0.594392
C    -3.218333  3.191234  -1.387401
H    -3.568474  1.135268  -0.931906
H    -4.278820  3.403032  -1.563006
H    -2.712424  3.074562  -2.354029
H    -2.761152  4.016846  -0.836390
Pb    3.269194  0.239624  2.764987
