37
Energy: -611338.299402 eV PBE+vdW (tier 2 basis)
C    -0.149953  0.938922  0.701197
C    -0.144721  -0.233836  1.623239
O    0.952831  -0.956487  1.756307
H    0.628442  1.655508  1.003483
H    -1.111816  1.462296  0.692195
H    0.062295  0.605173  -0.326347
N    -1.222064  -0.545200  2.291748
C    -1.539963  -1.648725  3.211341
C    -3.032090  -1.923120  2.845499
O    -3.714652  -0.918985  2.604676
H    -2.094697  -0.000348  2.132295
H    -0.867829  -2.492087  3.020317
C    -1.422271  -1.143692  4.680839
C    -2.001365  -2.088940  5.757983
C    -3.441710  -1.808831  6.218712
N    -3.497041  -0.663217  7.138976
C    -4.632715  -0.056202  7.547461
N    -4.556200  0.998940  8.366313
N    -5.825280  -0.476018  7.112985
H    -1.913340  -0.161133  4.739458
H    -0.355130  -0.972203  4.875983
H    -1.341889  -2.063156  6.638461
H    -1.961607  -3.134448  5.424976
H    -3.826284  -2.712529  6.718831
H    -4.093828  -1.588645  5.361350
H    -2.688883  -0.530429  7.740820
H    -5.376147  1.359439  8.842401
H    -3.674722  1.455863  8.567437
H    -6.667849  0.053558  7.310839
H    -5.954174  -1.402633  6.727033
N    -3.517584  -3.174001  2.840589
C    -2.822738  -4.457148  2.941570
H    -4.496756  -3.214722  2.553594
H    -3.445987  -5.158498  3.507822
H    -1.870637  -4.353538  3.470049
H    -2.639459  -4.884518  1.946377
Pb    2.942333  -1.240370  0.997301
