37
Energy: -611339.151462 eV PBE+vdW (tier 2 basis)
C    -1.088131  0.828716  0.025921
C    -0.599852  0.375016  1.355494
O    0.649937  0.148788  1.525258
H    -0.250444  1.267113  -0.528636
H    -1.904992  1.552142  0.105415
H    -1.444032  -0.035576  -0.561071
N    -1.429309  0.179746  2.405318
C    -2.695502  -0.579592  2.344399
C    -2.342884  -1.981328  1.758136
O    -1.123942  -2.384411  1.738323
H    -0.926568  0.060617  3.285061
H    -2.940984  -0.771584  3.402025
C    -3.912838  0.145558  1.729845
C    -4.231371  1.485966  2.419953
C    -5.558468  2.087996  1.925099
N    -5.867221  3.324651  2.647647
C    -6.706915  4.294609  2.223536
N    -6.766486  5.447547  2.896806
N    -7.450183  4.122816  1.124575
H    -4.783724  -0.517116  1.857738
H    -3.785176  0.279219  0.646927
H    -3.418376  2.207511  2.253485
H    -4.294228  1.323129  3.508408
H    -6.371293  1.353105  2.056061
H    -5.487429  2.326817  0.853672
H    -5.584634  3.377356  3.622015
H    -7.520952  6.109143  2.745090
H    -6.057608  5.711107  3.571844
H    -7.962970  4.900491  0.721009
H    -7.689395  3.200627  0.781494
N    -3.301427  -2.776498  1.335953
C    -3.102545  -4.153090  0.853659
H    -4.257526  -2.430774  1.365328
H    -2.584326  -4.746311  1.615680
H    -2.516055  -4.149520  -0.072858
H    -4.084372  -4.590983  0.657332
Pb    1.135679  -2.038566  1.894630
