37
Energy: -611339.509446 eV PBE+vdW (tier 2 basis)
C    0.137931  1.147790  0.707720
C    -0.012672  -0.205064  1.313577
O    0.960912  -1.029222  1.239750
H    0.392323  1.028645  -0.356124
H    0.990589  1.662671  1.173544
H    -0.755276  1.774783  0.797375
N    -1.177034  -0.515413  1.903470
C    -1.657034  -1.795132  2.479813
C    -0.840373  -2.188381  3.724790
O    0.330727  -2.705428  3.622348
H    -1.855932  0.242257  1.913537
H    -2.670645  -1.560842  2.827128
C    -1.759349  -2.955333  1.458453
C    -2.732475  -2.691432  0.285896
C    -4.223898  -3.017176  0.506115
N    -4.548933  -4.420180  0.225279
C    -5.688196  -4.864882  -0.350784
N    -5.738129  -6.114471  -0.823892
N    -6.754745  -4.066779  -0.465942
H    -2.044236  -3.857991  2.021528
H    -0.763959  -3.163988  1.045157
H    -2.384746  -3.251048  -0.593344
H    -2.665275  -1.635317  -0.012585
H    -4.810811  -2.404621  -0.190389
H    -4.547623  -2.749035  1.526891
H    -3.893966  -5.136736  0.520966
H    -6.622607  -6.552835  -1.060444
H    -4.898873  -6.646707  -1.023367
H    -7.539312  -4.332471  -1.053183
H    -6.892784  -3.263999  0.135528
N    -1.354170  -2.038071  4.930114
C    -2.657487  -1.491549  5.338220
H    -0.748372  -2.366033  5.686774
H    -2.610990  -1.289806  6.412548
H    -3.460206  -2.218197  5.159431
H    -2.869544  -0.546276  4.827199
Pb    2.171172  -2.530736  2.355902
