37
Energy: -611338.311635 eV PBE+vdW (tier 2 basis)
C    0.393712  0.700792  0.343940
C    0.110958  0.513312  1.794709
O    1.078671  0.598450  2.669188
H    1.159024  -0.017284  0.013499
H    0.785421  1.715232  0.172145
H    -0.494238  0.570586  -0.284396
N    -1.122646  0.262311  2.206296
C    -1.620893  0.103876  3.576164
C    -2.024528  -1.361392  3.964204
O    -2.587487  -1.496506  5.050771
H    -1.827407  0.260055  1.466688
H    -0.781751  0.342939  4.242555
C    -2.763068  1.102052  3.881774
C    -4.115767  0.962208  3.157805
C    -5.027982  -0.219710  3.545125
N    -5.305993  -0.335469  4.976486
C    -6.471674  -0.067710  5.593424
N    -6.694828  -0.567669  6.815088
N    -7.407399  0.692524  5.012295
H    -2.371109  2.111190  3.691819
H    -2.915457  1.040832  4.968411
H    -3.993772  0.930431  2.061663
H    -4.654337  1.902888  3.345034
H    -4.596920  -1.178047  3.225223
H    -5.978162  -0.132942  3.002404
H    -4.583949  -0.806525  5.520539
H    -7.459281  -0.233286  7.391582
H    -6.144959  -1.335115  7.182948
H    -8.345935  0.747478  5.392745
H    -7.205528  1.278950  4.213448
N    -1.712199  -2.369656  3.138140
C    -2.021162  -3.773183  3.444985
H    -1.274175  -2.167897  2.246853
H    -1.304783  -4.415254  2.924026
H    -3.036806  -4.030679  3.118056
H    -1.939344  -3.933777  4.523992
Pb    3.144343  0.999030  3.172570
