37
Energy: -611338.757559 eV PBE+vdW (tier 2 basis)
C    -0.600562  -0.599284  -0.094774
C    -0.419146  0.065332  1.227054
O    0.798143  0.318237  1.671046
H    -0.125611  0.002017  -0.884221
H    -1.655375  -0.735938  -0.354618
H    -0.123366  -1.591197  -0.080380
N    -1.457588  0.393528  1.949347
C    -1.552455  0.992574  3.288608
C    -2.882574  0.404107  3.826603
O    -3.773310  0.177332  2.982731
H    -2.408318  0.139820  1.618810
H    -0.681738  0.683526  3.878499
C    -1.617445  2.548256  3.226704
C    -2.858911  3.175363  2.556340
C    -4.026312  3.456573  3.526487
N    -5.233549  3.931069  2.854317
C    -6.326504  3.195721  2.571712
N    -7.453295  3.818572  2.205199
N    -6.298231  1.860511  2.653602
H    -0.711128  2.883306  2.703861
H    -1.513757  2.915993  4.258758
H    -3.216435  2.557376  1.720280
H    -2.551597  4.130434  2.108766
H    -3.729249  4.230780  4.247787
H    -4.296524  2.575418  4.120773
H    -5.282158  4.920178  2.629597
H    -8.240727  3.306824  1.822986
H    -7.586147  4.812952  2.352065
H    -7.161048  1.330882  2.602103
H    -5.433036  1.325847  2.733385
N    -3.036309  0.224814  5.139903
C    -2.050151  0.393462  6.211318
H    -3.933441  -0.184612  5.401125
H    -2.588390  0.499425  7.158154
H    -1.454874  1.301658  6.068265
H    -1.390187  -0.480923  6.288865
Pb    2.908522  0.071668  1.352050
