37
Energy: -611339.974886 eV PBE+vdW (tier 2 basis)
C    0.621089  -1.639695  1.158441
C    0.303890  -0.626766  2.201246
O    1.119884  0.334053  2.412071
H    1.593534  -2.102272  1.378248
H    0.734247  -1.121992  0.193593
H    -0.140534  -2.420280  1.060270
N    -0.847261  -0.726813  2.883097
C    -1.391039  0.266901  3.825368
C    -0.684636  0.120847  5.194211
O    0.455878  0.680733  5.360009
H    -1.429926  -1.530390  2.658913
H    -1.055076  1.249660  3.461520
C    -2.940878  0.321196  3.768738
C    -3.773153  -0.937238  4.104117
C    -5.181858  -0.967446  3.471921
N    -6.133199  -0.037522  4.086329
C    -7.469884  -0.247369  4.176914
N    -8.207817  0.583987  4.918638
N    -8.047230  -1.281593  3.559722
H    -3.170044  0.631851  2.737345
H    -3.240966  1.164220  4.408439
H    -3.895549  -1.071055  5.190749
H    -3.280274  -1.851423  3.736231
H    -5.581073  -1.980607  3.610169
H    -5.103655  -0.783668  2.386889
H    -5.836098  0.920800  4.241419
H    -7.792284  1.196368  5.611136
H    -9.220587  0.594616  4.848344
H    -9.005357  -1.542816  3.772739
H    -7.629062  -1.728396  2.752414
N    -1.226957  -0.566261  6.176862
C    -0.616356  -0.780032  7.497530
H    -2.129266  -1.002580  6.006205
H    -0.042244  0.104859  7.785810
H    0.045762  -1.655437  7.470082
H    -1.415043  -0.956036  8.223693
Pb    2.102021  1.503597  4.045576
