37
Energy: -611339.465790 eV PBE+vdW (tier 2 basis)
C    0.937164  0.740174  0.544790
C    0.327161  -0.388349  1.301871
O    1.081148  -1.328502  1.727945
H    1.705771  1.221469  1.166569
H    0.213961  1.493589  0.215589
H    1.459397  0.331833  -0.333466
N    -0.998745  -0.384986  1.500415
C    -1.880812  -1.411355  2.107935
C    -1.532816  -1.611343  3.598566
O    -0.582051  -2.391912  3.964363
H    -1.481120  0.424917  1.116481
H    -2.875283  -0.948940  2.077502
C    -1.941319  -2.730673  1.305452
C    -3.103192  -3.664971  1.712785
C    -4.466898  -3.395448  1.038738
N    -4.588840  -3.900472  -0.333852
C    -4.983341  -5.144890  -0.692067
N    -5.032210  -5.466791  -1.987304
N    -5.286454  -6.062208  0.233308
H    -0.990236  -3.270085  1.403709
H    -2.015673  -2.461900  0.241479
H    -3.255864  -3.631874  2.803269
H    -2.807928  -4.700909  1.498195
H    -4.689417  -2.320974  0.986304
H    -5.272416  -3.812603  1.660369
H    -4.592263  -3.211966  -1.078289
H    -5.457688  -6.332656  -2.302682
H    -4.696855  -4.841635  -2.711239
H    -5.550302  -7.003564  -0.040030
H    -5.496286  -5.803539  1.189015
N    -2.237655  -0.994137  4.527287
C    -3.368820  -0.064086  4.377700
H    -1.941788  -1.195901  5.485505
H    -3.101416  0.784462  3.737579
H    -3.612147  0.324961  5.370608
H    -4.255147  -0.579316  3.987000
Pb    1.546383  -2.774419  3.349597
