37
Energy: -611338.816708 eV PBE+vdW (tier 2 basis)
C    0.086975  0.571765  0.131961
C    -0.113402  0.832637  1.580843
O    0.954176  1.075346  2.328064
H    0.524943  1.461815  -0.344405
H    -0.841539  0.318451  -0.386297
H    0.801100  -0.253819  0.001795
N    -1.271609  0.846438  2.178559
C    -2.640194  0.722768  1.643690
C    -3.438594  1.558731  2.693768
O    -3.006344  1.550157  3.853372
H    -1.362630  1.061548  3.201124
H    -2.688091  1.162231  0.638328
C    -3.086318  -0.765152  1.617096
C    -4.508221  -1.010759  1.061609
C    -5.654323  -1.109497  2.090524
N    -5.755522  -2.401058  2.781934
C    -6.625345  -3.389163  2.488313
N    -6.877785  -4.336019  3.399455
N    -7.236722  -3.437744  1.299382
H    -2.979693  -1.174740  2.632995
H    -2.362168  -1.306735  0.992520
H    -4.483884  -1.939653  0.474563
H    -4.771586  -0.224222  0.337922
H    -6.615055  -0.919418  1.593597
H    -5.562378  -0.339577  2.867482
H    -5.236948  -2.512992  3.646526
H    -7.362697  -5.191573  3.150080
H    -6.672855  -4.199427  4.382657
H    -8.019469  -4.063444  1.141381
H    -6.911457  -2.905965  0.502847
N    -4.536117  2.196443  2.270401
C    -5.374887  3.024989  3.142851
H    -4.736690  2.211013  1.274658
H    -5.209724  4.089013  2.932272
H    -5.110881  2.818424  4.183269
H    -6.431034  2.788505  2.971685
Pb    2.846256  1.579723  3.122873
