37
Energy: -611339.371597 eV PBE+vdW (tier 2 basis)
C    2.139287  -1.044161  1.917556
C    1.289317  -0.571827  3.042164
O    1.825526  0.016007  4.041410
H    1.575650  -1.558499  1.132163
H    2.919881  -1.713583  2.306064
H    2.660960  -0.179186  1.480788
N    -0.042100  -0.756795  2.997972
C    -0.939321  -0.222401  4.025735
C    -0.679411  -0.924298  5.386625
O    -0.192387  -0.185301  6.324906
H    -0.427090  -1.205486  2.170452
H    -0.581524  0.797759  4.227747
C    -2.408320  0.009251  3.580904
C    -3.330870  -1.159382  3.201507
C    -4.783938  -0.737425  2.905294
N    -4.943305  -0.012922  1.637637
C    -6.038093  0.721506  1.315770
N    -6.066129  1.369749  0.147312
N    -7.062897  0.832929  2.165064
H    -2.347138  0.728265  2.749167
H    -2.869924  0.566208  4.411041
H    -3.411792  -1.867774  4.035380
H    -2.941305  -1.735873  2.345881
H    -5.141903  -0.085870  3.715744
H    -5.405324  -1.647421  2.905468
H    -4.424672  -0.373678  0.841105
H    -5.234634  1.489460  -0.419299
H    -6.925963  1.769425  -0.215032
H    -7.229838  0.152474  2.896616
H    -7.811626  1.496534  1.990660
N    -0.875039  -2.202765  5.641223
C    -1.291860  -3.317946  4.788588
H    -0.641443  -2.462175  6.604178
H    -0.550484  -4.120837  4.886560
H    -1.350721  -3.017402  3.742324
H    -2.262617  -3.704367  5.122918
Pb    1.801139  0.862285  6.142337
