37
Energy: -611340.102760 eV PBE+vdW (tier 2 basis)
C    0.580209  -1.557948  -0.509479
C    0.000374  -1.197882  0.811549
O    0.777800  -0.942880  1.793958
H    1.240357  -2.429336  -0.393748
H    1.217396  -0.727738  -0.850558
H    -0.174023  -1.769631  -1.274552
N    -1.332309  -1.127537  0.950308
C    -2.039183  -0.659176  2.152941
C    -1.902125  -1.713639  3.281046
O    -1.021811  -1.494199  4.193029
H    -1.889022  -1.323159  0.119885
H    -1.478473  0.205320  2.539515
C    -3.452102  -0.161356  1.778631
C    -4.254573  0.444989  2.944165
C    -5.580909  1.046078  2.443448
N    -6.342257  1.645640  3.541760
C    -7.294804  2.595175  3.405905
N    -7.781208  3.193663  4.497613
N    -7.730773  2.957273  2.194778
H    -4.030158  -0.963013  1.298427
H    -3.296477  0.610571  1.008623
H    -3.668924  1.234393  3.439056
H    -4.465990  -0.325155  3.704202
H    -6.177474  0.266146  1.939831
H    -5.369148  1.836029  1.708081
H    -6.286327  1.200187  4.452664
H    -8.629501  3.749650  4.460543
H    -7.308464  3.142231  5.392815
H    -8.322001  3.774717  2.080505
H    -7.648688  2.346204  1.391432
N    -2.613764  -2.821740  3.351261
C    -3.642431  -3.356540  2.450686
H    -2.388184  -3.403137  4.162346
H    -4.628663  -2.938122  2.687247
H    -3.684039  -4.440023  2.599955
H    -3.388580  -3.168784  1.403504
Pb    1.154251  -0.902267  3.998631
