37
Energy: -611340.235030 eV PBE+vdW (tier 2 basis)
C    -1.166780  0.610432  0.592405
C    -0.574551  0.409659  1.942985
O    0.513640  1.007910  2.247931
H    -0.440286  0.309756  -0.175820
H    -1.344624  1.686606  0.446023
H    -2.103875  0.065114  0.439173
N    -1.208897  -0.375702  2.825299
C    -0.848994  -0.581569  4.240444
C    0.312091  -1.601729  4.331131
O    1.504225  -1.208957  4.071719
H    -2.052497  -0.836968  2.490312
H    -0.417106  0.366353  4.598400
C    -2.096110  -0.885503  5.098378
C    -3.057623  0.319406  5.210945
C    -4.059820  0.278173  6.380889
N    -5.243382  -0.554789  6.141665
C    -6.464227  -0.329173  6.681854
N    -7.513477  -1.031101  6.240224
N    -6.633724  0.596935  7.629485
H    -1.736579  -1.148932  6.104792
H    -2.620662  -1.773446  4.703918
H    -3.604479  0.487846  4.271738
H    -2.453826  1.224358  5.377455
H    -4.417229  1.304782  6.535032
H    -3.545442  -0.034826  7.305302
H    -5.119225  -1.464310  5.709797
H    -8.391509  -1.041452  6.749405
H    -7.496455  -1.517328  5.351301
H    -7.565083  0.895468  7.902579
H    -5.868815  0.919357  8.210108
N    0.079833  -2.852131  4.667517
C    1.084902  -3.918722  4.775259
H    -0.881508  -3.113531  4.876130
H    2.084292  -3.479791  4.798553
H    0.995286  -4.597666  3.917288
H    0.902399  -4.480561  5.697851
Pb    2.520116  0.577033  3.141531
