37
Energy: -611340.300733 eV PBE+vdW (tier 2 basis)
C    -4.489934  2.143717  4.833218
C    -3.500305  1.417639  3.992740
O    -3.409337  1.694327  2.746405
H    -4.498181  1.819051  5.878971
H    -5.494753  2.026308  4.403790
H    -4.257963  3.219276  4.791766
N    -2.701286  0.505294  4.562400
C    -1.560008  -0.189346  3.933039
C    -2.100708  -1.330841  3.040080
O    -2.476624  -1.064554  1.844772
H    -2.846477  0.341512  5.557690
H    -1.090031  0.523957  3.238373
C    -0.533933  -0.560456  5.024184
C    0.832733  -1.048104  4.507053
C    1.836164  -1.207685  5.664723
N    3.150754  -1.625792  5.172226
C    4.109237  -2.224429  5.914599
N    3.962594  -2.362853  7.236714
N    5.197349  -2.708679  5.308400
H    -0.966084  -1.295529  5.725800
H    -0.382208  0.354055  5.618566
H    1.227575  -0.313138  3.787097
H    0.740939  -2.004818  3.971727
H    1.477370  -1.974831  6.366667
H    1.915042  -0.254824  6.215462
H    3.449957  -1.263031  4.271892
H    4.601291  -2.945397  7.769260
H    3.357049  -1.754152  7.773724
H    5.233898  -2.850312  4.305339
H    6.023075  -2.971013  5.837050
N    -2.190365  -2.556286  3.512188
C    -2.742313  -3.713926  2.794211
H    -1.880547  -2.714856  4.468829
H    -2.671552  -3.544642  1.717229
H    -3.792162  -3.863702  3.079081
H    -2.167661  -4.603714  3.070283
Pb    -3.223595  0.759774  0.732454
