37
Energy: -611338.309784 eV PBE+vdW (tier 2 basis)
C    0.231410  1.359799  0.408389
C    0.017814  0.588317  1.657725
O    1.005836  0.498356  2.525140
H    0.340512  2.427180  0.649043
H    -0.588050  1.250592  -0.306699
H    1.158758  1.012931  -0.069998
N    -1.076188  -0.094514  1.927072
C    -2.415303  0.151584  1.351913
C    -2.630961  1.711664  1.387275
O    -2.017369  2.362386  2.232502
H    -1.069673  -0.583424  2.824395
H    -2.428197  -0.231933  0.322322
C    -3.425058  -0.607565  2.253944
C    -4.923898  -0.456850  1.928343
C    -5.526375  -1.402247  0.877537
N    -5.837963  -2.715395  1.462976
C    -6.340353  -3.767517  0.781440
N    -6.560986  -4.921489  1.420219
N    -6.579641  -3.675214  -0.531642
H    -3.271661  -0.230524  3.277041
H    -3.145166  -1.673259  2.256937
H    -5.146365  0.574428  1.630315
H    -5.484555  -0.582946  2.867052
H    -4.840879  -1.553841  0.029292
H    -6.446975  -0.937310  0.488220
H    -5.975828  -2.735636  2.469540
H    -7.100253  -5.667523  0.993911
H    -6.229285  -5.082631  2.363965
H    -6.695314  -2.778571  -0.987157
H    -6.857066  -4.491387  -1.066995
N    -3.471437  2.270163  0.493968
C    -4.171702  1.703457  -0.654708
H    -3.591503  3.272524  0.644375
H    -3.992866  2.333832  -1.534308
H    -5.255621  1.661329  -0.481113
H    -3.807258  0.697848  -0.885506
Pb    2.745305  1.157445  3.556749
