37
Energy: -611338.239005 eV PBE+vdW (tier 2 basis)
C    -0.893171  2.016200  0.079680
C    -0.371804  1.014851  1.043947
O    0.885045  1.046025  1.411423
H    -1.153342  2.934983  0.632672
H    -1.804201  1.688883  -0.432214
H    -0.128653  2.271518  -0.662542
N    -1.139770  0.091284  1.600453
C    -2.584245  -0.120806  1.379568
C    -3.459049  1.035620  1.985837
O    -4.264617  1.571138  1.232877
H    -0.682250  -0.513582  2.287305
H    -2.767511  -0.040230  0.302591
C    -3.000938  -1.520430  1.884454
C    -4.521632  -1.728298  2.040478
C    -5.395878  -1.799063  0.779577
N    -5.334112  -3.124153  0.143336
C    -6.027595  -3.466946  -0.964052
N    -5.922173  -4.708241  -1.451880
N    -6.785173  -2.563909  -1.595245
H    -2.555134  -1.688452  2.879169
H    -2.562933  -2.277035  1.216196
H    -4.935991  -0.927785  2.668374
H    -4.674555  -2.644711  2.630885
H    -5.105823  -1.034031  0.044107
H    -6.431037  -1.581326  1.089113
H    -5.045210  -3.896266  0.737187
H    -6.548187  -5.048050  -2.173887
H    -5.244197  -5.368531  -1.090636
H    -7.232965  -2.784973  -2.478281
H    -7.079007  -1.707209  -1.142555
N    -3.274891  1.351436  3.282482
C    -4.104546  2.346355  3.973344
H    -2.686086  0.755706  3.856930
H    -3.523519  2.791086  4.787232
H    -5.010871  1.886327  4.388796
H    -4.399113  3.120724  3.258785
Pb    2.936020  1.702317  1.450950
