37
Energy: -611339.002283 eV PBE+vdW (tier 2 basis)
C    0.022171  -0.002039  0.405391
C    -0.520396  -0.103033  1.780635
O    0.142487  -0.726064  2.686228
H    1.000100  0.500379  0.399316
H    -0.660853  0.470725  -0.306027
H    0.219840  -1.033346  0.065262
N    -1.726566  0.410624  2.116616
C    -2.118186  1.789062  1.811509
C    -1.454495  2.671028  2.915856
O    -0.679248  2.152363  3.796207
H    -2.062317  0.073820  3.019816
H    -1.616936  2.067856  0.871791
C    -3.639911  1.954342  1.577959
C    -4.566910  1.623788  2.760132
C    -6.039497  1.384053  2.379398
N    -6.738590  2.597211  1.935533
C    -7.903363  2.589840  1.239693
N    -8.431862  3.751173  0.842071
N    -8.502372  1.440139  0.917673
H    -3.874461  1.300276  0.724976
H    -3.826305  2.975743  1.213224
H    -4.502839  2.396855  3.542699
H    -4.255569  0.684734  3.243565
H    -6.550862  0.945984  3.251745
H    -6.083224  0.651383  1.560624
H    -6.570389  3.441326  2.476663
H    -9.383843  3.806465  0.494262
H    -7.904062  4.615800  0.863115
H    -9.283725  1.426414  0.269156
H    -8.332148  0.584432  1.432491
N    -1.666949  3.970550  2.904789
C    -1.047841  4.937842  3.824349
H    -2.258416  4.347841  2.167326
H    -1.593199  5.882264  3.748916
H    0.000956  5.106811  3.548075
H    -1.102174  4.563668  4.851467
Pb    0.676324  0.443864  4.547623
