37
Energy: -611338.924400 eV PBE+vdW (tier 2 basis)
C    0.473941  0.035986  0.878291
C    -0.187004  -0.000122  2.209957
O    0.525366  -0.150958  3.265509
H    1.536016  0.268252  1.015641
H    0.014960  0.768209  0.207109
H    0.418539  -0.958264  0.402594
N    -1.524904  0.111832  2.361342
C    -2.532550  -0.620252  1.571410
C    -2.213788  -2.134343  1.754870
O    -1.408790  -2.524463  2.673567
H    -1.802933  0.278044  3.329019
H    -3.470776  -0.458708  2.127274
C    -2.774351  -0.074604  0.134679
C    -4.219463  -0.278687  -0.385474
C    -4.746954  0.804266  -1.347932
N    -4.259702  0.686224  -2.725762
C    -4.942675  1.103656  -3.818741
N    -4.490902  0.775565  -5.033869
N    -6.066125  1.814872  -3.694701
H    -2.034109  -0.485719  -0.565580
H    -2.581607  1.005465  0.207193
H    -4.913114  -0.261185  0.468873
H    -4.351817  -1.259039  -0.871210
H    -4.519832  1.802846  -0.937517
H    -5.839674  0.701714  -1.382969
H    -3.277752  0.480422  -2.877435
H    -4.849745  1.227979  -5.868689
H    -3.833492  0.017094  -5.173271
H    -6.674304  1.968133  -4.493380
H    -6.280301  2.344073  -2.857849
N    -2.820064  -3.022255  0.995276
C    -2.675926  -4.480972  1.129322
H    -3.469410  -2.679946  0.291284
H    -3.332015  -4.958548  0.397434
H    -2.966417  -4.796794  2.138094
H    -1.639001  -4.779227  0.935562
Pb    0.137909  -2.110565  4.332560
