37
Energy: -611340.165522 eV PBE+vdW (tier 2 basis)
C    -1.833288  2.097083  0.396803
C    -1.945796  0.828586  1.165481
O    -2.607681  -0.149308  0.673450
H    -1.249622  2.869114  0.908938
H    -2.838228  2.483233  0.175234
H    -1.364716  1.874853  -0.574250
N    -1.328148  0.723279  2.350759
C    -1.199920  -0.497997  3.168295
C    -2.529791  -0.745114  3.919309
O    -3.473497  -1.373784  3.324512
H    -0.828909  1.551182  2.672104
H    -1.106859  -1.343829  2.469723
C    0.098351  -0.433638  4.003880
C    0.429350  -1.746160  4.747553
C    1.919826  -1.991333  5.050427
N    2.463327  -1.185289  6.148932
C    3.480184  -1.573586  6.956253
N    4.160644  -2.696632  6.712781
N    3.784294  -0.828450  8.024110
H    0.068439  0.428429  4.693024
H    0.901479  -0.211442  3.283775
H    0.127077  -2.594293  4.114145
H    -0.151401  -1.840316  5.676443
H    2.514967  -1.846184  4.132873
H    2.017358  -3.044527  5.344733
H    2.255364  -0.192145  6.166056
H    4.793118  -3.081281  7.407965
H    4.196112  -3.115823  5.791353
H    3.138449  -0.145139  8.401896
H    4.651458  -0.967098  8.533225
N    -2.692230  -0.298392  5.146774
C    -3.918399  -0.416842  5.948101
H    -1.911938  0.196396  5.573166
H    -4.522092  -1.246074  5.572188
H    -4.492899  0.517215  5.891956
H    -3.639661  -0.603073  6.990230
Pb    -4.089720  -1.739617  1.176800
