37
Energy: -611338.594483 eV PBE+vdW (tier 2 basis)
C    0.933637  0.433324  -0.177850
C    0.522514  0.488503  1.245636
O    1.408114  0.829111  2.113283
H    1.259493  1.433831  -0.497944
H    0.146586  0.070341  -0.845949
H    1.816906  -0.217103  -0.262848
N    -0.737411  0.197752  1.595373
C    -1.309180  -0.059178  2.941810
C    -1.168417  1.143015  3.890682
O    -2.266151  1.515297  4.532254
H    -1.368214  0.025795  0.816962
H    -2.384840  -0.187447  2.769830
C    -0.719236  -1.334798  3.607488
C    -0.906091  -2.661258  2.839221
C    -2.233703  -3.390717  3.122291
N    -2.376511  -4.647995  2.381427
C    -2.241076  -5.897734  2.870717
N    -1.603688  -6.119390  4.027401
N    -2.760633  -6.926243  2.193803
H    -1.164418  -1.411471  4.612056
H    0.354141  -1.169359  3.771680
H    -0.071278  -3.321814  3.113511
H    -0.796826  -2.501203  1.755755
H    -3.097981  -2.764607  2.855902
H    -2.337465  -3.611272  4.193793
H    -2.699218  -4.584634  1.420974
H    -1.649551  -7.027664  4.477312
H    -0.934458  -5.460395  4.402720
H    -3.469758  -6.795650  1.480779
H    -2.487431  -7.882756  2.394945
N    -0.010265  1.695192  4.044187
C    0.158771  2.808223  4.930381
H    0.960816  1.154860  3.021742
H    1.196396  3.168333  4.936797
H    -0.059296  2.534954  5.993659
H    -0.447124  3.695349  4.609139
Pb    -2.658767  3.131387  5.920734
