37
Energy: -611340.286341 eV PBE+vdW (tier 2 basis)
C    1.309681  0.975631  0.845997
C    0.991220  1.196831  2.282183
O    1.142086  2.362695  2.788459
H    1.151840  -0.056766  0.516904
H    2.351018  1.268042  0.650624
H    0.679717  1.647120  0.242533
N    0.525557  0.175876  3.013977
C    0.012843  0.239227  4.397479
C    1.214237  0.307675  5.370102
O    1.744096  1.444424  5.630635
H    0.444284  -0.719729  2.534476
H    -0.504777  1.204573  4.507932
C    -1.009579  -0.896830  4.609560
C    -1.845473  -0.800717  5.900011
C    -2.858797  -1.961074  5.991419
N    -3.640695  -1.944913  7.231839
C    -4.987590  -2.003562  7.343218
N    -5.527747  -2.496806  8.460837
N    -5.783640  -1.565664  6.361156
H    -0.509877  -1.879926  4.547298
H    -1.686206  -0.863514  3.741308
H    -2.382752  0.159018  5.929728
H    -1.194321  -0.821791  6.787943
H    -2.332975  -2.927221  5.930480
H    -3.552332  -1.940826  5.141432
H    -3.131909  -2.154815  8.086208
H    -6.504820  -2.340979  8.688735
H    -5.001422  -3.086108  9.096852
H    -6.778475  -1.766001  6.371720
H    -5.458681  -0.915738  5.657490
N    1.698071  -0.793566  5.904385
C    2.872270  -0.875024  6.784469
H    1.243212  -1.671882  5.663511
H    3.014019  0.079721  7.296631
H    3.766112  -1.116106  6.193847
H    2.705322  -1.670074  7.517853
Pb    1.921481  3.438802  4.577770
