37
Energy: -611339.057568 eV PBE+vdW (tier 2 basis)
C    0.384367  1.773561  -0.108069
C    0.180325  0.729004  0.923664
O    1.191013  0.146191  1.453842
H    1.004495  1.324559  -0.902646
H    0.978884  2.609088  0.289011
H    -0.544019  2.139000  -0.555410
N    -1.056709  0.336757  1.312444
C    -2.106110  1.271367  1.734177
C    -1.623086  1.878402  3.082253
O    -0.653356  1.324946  3.724280
H    -1.046130  -0.523745  1.863645
H    -2.169172  2.082906  0.994256
C    -3.472999  0.547944  1.832564
C    -3.979154  0.069876  0.457019
C    -5.174761  -0.901387  0.471513
N    -6.478130  -0.249766  0.643961
C    -7.643351  -0.706109  0.130490
N    -8.723882  0.082327  0.157982
N    -7.720508  -1.922156  -0.417527
H    -4.189255  1.231371  2.309636
H    -3.368433  -0.305890  2.522581
H    -3.164414  -0.469493  -0.048209
H    -4.216602  0.931123  -0.185991
H    -5.025416  -1.676375  1.242286
H    -5.196208  -1.405891  -0.503383
H    -6.561231  0.504120  1.317360
H    -9.651014  -0.289188  -0.022425
H    -8.650292  1.085676  0.278933
H    -7.059108  -2.655942  -0.194468
H    -8.530993  -2.194435  -0.965104
N    -2.180619  2.961422  3.584269
C    -3.261051  3.794684  3.047556
H    -1.794304  3.259816  4.483648
H    -2.990245  4.846749  3.192119
H    -4.194298  3.596629  3.590519
H    -3.404656  3.615850  1.978505
Pb    1.379574  0.263290  3.715150
