37
Energy: -611338.537055 eV PBE+vdW (tier 2 basis)
C    -0.521435  -0.790436  0.052710
C    -0.268656  -0.233163  1.412286
O    0.940736  -0.227168  1.907988
H    -0.185057  -1.837174  0.007793
H    0.049535  -0.217590  -0.694005
H    -1.578483  -0.758885  -0.233209
N    -1.271860  0.254949  2.123587
C    -1.248650  0.882241  3.455270
C    -2.197928  0.154175  4.475663
O    -2.716752  0.822100  5.372399
H    -2.178662  0.238363  1.653301
H    -0.224731  0.771594  3.837449
C    -1.597622  2.381647  3.389117
C    -3.043273  2.721221  2.951918
C    -3.676930  3.871694  3.744139
N    -3.907970  3.476260  5.134721
C    -4.568052  4.207151  6.049107
N    -4.772436  3.693364  7.270262
N    -5.020022  5.430026  5.755091
H    -0.870874  2.884178  2.736666
H    -1.403093  2.756795  4.402978
H    -3.707542  1.847368  3.044774
H    -3.062782  3.012862  1.893744
H    -4.635003  4.138960  3.271233
H    -3.022555  4.759736  3.704248
H    -3.540866  2.560759  5.417214
H    -5.225018  4.227055  8.003813
H    -4.506682  2.741900  7.492946
H    -5.564930  5.965902  6.421553
H    -4.831693  5.873362  4.865473
N    -2.379327  -1.167686  4.333136
C    -3.192546  -1.959343  5.263788
H    -1.847407  -1.670740  3.632047
H    -3.457364  -2.904656  4.781732
H    -4.104425  -1.406120  5.509528
H    -2.640998  -2.163179  6.190582
Pb    3.058303  -0.614541  1.595856
