37
Energy: -611340.027009 eV PBE+vdW (tier 2 basis)
C    2.495526  -0.093383  2.118421
C    1.146014  -0.398450  2.667044
O    0.644063  0.365379  3.561617
H    2.469219  0.912235  1.671256
H    2.835953  -0.812981  1.366516
H    3.226017  -0.048040  2.938184
N    0.470780  -1.454007  2.190173
C    -0.923847  -1.820660  2.491678
C    -0.975116  -2.590912  3.834001
O    -0.777932  -1.941962  4.921016
H    0.962529  -2.023941  1.505890
H    -1.449407  -0.878844  2.713549
C    -1.642901  -2.434019  1.260616
C    -0.926091  -3.535019  0.450888
C    -1.805611  -4.233916  -0.605133
N    -2.132624  -3.369198  -1.745720
C    -3.112989  -3.633410  -2.645924
N    -3.365177  -2.745783  -3.611901
N    -3.847328  -4.745573  -2.551245
H    -1.875984  -1.593260  0.592427
H    -2.621154  -2.798049  1.611143
H    -0.542508  -4.342536  1.094589
H    -0.033023  -3.133971  -0.057512
H    -2.750479  -4.556600  -0.143569
H    -1.270857  -5.135063  -0.946631
H    -1.389905  -2.764641  -2.087090
H    -3.943786  -2.985056  -4.411029
H    -2.995957  -1.802345  -3.583625
H    -3.511203  -5.570083  -2.067954
H    -4.673364  -4.871044  -3.128761
N    -1.229487  -3.881710  3.870143
C    -1.308356  -4.713891  5.078483
H    -1.388162  -4.353042  2.983489
H    -2.214975  -5.327049  5.026616
H    -1.342459  -4.073835  5.962005
H    -0.430748  -5.371120  5.130275
Pb    -0.293260  0.164918  5.581014
