37
Energy: -611340.162472 eV PBE+vdW (tier 2 basis)
C    -0.753872  -0.413467  0.532023
C    -0.481293  -0.276523  1.988658
O    0.601987  0.283774  2.374156
H    -0.765222  0.593425  0.086737
H    -1.701097  -0.915282  0.308855
H    0.071425  -0.955781  0.050147
N    -1.391024  -0.717290  2.869005
C    -1.384380  -0.500028  4.325525
C    -0.476077  -1.545719  5.010993
O    0.791731  -1.472382  4.842987
H    -2.213826  -1.165784  2.473075
H    -0.851119  0.449847  4.490941
C    -2.813096  -0.273688  4.881494
C    -3.953725  -1.248729  4.515739
C    -5.263643  -0.803699  5.197916
N    -6.392154  -1.654855  4.816670
C    -7.694080  -1.285598  4.850356
N    -8.612910  -2.088965  4.307053
N    -8.060315  -0.119112  5.391145
H    -3.104561  0.731810  4.543862
H    -2.720189  -0.191089  5.975589
H    -3.726914  -2.287621  4.808664
H    -4.128456  -1.265946  3.428345
H    -5.497441  0.225362  4.888745
H    -5.128681  -0.803174  6.292890
H    -6.219379  -2.650666  4.714960
H    -8.361764  -2.838773  3.672602
H    -9.602587  -1.960736  4.493082
H    -9.006126  0.230985  5.272478
H    -7.491585  0.352253  6.084229
N    -0.970504  -2.490752  5.781410
C    -0.162489  -3.498673  6.487316
H    -1.976965  -2.520196  5.914006
H    -0.825150  -4.079313  7.133640
H    0.602250  -3.003918  7.096827
H    0.323788  -4.166505  5.766135
Pb    2.282437  -0.136190  3.784743
