37
Energy: -611340.224886 eV PBE+vdW (tier 2 basis)
C    2.343477  1.653195  2.278470
C    1.543276  0.410576  2.461457
O    2.109432  -0.624878  2.959776
H    2.766199  1.961518  3.245325
H    1.775109  2.484672  1.848877
H    3.198741  1.424722  1.624429
N    0.259883  0.411938  2.083316
C    -0.733812  -0.689201  2.010294
C    -1.098437  -1.211184  3.415363
O    -0.318998  -1.980974  4.079643
H    -0.067368  1.300158  1.707708
H    -1.631819  -0.192280  1.617867
C    -0.351945  -1.792069  0.994700
C    -1.556542  -2.633204  0.529034
C    -1.195313  -3.539396  -0.662352
N    -2.358259  -4.308991  -1.110957
C    -2.569334  -4.762356  -2.366449
N    -3.767201  -5.260733  -2.687539
N    -1.605226  -4.692051  -3.291017
H    0.438030  -2.439066  1.402556
H    0.090441  -1.273364  0.131501
H    -2.377896  -1.967189  0.222334
H    -1.935161  -3.250879  1.359600
H    -0.367400  -4.215408  -0.389736
H    -0.858867  -2.916463  -1.503476
H    -2.986856  -4.667836  -0.398455
H    -3.902911  -5.803664  -3.534303
H    -4.588025  -5.093111  -2.116687
H    -1.811910  -4.876479  -4.267802
H    -0.625458  -4.649675  -3.038686
N    -2.270550  -0.863570  3.910116
C    -2.800510  -1.249782  5.223528
H    -2.858004  -0.249478  3.348061
H    -2.648799  -0.431558  5.940292
H    -2.294093  -2.151526  5.575033
H    -3.874736  -1.438222  5.124904
Pb    1.884842  -2.261192  4.432273
