37
Energy: -611338.649248 eV PBE+vdW (tier 2 basis)
C    0.528249  -0.999389  0.911988
C    -0.007984  0.220808  1.581222
O    0.273532  1.412745  1.095693
H    1.628855  -0.974891  0.920512
H    0.188187  -1.031190  -0.134203
H    0.209369  -1.925826  1.401419
N    -0.755200  0.109593  2.651569
C    -1.388314  1.119621  3.521449
C    -1.193525  0.514400  4.943634
O    -1.639573  -0.626642  5.120205
H    -0.945768  -0.842343  2.993409
H    -0.880468  2.082286  3.382430
C    -2.896729  1.203156  3.168670
C    -3.790998  2.056519  4.086789
C    -4.123058  1.511505  5.490992
N    -4.651666  0.144753  5.525856
C    -5.920192  -0.213102  5.802111
N    -6.177377  -1.467258  6.194068
N    -6.927735  0.658613  5.680212
H    -3.287132  0.175780  3.123058
H    -2.969601  1.605295  2.148260
H    -4.729756  2.208815  3.533954
H    -3.364961  3.062845  4.221277
H    -4.846806  2.183452  5.970208
H    -3.241485  1.528221  6.143576
H    -3.954320  -0.597494  5.523028
H    -7.125279  -1.826703  6.225381
H    -5.447545  -2.071061  6.553914
H    -7.845039  0.454446  6.061618
H    -6.824798  1.533927  5.184162
N    -0.563491  1.265097  5.853859
C    -0.319146  0.832324  7.233743
H    -0.247248  2.192969  5.589095
H    0.726297  1.026222  7.497226
H    -0.521542  -0.239443  7.307013
H    -0.968070  1.379729  7.929549
Pb    1.352538  2.471484  -0.436918
