37
Energy: -611340.234459 eV PBE+vdW (tier 2 basis)
C    0.236395  0.064696  -0.297915
C    0.274679  0.588147  1.094180
O    0.507023  1.830156  1.293900
H    0.025837  -1.008287  -0.356775
H    1.192586  0.277923  -0.796600
H    -0.534918  0.616136  -0.856997
N    0.038592  -0.247848  2.115148
C    -0.101188  0.118662  3.537585
C    1.308171  0.363960  4.130972
O    1.841922  1.522030  4.009598
H    -0.122900  -1.223479  1.869753
H    -0.600680  1.099119  3.571154
C    -0.999279  -0.911544  4.257916
C    -1.411799  -0.489449  5.681924
C    -2.200410  -1.540012  6.488729
N    -3.617935  -1.634027  6.124806
C    -4.616526  -1.962897  6.977150
N    -5.885652  -1.807685  6.585750
N    -4.348874  -2.415941  8.205416
H    -0.510993  -1.901828  4.278072
H    -1.887730  -1.036899  3.619578
H    -1.989342  0.446606  5.648953
H    -0.512519  -0.271191  6.277157
H    -2.158114  -1.239702  7.543744
H    -1.714603  -2.527197  6.406216
H    -3.868096  -1.629139  5.141548
H    -6.650841  -2.232141  7.100133
H    -6.135911  -1.216235  5.801825
H    -5.084517  -2.491153  8.901306
H    -3.464415  -2.852300  8.436593
N    1.954900  -0.611465  4.732807
C    3.314897  -0.529170  5.284354
H    1.486721  -1.512641  4.804331
H    3.353996  -1.115688  6.207909
H    3.562128  0.513712  5.495735
H    4.034019  -0.944800  4.566144
Pb    1.669377  3.251572  2.563901
