37
Energy: -611338.371442 eV PBE+vdW (tier 2 basis)
C    -3.037391  -0.770733  0.484966
C    -1.796366  0.051104  0.508388
O    -1.525042  0.874997  -0.473198
H    -2.808267  -1.774414  0.088867
H    -3.785680  -0.312467  -0.169331
H    -3.474742  -0.902294  1.482074
N    -0.918569  -0.021322  1.495827
C    -1.027931  -0.879219  2.687822
C    -1.983773  -0.292220  3.794761
O    -2.841775  -1.067214  4.205986
H    -0.109379  0.599389  1.425362
H    -1.550367  -1.790911  2.379545
C    0.358419  -1.281099  3.237814
C    0.236169  -2.240991  4.436154
C    1.601908  -2.723491  4.945733
N    1.419096  -3.605309  6.102976
C    2.313518  -4.501573  6.562105
N    1.940154  -5.385271  7.494502
N    3.560231  -4.530872  6.075773
H    0.933292  -0.388689  3.528566
H    0.913375  -1.770152  2.422252
H    -0.373267  -3.112831  4.155822
H    -0.295372  -1.737449  5.258381
H    2.231072  -1.859097  5.218249
H    2.122243  -3.290688  4.159822
H    0.597037  -3.452919  6.679741
H    0.964015  -5.557409  7.705990
H    2.623287  -5.926785  8.013049
H    4.189074  -5.292625  6.306984
H    3.971067  -3.726690  5.618566
N    -1.819448  0.960809  4.265388
C    -0.870688  1.999170  3.877951
H    -2.506766  1.208502  4.976411
H    -0.842649  2.748744  4.675270
H    -1.170194  2.514330  2.953372
H    0.149611  1.609843  3.776781
Pb    -1.835055  1.807317  -2.391830
