37
Energy: -611340.428532 eV PBE+vdW (tier 2 basis)
C    2.351408  1.550824  2.452942
C    1.152124  1.647308  1.576370
O    1.176347  1.111940  0.415140
H    3.215885  1.998230  1.941993
H    2.594523  0.487413  2.597867
H    2.220489  2.028856  3.429392
N    0.057905  2.272937  2.032575
C    -1.252348  2.366639  1.361461
C    -1.185125  3.463449  0.269626
O    -0.639023  3.187402  -0.857158
H    0.135778  2.701883  2.953194
H    -1.399962  1.424612  0.810675
C    -2.391345  2.521085  2.389410
C    -2.655524  1.262308  3.240749
C    -3.827755  1.478982  4.214973
N    -4.090435  0.271150  5.001058
C    -5.262145  -0.033551  5.601773
N    -5.431802  -1.252513  6.122938
N    -6.256173  0.859773  5.652724
H    -3.305892  2.767372  1.829154
H    -2.185013  3.379262  3.053124
H    -1.753284  0.990927  3.811833
H    -2.887926  0.412068  2.582136
H    -4.739092  1.717096  3.647037
H    -3.609063  2.332252  4.879701
H    -3.293913  -0.300754  5.265347
H    -6.197058  -1.452317  6.758950
H    -4.822703  -2.026931  5.884549
H    -7.184587  0.583379  5.956683
H    -6.084353  1.855106  5.581403
N    -1.675129  4.662607  0.498254
C    -1.656115  5.797239  -0.435341
H    -2.110977  4.829598  1.403285
H    -1.388136  5.446241  -1.433625
H    -0.927192  6.542809  -0.092027
H    -2.652245  6.253237  -0.454474
Pb    0.706857  1.601085  -1.718692
