37
Energy: -611340.292429 eV PBE+vdW (tier 2 basis)
C    -1.005283  0.144814  -0.098162
C    -1.658357  -0.314612  1.158154
O    -2.634957  -1.138060  1.094824
H    -0.636247  -0.737585  -0.642520
H    -0.176001  0.840345  0.068016
H    -1.753303  0.618991  -0.749217
N    -1.191433  0.124351  2.335068
C    -1.622687  -0.308922  3.677672
C    -2.949299  0.405751  4.037196
O    -4.048270  -0.034831  3.544932
H    -0.435899  0.806139  2.293011
H    -1.883134  -1.376256  3.603303
C    -0.481558  -0.144646  4.702009
C    0.708277  -1.105885  4.500223
C    1.816435  -0.853577  5.543752
N    3.008496  -1.678547  5.321855
C    3.636461  -2.462974  6.226935
N    2.978050  -2.983050  7.269238
N    4.935460  -2.730087  6.066811
H    -0.911374  -0.311946  5.701262
H    -0.114951  0.897342  4.688100
H    1.134299  -0.982690  3.492333
H    0.365231  -2.149044  4.568031
H    1.447471  -1.038247  6.560437
H    2.123675  0.204112  5.518579
H    3.554558  -1.462047  4.492523
H    3.481329  -3.426828  8.030557
H    1.971476  -3.082898  7.271117
H    5.533550  -2.157249  5.481142
H    5.383866  -3.491064  6.567439
N    -2.946813  1.454279  4.831186
C    -4.122893  2.239007  5.230997
H    -2.051165  1.759154  5.207673
H    -4.057248  2.445475  6.304791
H    -5.032149  1.674518  5.015010
H    -4.134417  3.190418  4.683248
Pb    -4.711195  -1.405651  1.886477
