37
Energy: -611340.078339 eV PBE+vdW (tier 2 basis)
C    1.286577  -1.815711  1.950911
C    0.697288  -0.447343  1.971149
O    1.476217  0.563321  2.074198
H    0.541732  -2.616697  1.899250
H    1.901906  -1.948304  2.853023
H    1.971088  -1.903617  1.094602
N    -0.633568  -0.322270  1.895085
C    -1.500888  0.877992  1.990712
C    -1.285614  1.839439  0.804813
O    -0.246318  2.582738  0.704898
H    -1.134496  -1.203324  1.799717
H    -2.514222  0.468576  1.875485
C    -1.460562  1.592977  3.365224
C    -1.966477  0.688264  4.506573
C    -1.947145  1.300455  5.921404
N    -3.116042  2.133437  6.224134
C    -3.697113  2.245563  7.440271
N    -4.897185  2.827539  7.540735
N    -3.096072  1.766620  8.533721
H    -2.080911  2.497560  3.265465
H    -0.440343  1.938516  3.586092
H    -1.331089  -0.207663  4.556119
H    -2.984410  0.329041  4.289454
H    -1.015523  1.868265  6.082884
H    -1.952360  0.469389  6.638416
H    -3.453163  2.775657  5.514851
H    -5.509673  2.933150  6.740253
H    -5.266491  3.120113  8.439800
H    -3.603297  1.681858  9.409195
H    -2.094625  1.621231  8.576342
N    -2.241914  1.912283  -0.099826
C    -2.247307  2.781591  -1.282832
H    -3.050736  1.303163  0.013655
H    -1.539113  3.601024  -1.142300
H    -3.258565  3.180511  -1.416943
H    -1.974690  2.198047  -2.172340
Pb    1.934107  2.561607  1.212806
