37
Energy: -611338.488011 eV PBE+vdW (tier 2 basis)
C    0.434641  1.270387  1.602541
C    -0.103442  0.576826  2.795992
O    0.597376  0.586072  3.914366
H    -0.167089  1.090429  0.706923
H    1.456415  0.912277  1.410132
H    0.496055  2.350303  1.807063
N    -1.252078  -0.069505  2.837570
C    -2.339723  -0.226088  1.822273
C    -1.836786  -1.049298  0.594079
O    -1.393435  -0.443341  -0.392380
H    -1.457992  -0.499647  3.741249
H    -3.088492  -0.818884  2.362208
C    -2.986660  1.109282  1.408704
C    -4.416255  0.947058  0.849139
C    -4.590087  0.594202  -0.636089
N    -4.276272  1.712934  -1.538988
C    -3.559513  1.640014  -2.681380
N    -3.828086  2.496169  -3.674984
N    -2.574241  0.747275  -2.813716
H    -2.346712  1.632908  0.685858
H    -3.045770  1.737380  2.308435
H    -4.955111  1.885934  1.043632
H    -4.963445  0.189616  1.431751
H    -5.642152  0.314614  -0.797217
H    -3.993002  -0.271214  -0.940666
H    -4.900271  2.513467  -1.473096
H    -4.717298  2.979801  -3.736026
H    -3.183154  2.628866  -4.446432
H    -2.155553  0.286411  -2.003569
H    -2.170393  0.563016  -3.724813
N    -1.926650  -2.384857  0.660469
C    -2.453808  -3.223677  1.741117
H    -1.594369  -2.863848  -0.176061
H    -2.342060  -4.269439  1.440335
H    -3.522130  -3.042035  1.916250
H    -1.890516  -3.090520  2.673949
Pb    2.134367  0.986155  5.343484
