37
Energy: -611338.890800 eV PBE+vdW (tier 2 basis)
C    0.178876  1.055524  -0.174203
C    0.106258  0.431192  1.171737
O    1.157493  -0.261551  1.592656
H    0.392877  0.283993  -0.927389
H    1.009848  1.775747  -0.201033
H    -0.744228  1.572896  -0.448795
N    -0.910756  0.511455  1.978112
C    -2.171257  1.270342  1.902055
C    -2.459196  1.463683  3.431820
O    -1.970721  0.620159  4.197805
H    -0.898520  0.097316  2.954152
H    -2.007388  2.229535  1.391887
C    -3.269772  0.430621  1.194431
C    -4.644587  1.115266  1.102296
C    -5.664184  0.236334  0.359175
N    -6.979592  0.884448  0.331817
C    -7.979767  0.599061  -0.525761
N    -7.890090  -0.447978  -1.354221
N    -9.058180  1.389659  -0.564516
H    -3.361004  -0.526126  1.730649
H    -2.906677  0.195434  0.181790
H    -4.559588  2.082975  0.583744
H    -5.024711  1.315276  2.115842
H    -5.731968  -0.748559  0.851392
H    -5.340017  0.077900  -0.679826
H    -7.220743  1.482086  1.116569
H    -8.564786  -0.576875  -2.100975
H    -7.275975  -1.228730  -1.158767
H    -9.058402  2.313761  -0.148562
H    -9.910019  1.098111  -1.031843
N    -3.211615  2.503196  3.799830
C    -3.544723  2.803482  5.196526
H    -3.477350  3.185016  3.095427
H    -4.604393  3.070769  5.270442
H    -2.937002  3.640730  5.562189
H    -3.344500  1.917579  5.804320
Pb    2.986817  -1.148954  2.147082
