37
Energy: -611338.845019 eV PBE+vdW (tier 2 basis)
C    -4.896062  -0.511104  2.211889
C    -3.724562  0.270576  2.677307
O    -2.848359  0.618195  1.801979
H    -5.476982  0.100135  1.505390
H    -5.545959  -0.849312  3.024804
H    -4.536731  -1.379109  1.640258
N    -3.607367  0.602599  3.968214
C    -2.439687  1.154670  4.700169
C    -1.960045  2.505516  4.147216
O    -1.765279  3.459825  5.045858
H    -4.393622  0.333460  4.554574
H    -2.815630  1.360674  5.710351
C    -1.260466  0.149266  4.799392
C    -1.600988  -1.132514  5.579237
C    -0.390951  -2.076570  5.684808
N    -0.725034  -3.263791  6.477051
C    -0.099688  -4.457868  6.410215
N    1.010998  -4.608510  5.679530
N    -0.617467  -5.505810  7.059883
H    -0.432286  0.676917  5.297613
H    -0.907510  -0.094898  3.786157
H    -2.427412  -1.672516  5.093983
H    -1.939559  -0.862446  6.593066
H    0.462799  -1.542885  6.135532
H    -0.091165  -2.409959  4.680679
H    -1.356173  -3.135673  7.262661
H    1.392239  -5.532118  5.501746
H    1.602890  -3.822265  5.441821
H    -1.567121  -5.500014  7.414061
H    -0.078414  -6.352020  7.210924
N    -1.741511  2.640219  2.881288
C    -1.288585  3.891198  2.346029
H    -2.248586  1.429166  2.145789
H    -1.169359  3.844909  1.255332
H    -0.280677  4.174603  2.739003
H    -2.032073  4.711844  2.517580
Pb    -1.174474  5.533156  4.892961
