37
Energy: -611339.643083 eV PBE+vdW (tier 2 basis)
C    -1.907670  1.523924  1.351848
C    -1.202236  0.702537  2.375296
O    -0.632510  -0.383882  2.013267
H    -1.198851  1.807710  0.560653
H    -2.377514  2.426462  1.756485
H    -2.675271  0.900144  0.869731
N    -1.203686  1.124825  3.647369
C    -0.689336  0.478299  4.880738
C    0.849663  0.372576  4.862642
O    1.461583  -0.497924  4.149415
H    -1.665903  2.019918  3.791610
H    -0.942007  1.197385  5.672586
C    -1.372211  -0.868800  5.221986
C    -2.887976  -0.767000  5.501085
C    -3.306155  -0.360325  6.931373
N    -3.286530  -1.448741  7.916271
C    -4.299647  -2.311991  8.162967
N    -4.143132  -3.254186  9.096755
N    -5.435112  -2.256351  7.458320
H    -0.845949  -1.298865  6.088303
H    -1.214183  -1.574928  4.396241
H    -3.345662  -1.737667  5.266293
H    -3.348405  -0.055783  4.798914
H    -4.306085  0.097072  6.905953
H    -2.657487  0.427491  7.337787
H    -2.561676  -1.414969  8.624500
H    -3.262585  -3.394653  9.578549
H    -4.920032  -3.830827  9.403392
H    -6.181995  -2.922509  7.627441
H    -5.683531  -1.441218  6.912580
N    1.531591  1.186066  5.644865
C    2.993122  1.221486  5.785013
H    1.010221  1.870174  6.190522
H    3.237467  1.409780  6.835752
H    3.405376  2.034359  5.172410
H    3.416958  0.265428  5.469687
Pb    1.226354  -1.592017  2.206403
