37
Energy: -611340.097681 eV PBE+vdW (tier 2 basis)
C    0.573404  -1.844884  -0.403553
C    -0.011459  -1.462296  0.908889
O    0.752986  -1.323810  1.924217
H    1.303609  -1.075903  -0.698951
H    -0.171757  -1.956021  -1.198178
H    1.136403  -2.782612  -0.294016
N    -1.332510  -1.248357  1.005180
C    -2.028906  -0.735114  2.195841
C    -2.060251  -1.829688  3.293275
O    -1.189643  -1.746912  4.236680
H    -1.875930  -1.357884  0.150504
H    -1.387522  0.046028  2.631295
C    -3.356543  -0.062950  1.783421
C    -4.143217  0.584919  2.937276
C    -5.324806  1.413218  2.399113
N    -6.062053  2.057353  3.488728
C    -7.333085  2.511639  3.410691
N    -7.946833  2.928891  4.522201
N    -7.986509  2.516679  2.243799
H    -3.997474  -0.772574  1.242077
H    -3.076100  0.715551  1.056476
H    -3.474328  1.244067  3.514195
H    -4.522993  -0.177808  3.634109
H    -6.023031  0.757892  1.857843
H    -4.948384  2.168155  1.687908
H    -5.527060  2.375359  4.291474
H    -8.808378  3.463745  4.480160
H    -7.589955  2.710892  5.445591
H    -8.983021  2.708239  2.210196
H    -7.496902  2.530014  1.357378
N    -2.904912  -2.842244  3.308479
C    -3.963173  -3.218696  2.363296
H    -2.779334  -3.468864  4.107393
H    -3.651366  -3.043668  1.329578
H    -4.893904  -2.679861  2.580125
H    -4.150139  -4.290327  2.483574
Pb    1.046077  -1.406169  4.139735
