37
Energy: -611338.849880 eV PBE+vdW (tier 2 basis)
C    0.813682  -0.718226  1.118957
C    0.816829  -1.546749  2.351818
O    1.976934  -1.733647  2.970035
H    1.474223  -1.174215  0.367315
H    1.216347  0.279731  1.344118
H    -0.186432  -0.608402  0.691479
N    -0.230832  -2.105559  2.880209
C    -1.661846  -2.088156  2.523948
C    -2.285757  -2.436474  3.919703
O    -1.565807  -3.065579  4.707977
H    -0.186851  -2.662143  3.783814
H    -1.957028  -1.087452  2.180510
C    -1.937689  -3.193398  1.462421
C    -3.397704  -3.559110  1.135707
C    -4.168802  -2.572739  0.245498
N    -5.485320  -3.133587  -0.080121
C    -6.196441  -2.917810  -1.203964
N    -7.221473  -3.724114  -1.498739
N    -5.873521  -1.918190  -2.034350
H    -1.453484  -4.108603  1.831735
H    -1.406644  -2.915533  0.538672
H    -3.956516  -3.741351  2.066476
H    -3.361640  -4.524585  0.610753
H    -3.623185  -2.413815  -0.696197
H    -4.287583  -1.590205  0.734827
H    -5.912842  -3.742473  0.611356
H    -7.911269  -3.467446  -2.197147
H    -7.336370  -4.628103  -1.054421
H    -6.303513  -1.847963  -2.950721
H    -5.352096  -1.111670  -1.715225
N    -3.543804  -2.056927  4.158276
C    -4.233538  -2.317962  5.427792
H    -4.001441  -1.445033  3.489987
H    -5.282944  -2.557492  5.227621
H    -4.182644  -1.438009  6.081518
H    -3.750757  -3.163861  5.923950
Pb    3.875600  -1.853078  3.875627
