37
Energy: -611338.780726 eV PBE+vdW (tier 2 basis)
C    -0.704896  0.582897  0.473143
C    -0.224782  0.235695  1.840455
O    1.035999  -0.112664  2.022463
H    -0.579198  -0.282336  -0.195535
H    -0.114528  1.418496  0.068995
H    -1.761821  0.868383  0.460849
N    -1.042541  0.269645  2.859764
C    -0.837107  -0.100059  4.265971
C    -2.242996  -0.605214  4.693867
O    -3.223683  -0.077751  4.132359
H    -2.050604  0.465594  2.702118
H    -0.077863  -0.891049  4.306738
C    -0.387668  1.097945  5.166632
C    -1.478700  1.971817  5.810140
C    -2.226487  2.946364  4.880893
N    -3.289430  3.673776  5.571275
C    -4.597478  3.350533  5.579731
N    -5.476843  4.210525  6.107663
N    -5.025547  2.192738  5.063492
H    0.320861  1.714561  4.592916
H    0.196867  0.652989  5.983580
H    -0.985861  2.561181  6.597292
H    -2.204906  1.336810  6.338801
H    -2.678170  2.435415  4.021378
H    -1.532004  3.695158  4.474669
H    -3.017914  4.485383  6.117788
H    -6.439972  3.944567  6.279600
H    -5.223827  5.166778  6.329523
H    -4.398134  1.432214  4.801418
H    -6.017560  2.035217  4.927139
N    -2.299186  -1.525140  5.652992
C    -3.546297  -2.069936  6.199732
H    -1.428430  -1.882130  6.037384
H    -3.448865  -3.155757  6.302815
H    -4.365418  -1.841707  5.513004
H    -3.754632  -1.635279  7.185753
Pb    2.936958  -0.606219  1.159231
