37
Energy: -611340.125178 eV PBE+vdW (tier 2 basis)
C    -1.852709  0.608793  -0.038274
C    -1.638794  0.175707  1.371903
O    -1.261166  -1.024187  1.601508
H    -0.908230  0.512351  -0.593638
H    -2.221640  1.635219  -0.134759
H    -2.563451  -0.081304  -0.515874
N    -1.864719  1.060052  2.353253
C    -1.835011  0.899257  3.826680
C    -0.419147  0.593090  4.345477
O    0.125785  -0.560964  4.194060
H    -2.144745  1.983540  2.030143
H    -2.092049  1.897826  4.199999
C    -2.888591  -0.081741  4.396916
C    -4.333266  0.431938  4.245809
C    -5.351072  -0.474455  4.961526
N    -6.711728  0.046540  4.807746
C    -7.737103  -0.152242  5.664714
N    -8.861395  0.554190  5.513019
N    -7.626457  -1.024050  6.673421
H    -2.653366  -0.215083  5.464596
H    -2.782538  -1.070875  3.928999
H    -4.594730  0.501148  3.177843
H    -4.413221  1.447021  4.664310
H    -5.121463  -0.507428  6.036327
H    -5.286163  -1.503313  4.568845
H    -6.954636  0.464596  3.914489
H    -9.719317  0.288552  5.985826
H    -8.896102  1.390464  4.940990
H    -8.326559  -1.056112  7.407957
H    -6.972161  -1.796093  6.641178
N    0.248114  1.513169  5.013756
C    -0.131482  2.894508  5.353292
H    1.160640  1.200915  5.355555
H    0.754576  3.390083  5.760521
H    -0.916044  2.908591  6.120019
H    -0.448981  3.448589  4.462811
Pb    0.192415  -2.263242  2.750404
