37
Energy: -611338.821255 eV PBE+vdW (tier 2 basis)
C    -0.440044  -1.432600  0.750758
C    -0.185547  -0.225470  1.579251
O    1.049918  -0.029382  2.026590
H    0.195801  -1.407069  -0.146259
H    -1.484539  -1.519974  0.440077
H    -0.163477  -2.332754  1.318585
N    -1.081837  0.658068  1.906594
C    -2.466119  0.847598  1.435267
C    -2.603519  2.396601  1.604347
O    -1.786108  2.944900  2.365296
H    -0.847619  1.559218  2.426213
H    -2.531047  0.554173  0.379964
C    -3.530475  0.067306  2.252166
C    -3.676346  0.484271  3.724021
C    -4.710752  -0.323296  4.523421
N    -6.094645  0.043164  4.187132
C    -7.184880  -0.670278  4.547553
N    -8.396718  -0.263449  4.152824
N    -7.060535  -1.794031  5.260808
H    -3.289658  -1.005160  2.187654
H    -4.484709  0.190647  1.719616
H    -3.909416  1.557885  3.807313
H    -2.718065  0.358370  4.248363
H    -4.526485  -0.152750  5.596375
H    -4.585343  -1.397999  4.324099
H    -6.263819  1.024299  3.983228
H    -9.242263  -0.657644  4.551367
H    -8.516846  0.451513  3.445542
H    -7.856839  -2.404777  5.411838
H    -6.233146  -1.986650  5.811639
N    -3.576849  3.054727  0.970335
C    -4.540098  2.572996  -0.017431
H    -3.581280  4.056683  1.165165
H    -5.550539  2.522513  0.408748
H    -4.261068  1.585217  -0.395630
H    -4.558850  3.263774  -0.868052
Pb    3.124081  0.210091  2.323200
