37
Energy: -611338.673347 eV PBE+vdW (tier 2 basis)
C    -0.354700  1.618881  0.645464
C    -0.410790  0.522684  1.661924
O    0.630402  0.072257  2.203897
H    -1.335042  1.933181  0.272745
H    0.252978  1.283537  -0.207478
H    0.164844  2.483225  1.080509
N    -1.635782  0.031280  1.981506
C    -1.968531  -1.142945  2.805273
C    -1.485753  -1.046134  4.257932
O    -2.324001  -1.419512  5.204390
H    -2.430765  0.477948  1.532363
H    -3.062958  -1.113294  2.885203
C    -1.649912  -2.538100  2.178871
C    -0.201720  -2.944480  1.831045
C    0.204392  -2.641383  0.374736
N    1.530149  -3.155043  0.031622
C    2.663591  -2.438521  -0.091553
N    2.744193  -1.188776  0.383232
N    3.720095  -2.988665  -0.700855
H    -2.284096  -2.609451  1.281895
H    -2.067092  -3.278404  2.877865
H    -0.130129  -4.032290  1.972270
H    0.529176  -2.507506  2.524334
H    0.185322  -1.569420  0.146752
H    -0.511881  -3.113335  -0.312711
H    1.590175  -4.137258  -0.219783
H    3.543296  -0.609933  0.150947
H    2.067066  -0.801633  1.039526
H    3.633752  -3.821354  -1.273112
H    4.639210  -2.562662  -0.655746
N    -0.281264  -0.649520  4.537706
C    0.304409  -0.521328  5.869372
H    0.277474  -0.373664  3.658392
H    1.332581  -0.165349  5.761324
H    0.320623  -1.492575  6.382208
H    -0.252457  0.212938  6.468767
Pb    -3.518950  -1.741918  6.932419
