37
Energy: -611340.430482 eV PBE+vdW (tier 2 basis)
C    0.046931  -0.719281  0.046275
C    -0.258173  -1.040807  1.467446
O    0.192706  -2.122888  1.978857
H    -0.333444  -1.522446  -0.600970
H    1.139510  -0.708649  -0.083746
H    -0.366780  0.238991  -0.284853
N    -0.980363  -0.175072  2.192255
C    -1.281008  -0.261176  3.633858
C    -2.433840  -1.272434  3.852947
O    -2.172675  -2.527619  3.837165
H    -1.326874  0.645478  1.698217
H    -0.404683  -0.719290  4.118595
C    -1.502235  1.140273  4.237483
C    -0.231762  2.012360  4.304368
C    -0.509189  3.358420  4.998646
N    0.716118  4.152941  5.112919
C    0.770012  5.495122  5.264270
N    1.951564  6.114176  5.182462
N    -0.345108  6.206481  5.462632
H    -1.888951  0.999020  5.258080
H    -2.286410  1.673884  3.672011
H    0.171656  2.203187  3.298974
H    0.545075  1.467957  4.865136
H    -0.945972  3.178092  5.995777
H    -1.235526  3.938115  4.410310
H    1.581723  3.652297  5.291602
H    2.768761  5.659984  4.790779
H    2.067707  7.072700  5.495171
H    -0.325670  7.220618  5.418976
H    -1.181944  5.789818  5.851833
N    -3.664283  -0.850008  4.047299
C    -4.847593  -1.698972  4.244681
H    -3.821322  0.155853  4.063847
H    -5.443889  -1.283332  5.064209
H    -4.533079  -2.715043  4.490984
H    -5.452597  -1.706386  3.328600
Pb    -0.499393  -3.882364  3.177908
