37
Energy: -611337.909727 eV PBE+vdW (tier 2 basis)
C    0.311681  -0.546054  -0.745653
C    0.330769  0.055774  0.611564
O    1.472370  0.420281  1.145789
H    0.384396  0.262427  -1.492603
H    -0.611450  -1.087331  -0.973882
H    1.172107  -1.214000  -0.874858
N    -0.760709  0.285856  1.325873
C    -2.154129  0.037453  0.916266
C    -2.595704  1.113424  -0.156932
O    -2.692811  0.695371  -1.306065
H    -0.611146  0.755148  2.222087
H    -2.154499  -0.882253  0.322169
C    -3.094845  -0.172084  2.118974
C    -4.556844  -0.311775  1.650490
C    -5.595485  -0.565246  2.752083
N    -5.620323  -1.966995  3.196155
C    -6.347617  -2.416251  4.243574
N    -6.302826  -3.713500  4.567725
N    -7.077601  -1.571583  4.978362
H    -3.014986  0.659539  2.833928
H    -2.768185  -1.079781  2.648736
H    -4.640592  -1.095525  0.879909
H    -4.868144  0.613670  1.145258
H    -6.582914  -0.281060  2.353533
H    -5.386993  0.070353  3.625875
H    -5.390778  -2.664635  2.493652
H    -6.963596  -4.117465  5.222754
H    -5.626713  -4.344467  4.154794
H    -7.521405  -1.878254  5.837804
H    -7.349757  -0.660455  4.630668
N    -2.802319  2.402066  0.186692
C    -2.819044  3.046729  1.495770
H    -3.099742  2.972772  -0.604480
H    -2.738201  4.127433  1.340996
H    -1.963213  2.748675  2.113752
H    -3.751097  2.856407  2.045854
Pb    3.615353  0.634776  1.137203
