37
Energy: -611338.642986 eV PBE+vdW (tier 2 basis)
C    -0.318980  0.885472  0.372468
C    -0.271178  0.040784  1.599709
O    0.892556  -0.249678  2.151449
H    0.232235  0.390230  -0.441606
H    0.154841  1.858936  0.568048
H    -1.342317  1.064513  0.026264
N    -1.374964  -0.416712  2.129580
C    -1.610457  -1.312782  3.269010
C    -2.905584  -2.063853  2.859047
O    -3.728999  -1.451051  2.152664
H    -2.275649  -0.234572  1.647028
H    -0.762749  -2.004778  3.355957
C    -1.794532  -0.564087  4.626450
C    -2.541977  0.781980  4.659457
C    -4.038241  0.859695  4.324926
N    -4.885272  0.058320  5.225041
C    -6.072228  -0.494031  4.876419
N    -7.030218  -0.621866  5.801259
N    -6.275940  -0.945164  3.635090
H    -0.789557  -0.382886  5.032148
H    -2.265140  -1.282453  5.313832
H    -2.042744  1.508447  3.999486
H    -2.388380  1.185506  5.672321
H    -4.235260  0.544728  3.297466
H    -4.341565  1.915729  4.398019
H    -4.793591  0.274375  6.215204
H    -7.842978  -1.208517  5.643457
H    -7.027026  -0.072095  6.653441
H    -7.211877  -1.170821  3.317198
H    -5.502424  -1.092496  2.983503
N    -3.054176  -3.306663  3.315412
C    -4.218466  -4.150877  3.030162
H    -2.315939  -3.709176  3.886244
H    -3.883601  -5.183369  2.888502
H    -4.700579  -3.798393  2.113895
H    -4.933575  -4.120565  3.862349
Pb    3.032073  -0.143080  1.998953
