37
Energy: -611338.547595 eV PBE+vdW (tier 2 basis)
C    -0.344707  1.215729  3.044672
C    -0.075066  -0.046471  2.306046
O    1.136551  -0.552468  2.288948
H    0.313677  1.289672  3.917508
H    -1.383741  1.299256  3.380038
H    -0.131046  2.076106  2.388171
N    -1.009356  -0.696373  1.637194
C    -2.410475  -0.269734  1.434010
C    -3.403324  -0.633851  2.582030
O    -4.251052  0.227864  2.837704
H    -0.711255  -1.556969  1.172314
H    -2.410677  0.825678  1.436632
C    -2.922218  -0.743057  0.051492
C    -4.264377  -0.098747  -0.365916
C    -5.523904  -0.901604  0.020798
N    -6.761603  -0.196920  -0.302765
C    -7.486628  0.562821  0.541479
N    -8.690143  1.000854  0.150547
N    -7.022631  0.879138  1.754556
H    -2.995284  -1.841942  0.022251
H    -2.159742  -0.459111  -0.687762
H    -4.253930  0.014841  -1.458319
H    -4.334714  0.920514  0.041129
H    -5.547192  -1.157164  1.087389
H    -5.543890  -1.854881  -0.525089
H    -7.104995  -0.274412  -1.255099
H    -9.204722  1.687266  0.690569
H    -9.154547  0.626829  -0.669173
H    -7.634353  1.313336  2.436104
H    -6.064970  0.693281  2.049918
N    -3.364300  -1.828371  3.198963
C    -2.519360  -2.994014  2.949756
H    -4.067192  -1.921408  3.931646
H    -3.010697  -3.868647  3.387908
H    -1.531327  -2.899502  3.421209
H    -2.412437  -3.198129  1.877096
Pb    3.266607  -0.650201  2.565927
