37
Energy: -611339.615447 eV PBE+vdW (tier 2 basis)
C    -1.662933  -0.605535  -0.159334
C    -1.560892  -0.463082  1.320512
O    -1.098128  -1.437225  2.008195
H    -2.263969  -1.498036  -0.387869
H    -0.662084  -0.792333  -0.575362
H    -2.102791  0.264550  -0.657961
N    -1.972452  0.681447  1.882700
C    -2.088519  1.071580  3.309330
C    -0.712038  1.130603  3.994574
O    -0.099364  0.067609  4.377049
H    -2.308411  1.377558  1.220496
H    -2.456012  2.103955  3.262585
C    -3.128141  0.259940  4.121222
C    -4.555545  0.423723  3.565192
C    -5.673000  -0.294027  4.340479
N    -6.056868  0.413374  5.570860
C    -6.901837  -0.090400  6.503712
N    -7.172822  0.628718  7.597105
N    -7.429493  -1.309577  6.358212
H    -3.072079  0.614272  5.162019
H    -2.854587  -0.804744  4.139986
H    -4.596431  0.028327  2.540289
H    -4.809536  1.493412  3.476529
H    -5.354850  -1.311482  4.612731
H    -6.541128  -0.381977  3.667060
H    -6.008547  1.428295  5.540084
H    -7.931622  0.375253  8.221713
H    -6.641347  1.456429  7.840241
H    -7.956523  -1.739970  7.111923
H    -7.500479  -1.755817  5.451623
N    -0.152776  2.298378  4.244814
C    -0.627115  3.656563  3.933276
H    0.741209  2.236811  4.738681
H    0.205465  4.345468  4.103731
H    -1.453196  3.945400  4.595171
H    -0.925315  3.741289  2.882487
Pb    0.289154  -2.011747  3.651947
