37
Energy: -611337.959610 eV PBE+vdW (tier 2 basis)
C    0.889559  -0.512634  0.732006
C    0.079251  0.616600  1.280272
O    0.598726  1.683440  1.689528
H    1.617493  -0.120738  0.011040
H    0.288636  -1.298599  0.262167
H    1.465227  -0.966093  1.552962
N    -1.273220  0.466016  1.328342
C    -2.190193  1.336089  2.077075
C    -2.352752  2.704488  1.402055
O    -3.569291  3.168373  1.198793
H    -1.663776  -0.402469  0.973169
H    -3.170259  0.859177  1.963582
C    -1.893647  1.382677  3.631279
C    -1.570721  2.692912  4.374822
C    -0.136619  3.259534  4.332266
N    0.930563  2.310572  4.659257
C    1.606423  2.242269  5.824130
N    2.815013  1.668671  5.849536
N    1.083340  2.732180  6.953778
H    -1.096400  0.649652  3.810643
H    -2.784439  0.959184  4.110710
H    -1.836569  2.501797  5.425298
H    -2.248513  3.506539  4.068470
H    -0.073765  4.111083  5.023577
H    0.108059  3.660759  3.342921
H    1.336047  1.823774  3.863145
H    3.262000  1.416918  6.725067
H    3.366614  1.553856  5.007114
H    1.650963  2.839271  7.787950
H    0.096171  2.931315  7.048052
N    -1.300550  3.376218  1.042097
C    -1.273793  4.663267  0.352071
H    -0.392126  2.850762  1.280983
H    -0.234372  4.995755  0.281991
H    -1.851437  5.415875  0.904245
H    -1.669995  4.560559  -0.668360
Pb    -5.435500  3.899521  0.488679
