37
Energy: -611339.945078 eV PBE+vdW (tier 2 basis)
C    -1.726672  2.309197  1.483163
C    -1.892784  0.863865  1.795859
O    -2.535688  0.115623  0.983148
H    -1.173071  2.862303  2.249094
H    -2.713808  2.770565  1.339683
H    -1.199351  2.398899  0.520969
N    -1.340578  0.366817  2.913188
C    -1.273265  -1.056311  3.291728
C    -2.637132  -1.495594  3.876300
O    -3.568431  -1.845137  3.068432
H    -0.859113  1.036789  3.508741
H    -1.200739  -1.619641  2.349278
C    0.033072  -1.387462  4.060345
C    0.342363  -0.687488  5.401394
C    1.835779  -0.662404  5.784414
N    2.370235  -1.988623  6.117826
C    3.693947  -2.277979  6.196130
N    4.614912  -1.334531  5.981086
N    4.070310  -3.533461  6.454724
H    0.841669  -1.157447  3.349564
H    0.056926  -2.479046  4.185390
H    -0.212845  -1.143961  6.238260
H    0.036686  0.370793  5.390214
H    1.954726  0.026616  6.636445
H    2.419139  -0.262848  4.942022
H    1.766682  -2.602501  6.658394
H    5.596519  -1.579743  5.892226
H    4.409368  -0.348768  6.091160
H    3.422005  -4.310319  6.396704
H    5.027446  -3.756802  6.708802
N    -2.861057  -1.506585  5.173316
C    -4.137554  -1.877049  5.804336
H    -2.105408  -1.214285  5.786830
H    -4.828403  -1.023955  5.789731
H    -3.940499  -2.162330  6.841368
H    -4.584233  -2.719085  5.267410
Pb    -4.059151  -1.519113  0.885324
