37
Energy: -611339.265712 eV PBE+vdW (tier 2 basis)
C    -0.512606  1.244500  -0.534468
C    -0.362734  0.692926  0.832485
O    0.755605  0.809339  1.450808
H    0.285654  0.793540  -1.149119
H    -0.316353  2.326187  -0.548675
H    -1.476254  1.018313  -0.998792
N    -1.365098  0.030697  1.454539
C    -2.734814  0.540409  1.569692
C    -2.642418  1.794274  2.489265
O    -1.607460  1.994909  3.219948
H    -1.056000  -0.493902  2.275382
H    -3.077279  0.863618  0.575485
C    -3.652967  -0.596723  2.091687
C    -5.170693  -0.378215  1.955770
C    -5.935639  -1.675014  2.287700
N    -7.382221  -1.496833  2.143850
C    -8.269745  -2.481301  1.877269
N    -9.531474  -2.158606  1.576800
N    -7.891469  -3.763993  1.884124
H    -3.395654  -0.816911  3.140227
H    -3.368419  -1.482420  1.503517
H    -5.422369  -0.073509  0.928061
H    -5.510294  0.419010  2.636547
H    -5.685977  -2.004352  3.310427
H    -5.623901  -2.466505  1.591269
H    -7.780368  -0.613027  2.446901
H    -10.269537  -2.855309  1.581668
H    -9.793179  -1.218498  1.302369
H    -8.507369  -4.486577  1.524486
H    -7.084835  -4.080234  2.408443
N    -3.643775  2.650722  2.502185
C    -3.704090  3.876036  3.313504
H    -4.421405  2.478661  1.868245
H    -4.751100  4.177597  3.406897
H    -3.143859  4.683548  2.824190
H    -3.286972  3.685107  4.306465
Pb    0.680991  1.838751  3.466953
