37
Energy: -611339.554524 eV PBE+vdW (tier 2 basis)
C    -1.475029  -0.412914  -0.662308
C    -1.435605  -0.465739  0.825541
O    -0.739990  -1.373928  1.395913
H    -2.085263  0.405155  -1.059001
H    -1.868379  -1.370420  -1.036210
H    -0.450346  -0.325327  -1.050804
N    -2.144281  0.436388  1.519472
C    -2.385054  0.541381  2.979872
C    -1.056880  0.816923  3.718461
O    -0.282275  -0.140432  4.077693
H    -2.655266  1.105673  0.947632
H    -2.997786  1.445778  3.079841
C    -3.184419  -0.648993  3.553968
C    -3.845924  -0.402617  4.932300
C    -5.301913  0.090516  4.838203
N    -5.901530  0.201246  6.170274
C    -7.206587  0.024517  6.473110
N    -7.568366  -0.108717  7.752510
N    -8.129777  -0.040578  5.507062
H    -2.536915  -1.531967  3.624685
H    -3.949719  -0.909116  2.808635
H    -3.246568  0.302504  5.532037
H    -3.843568  -1.348309  5.490280
H    -5.890374  -0.639766  4.264476
H    -5.360247  1.057823  4.309611
H    -5.307583  0.519838  6.929874
H    -8.538528  -0.021859  8.038206
H    -6.897946  -0.333818  8.479070
H    -9.078515  -0.334089  5.718200
H    -7.980029  0.376437  4.596666
N    -0.711794  2.056913  4.008955
C    -1.414290  3.313829  3.704889
H    0.182008  2.143657  4.498564
H    -1.537489  3.444621  2.623248
H    -0.799159  4.137288  4.078675
H    -2.386041  3.357997  4.211311
Pb    0.561428  -1.980895  3.091088
