37
Energy: -611339.585123 eV PBE+vdW (tier 2 basis)
C    -0.484939  0.240331  -0.150298
C    -0.325758  -0.153137  1.275754
O    0.840117  -0.395954  1.736527
H    -0.067807  -0.547432  -0.793942
H    0.115620  1.143219  -0.336369
H    -1.524121  0.430972  -0.437904
N    -1.410489  -0.230475  2.063743
C    -1.387014  -0.515891  3.505531
C    -1.018668  -2.003952  3.747741
O    0.205216  -2.269159  4.044238
H    -2.308857  -0.029355  1.629609
H    -0.522183  0.024950  3.918485
C    -2.638393  0.012845  4.242582
C    -2.625385  1.544698  4.429771
C    -3.608186  2.080532  5.492071
N    -5.025853  2.119710  5.106785
C    -5.782437  3.238590  5.005641
N    -7.106070  3.151416  5.168942
N    -5.227153  4.421468  4.725070
H    -2.650427  -0.471316  5.231569
H    -3.555323  -0.310503  3.729301
H    -2.796830  2.058053  3.471618
H    -1.623858  1.850495  4.770934
H    -3.307522  3.097257  5.773104
H    -3.527085  1.484498  6.413629
H    -5.554778  1.260094  5.215901
H    -7.722199  3.910748  4.895718
H    -7.535800  2.375147  5.660093
H    -5.752809  5.283114  4.831743
H    -4.290825  4.502940  4.350913
N    -1.869771  -3.006654  3.667769
C    -3.297986  -3.029390  3.334009
H    -1.451361  -3.916340  3.879841
H    -3.909402  -2.884814  4.233390
H    -3.526329  -4.014240  2.914111
H    -3.539342  -2.274501  2.580494
Pb    2.147003  -1.553966  3.154884
