37
Energy: -611339.850836 eV PBE+vdW (tier 2 basis)
C    -2.523493  -0.733440  -0.025039
C    -2.096328  -0.767953  1.402058
O    -1.401474  -1.756121  1.816695
H    -1.632733  -0.749157  -0.669810
H    -3.138273  0.135592  -0.281719
H    -3.083158  -1.653834  -0.247830
N    -2.470047  0.238860  2.206926
C    -2.269769  0.422109  3.664931
C    -0.773614  0.567954  4.003966
O    -0.010053  -0.459063  4.112228
H    -2.997195  0.975344  1.743762
H    -2.737947  1.390699  3.877832
C    -2.961554  -0.651735  4.537708
C    -4.508503  -0.625517  4.520843
C    -5.136722  0.227893  5.637848
N    -6.598253  0.140706  5.594316
C    -7.434665  0.177997  6.654565
N    -8.710838  -0.183221  6.492493
N    -6.993444  0.548273  7.862406
H    -2.591240  -0.533981  5.567618
H    -2.630961  -1.647126  4.214893
H    -4.869591  -1.655949  4.638035
H    -4.873853  -0.288931  3.537115
H    -4.815131  1.281254  5.564388
H    -4.805568  -0.155693  6.613358
H    -7.040491  0.132040  4.679975
H    -9.415281  0.040463  7.188305
H    -9.019648  -0.714212  5.685763
H    -7.574331  0.420673  8.685266
H    -6.179214  1.139659  7.973806
N    -0.257293  1.759444  4.233428
C    -0.892870  3.084950  4.193467
H    0.732999  1.744058  4.490880
H    -0.096966  3.834012  4.141491
H    -1.476941  3.266025  5.104866
H    -1.520135  3.198430  3.303079
Pb    0.298578  -2.430502  3.096088
