37
Energy: -611339.159286 eV PBE+vdW (tier 2 basis)
C    -0.057443  1.756964  1.086078
C    -0.084137  0.528192  1.923441
O    0.984960  -0.164627  2.061420
H    -0.691720  2.552064  1.489000
H    -0.399500  1.523847  0.062905
H    0.977761  2.107668  1.003448
N    -1.204341  0.098523  2.547386
C    -2.529284  -0.022745  1.903986
C    -2.326148  -0.912325  0.638898
O    -1.267935  -1.629138  0.517152
H    -1.015326  -0.637490  3.228290
H    -3.106381  -0.652704  2.600939
C    -3.332301  1.283250  1.715437
C    -3.554663  2.052016  3.032189
C    -4.462920  3.278912  2.836697
N    -4.683346  3.971560  4.108971
C    -5.738059  4.763282  4.401602
N    -5.930922  5.155506  5.664597
N    -6.600479  5.131338  3.447372
H    -4.319973  1.002691  1.316149
H    -2.865318  1.924993  0.955851
H    -2.584305  2.373518  3.442422
H    -4.011477  1.385575  3.779729
H    -5.442800  2.957994  2.453800
H    -4.017657  3.964366  2.095525
H    -3.919850  3.980583  4.778589
H    -6.568852  5.911811  5.890623
H    -5.471129  4.698060  6.443684
H    -7.474019  5.588649  3.689035
H    -6.335998  5.155044  2.470102
N    -3.266649  -0.974105  -0.278355
C    -3.231220  -1.847537  -1.462835
H    -4.093532  -0.395020  -0.154603
H    -4.185921  -1.752126  -1.986095
H    -3.085972  -2.889510  -1.155929
H    -2.418973  -1.543906  -2.134080
Pb    0.871348  -2.215042  1.093077
