37
Energy: -611339.530662 eV PBE+vdW (tier 2 basis)
C    0.252125  1.916168  1.440681
C    0.037969  0.449021  1.580079
O    0.933298  -0.353079  1.141520
H    1.188306  2.197152  1.944129
H    -0.569089  2.521936  1.837718
H    0.390417  2.149953  0.374289
N    -1.094299  0.016797  2.149730
C    -1.635109  -1.356277  2.302512
C    -0.724936  -2.208352  3.207790
O    0.318717  -2.798386  2.746308
H    -1.724464  0.757246  2.451934
H    -2.571115  -1.202238  2.853183
C    -2.005736  -2.022881  0.957875
C    -2.985219  -3.202917  1.113520
C    -3.525462  -3.681307  -0.246824
N    -4.479774  -4.779992  -0.079422
C    -5.503129  -5.071413  -0.912815
N    -6.422929  -5.962203  -0.530097
N    -5.617121  -4.459830  -2.096988
H    -1.102645  -2.338121  0.415789
H    -2.472113  -1.235711  0.347264
H    -3.838528  -2.897009  1.738279
H    -2.491707  -4.042942  1.628919
H    -2.692399  -3.990435  -0.900430
H    -4.050974  -2.851575  -0.740807
H    -4.271465  -5.478364  0.628175
H    -7.074047  -6.367323  -1.195080
H    -6.522990  -6.246833  0.437719
H    -6.464457  -4.554674  -2.648165
H    -4.815992  -4.059048  -2.569028
N    -1.032576  -2.368420  4.480231
C    -2.160699  -1.811289  5.245594
H    -0.379240  -2.957669  5.001847
H    -2.043457  -2.127157  6.286053
H    -3.118463  -2.197656  4.876673
H    -2.151574  -0.715327  5.219429
Pb    2.064871  -2.233840  1.447419
