37
Energy: -611338.607086 eV PBE+vdW (tier 2 basis)
C    0.238832  -0.356906  -0.416530
C    0.137827  0.090679  0.998139
O    1.208836  0.344322  1.705206
H    1.281388  -0.408633  -0.740200
H    -0.306390  0.330223  -1.081533
H    -0.218675  -1.350264  -0.544843
N    -1.035075  0.258450  1.589582
C    -2.362181  0.025844  0.989841
C    -2.807574  1.143250  -0.018597
O    -3.371725  0.764861  -1.040286
H    -1.009556  0.575158  2.562089
H    -2.285532  -0.870806  0.364154
C    -3.407183  -0.185877  2.110279
C    -4.880462  -0.219090  1.655355
C    -5.276015  -1.419387  0.774881
N    -6.658712  -1.336962  0.295602
C    -7.720753  -2.028396  0.748575
N    -8.822327  -2.109187  -0.005766
N    -7.688025  -2.644269  1.937659
H    -3.312944  0.636588  2.838361
H    -3.152195  -1.112681  2.647120
H    -5.128651  0.709917  1.121850
H    -5.496732  -0.210067  2.566043
H    -5.146354  -2.371576  1.307940
H    -4.643605  -1.467845  -0.121927
H    -6.820154  -0.754042  -0.520350
H    -9.707418  -2.415925  0.383332
H    -8.808776  -1.893366  -0.996176
H    -8.412299  -3.303740  2.200313
H    -7.026416  -2.383039  2.656325
N    -2.570610  2.426904  0.308659
C    -3.035015  3.547510  -0.517890
H    -2.223194  2.643724  1.237533
H    -2.368480  4.401929  -0.365654
H    -4.059352  3.838224  -0.250779
H    -3.015649  3.245533  -1.569318
Pb    3.300868  0.451137  2.213018
