37
Energy: -611338.079843 eV PBE+vdW (tier 2 basis)
C    0.642975  0.529223  0.038615
C    0.491788  -0.418629  1.194718
O    1.269012  -1.355927  1.400542
H    0.387242  -0.003737  -0.889014
H    1.695637  0.825282  -0.043312
H    0.016246  1.425542  0.104529
N    -0.590663  -0.172279  2.023601
C    -1.128632  -0.990646  3.105668
C    -0.878598  -0.360557  4.493555
O    -1.920052  -0.222952  5.286730
H    -1.184627  0.599000  1.732420
H    -2.223841  -0.950202  3.000453
C    -0.732853  -2.493333  3.127942
C    -1.207736  -3.251137  1.867590
C    -0.411838  -4.525826  1.562118
N    0.918668  -4.209127  1.036974
C    1.749216  -5.089406  0.453258
N    1.464011  -6.395439  0.432383
N    2.876982  -4.642694  -0.117351
H    -1.205190  -2.938260  4.017007
H    0.348369  -2.589476  3.265381
H    -1.177534  -2.602073  0.981596
H    -2.259520  -3.542287  1.991246
H    -0.969777  -5.106149  0.810875
H    -0.326812  -5.148930  2.469295
H    1.215333  -3.229366  1.082008
H    2.041013  -7.052769  -0.080771
H    0.687459  -6.784441  0.951095
H    3.053153  -3.651722  -0.229716
H    3.572132  -5.278823  -0.491254
N    0.284815  0.038378  4.940290
C    1.609406  -0.014338  4.308518
H    0.273634  0.459753  5.872032
H    2.330831  -0.321253  5.074605
H    1.877845  0.990449  3.954798
H    1.627453  -0.720170  3.474766
Pb    -3.599861  0.127193  6.568301
