37
Energy: -611340.238252 eV PBE+vdW (tier 2 basis)
C    2.534586  2.832158  2.952999
C    1.428372  2.362624  2.074980
O    1.688969  1.582215  1.095525
H    2.200285  3.476587  3.772823
H    3.280164  3.368725  2.348838
H    3.048824  1.952493  3.368742
N    0.172767  2.747585  2.343190
C    -1.057671  2.291190  1.668499
C    -1.202040  3.045070  0.324383
O    -0.530223  2.643192  -0.690722
H    0.058688  3.396594  3.120088
H    -0.900140  1.237561  1.389977
C    -2.266714  2.373960  2.625854
C    -2.198389  1.367255  3.793032
C    -3.272004  1.557240  4.885059
N    -4.631127  1.122996  4.535067
C    -5.307926  0.105649  5.118809
N    -6.644189  0.115088  5.104775
N    -4.659165  -0.912869  5.691851
H    -3.173726  2.192326  2.030106
H    -2.348457  3.397820  3.032939
H    -1.227674  1.456816  4.304369
H    -2.246512  0.340978  3.398442
H    -3.326483  2.614081  5.187032
H    -2.965344  1.011000  5.785658
H    -5.211771  1.784192  4.029201
H    -7.179771  -0.716039  5.335414
H    -7.173209  0.968210  4.959896
H    -5.147996  -1.572438  6.288638
H    -3.681945  -1.101089  5.510452
N    -1.995650  4.090151  0.229345
C    -2.199573  4.913916  -0.970419
H    -2.513648  4.365190  1.061499
H    -1.826646  4.382034  -1.847939
H    -1.668298  5.867953  -0.857201
H    -3.271070  5.112358  -1.081854
Pb    1.274706  1.352228  -1.090344
