37
Energy: -611337.837294 eV PBE+vdW (tier 2 basis)
C    0.583057  -0.229431  0.045497
C    0.094093  0.589593  1.189767
O    0.705908  1.703044  1.509714
H    1.637309  -0.502229  0.202706
H    0.518486  0.356191  -0.884415
H    0.007116  -1.150539  -0.095810
N    -0.956864  0.198478  1.885800
C    -1.620380  0.881842  3.003024
C    -1.327654  0.360760  4.446310
O    -1.710805  1.131512  5.332984
H    -1.386178  -0.667128  1.557484
H    -1.219881  1.901978  3.017448
C    -3.150597  0.964744  2.765231
C    -3.982656  -0.309575  3.010688
C    -4.531787  -0.516712  4.435021
N    -5.503519  0.509973  4.830519
C    -5.495148  1.221632  5.980031
N    -6.652124  1.697322  6.455445
N    -4.352775  1.472349  6.625066
H    -3.299233  1.315950  1.734719
H    -3.516177  1.778026  3.407551
H    -3.427237  -1.224672  2.744836
H    -4.833979  -0.297520  2.315231
H    -3.739425  -0.545654  5.189598
H    -5.032197  -1.495601  4.474207
H    -6.394358  0.488548  4.340697
H    -7.546287  1.319361  6.162420
H    -6.673460  2.408338  7.178550
H    -4.371735  1.847999  7.566570
H    -3.438002  1.362914  6.182927
N    -0.739285  -0.816202  4.723290
C    -0.319608  -1.930092  3.871357
H    -0.620426  -0.953890  5.726920
H    -0.052974  -2.764339  4.527678
H    0.568546  -1.689756  3.273463
H    -1.132867  -2.287138  3.226016
Pb    2.236059  3.176324  1.128316
