37
Energy: -611339.536827 eV PBE+vdW (tier 2 basis)
C    -1.326318  -0.860667  -0.390760
C    -1.344604  -0.723674  1.092030
O    -0.651782  -1.533111  1.798306
H    -0.289611  -0.788660  -0.749714
H    -1.942757  -0.119623  -0.910254
H    -1.676914  -1.870168  -0.653773
N    -2.098898  0.240061  1.639543
C    -2.393774  0.523825  3.065570
C    -1.096973  0.912361  3.809259
O    -0.332824  0.021638  4.327478
H    -2.603356  0.817094  0.969683
H    -3.020959  1.423306  3.030318
C    -3.198966  -0.597894  3.756605
C    -3.895744  -0.195880  5.080205
C    -5.360661  0.242958  4.895556
N    -5.993100  0.509923  6.189551
C    -7.293720  0.309942  6.497140
N    -7.674042  0.339131  7.777785
N    -8.193166  0.061222  5.538410
H    -2.548398  -1.461157  3.944919
H    -3.943895  -0.950018  3.028568
H    -3.327064  0.595965  5.595660
H    -3.883539  -1.061487  5.755581
H    -5.918708  -0.570890  4.411134
H    -5.430471  1.131271  4.244219
H    -5.432680  0.966471  6.902988
H    -8.652643  0.418798  8.035620
H    -7.007929  0.255003  8.537616
H    -9.129141  -0.251253  5.777443
H    -8.048513  0.357445  4.580982
N    -0.770326  2.184132  3.938014
C    -1.468705  3.378775  3.437097
H    0.101930  2.347955  4.446340
H    -1.573185  3.346071  2.346212
H    -0.861086  4.251218  3.693775
H    -2.449349  3.494294  3.914644
Pb    0.578873  -1.908378  3.609248
