37
Energy: -611337.578021 eV PBE+vdW (tier 2 basis)
C    1.038439  -0.266609  0.098197
C    0.711301  0.193192  1.491820
O    1.573031  0.543875  2.302253
H    0.165313  -0.401770  -0.549672
H    1.579554  -1.221936  0.158022
H    1.725045  0.455638  -0.360656
N    -0.633634  0.191000  1.818589
C    -1.269722  0.444702  3.105678
C    -1.948549  1.836346  3.155307
O    -3.224411  1.863917  3.485741
H    -1.255554  -0.139687  1.086345
H    -2.123546  -0.247736  3.157224
C    -0.451080  0.231107  4.413965
C    -0.139613  -1.231929  4.796042
C    1.012985  -1.968035  4.088082
N    2.334533  -1.369573  4.274884
C    3.349946  -1.873063  5.000056
N    3.144039  -2.807791  5.935808
N    4.591914  -1.420848  4.784655
H    -1.081224  0.635751  5.221681
H    0.457721  0.840940  4.402508
H    -1.042150  -1.850909  4.670282
H    0.066441  -1.225932  5.876758
H    0.835439  -2.042246  3.007160
H    1.038411  -3.005144  4.447156
H    2.539401  -0.581861  3.658492
H    3.920896  -3.304915  6.357638
H    2.221523  -3.019604  6.291697
H    4.831802  -0.910392  3.942945
H    5.349710  -1.630157  5.425360
N    -1.363258  2.979609  2.907446
C    0.030082  3.281444  2.557681
H    -1.971548  3.799850  2.965201
H    0.348764  4.136040  3.166413
H    0.076230  3.569014  1.498428
H    0.683222  2.424869  2.740655
Pb    -5.308021  2.006762  3.948323
