37
Energy: -611340.258753 eV PBE+vdW (tier 2 basis)
C    0.983361  -1.494888  2.378608
C    0.441972  -0.112477  2.248616
O    1.239926  0.880756  2.370848
H    1.487553  -1.585913  3.352011
H    1.757115  -1.655558  1.613890
H    0.222563  -2.277392  2.289906
N    -0.868540  0.043222  2.022368
C    -1.698102  1.270977  1.952033
C    -1.339280  2.150990  0.737977
O    -0.258229  2.837942  0.682719
H    -1.385279  -0.828049  1.923558
H    -2.708984  0.885268  1.760435
C    -1.768473  2.078735  3.271329
C    -2.557165  1.351057  4.377561
C    -2.800448  2.242126  5.608116
N    -3.621223  1.537626  6.597403
C    -3.731071  1.861773  7.904180
N    -4.368374  1.029434  8.732882
N    -3.182354  2.987089  8.376348
H    -2.261533  3.034471  3.034455
H    -0.756323  2.326159  3.621697
H    -2.031470  0.437144  4.691187
H    -3.533496  1.039476  3.970426
H    -3.294058  3.177565  5.293523
H    -1.843111  2.504809  6.081969
H    -4.299477  0.867064  6.248141
H    -4.575568  0.071116  8.475149
H    -4.657455  1.325379  9.659637
H    -3.136790  3.158999  9.375827
H    -2.995252  3.780295  7.775408
N    -2.219156  2.222767  -0.240965
C    -2.093370  3.031920  -1.459623
H    -3.066357  1.662579  -0.160117
H    -3.061738  3.499631  -1.668788
H    -1.820388  2.385677  -2.304412
H    -1.331443  3.800618  -1.315309
Pb    1.850020  2.799613  1.422008
