37
Energy: -611339.435966 eV PBE+vdW (tier 2 basis)
C    -0.636720  -0.222708  0.200525
C    -0.241109  0.400093  1.494919
O    0.956656  0.837570  1.642672
H    -0.559169  0.549665  -0.581871
H    -1.655105  -0.625230  0.196637
H    0.073893  -1.012741  -0.075944
N    -1.159150  0.505705  2.462355
C    -1.180829  1.328681  3.687920
C    0.073826  1.218525  4.555800
O    0.904080  0.242064  4.437374
H    -2.076859  0.150974  2.199862
H    -1.246961  2.382193  3.365250
C    -2.488065  1.027398  4.476663
C    -2.633184  -0.366134  5.114636
C    -3.990738  -0.478581  5.834203
N    -4.171465  -1.797201  6.445480
C    -5.362223  -2.344862  6.778231
N    -5.405893  -3.619974  7.176979
N    -6.491494  -1.635331  6.683503
H    -3.318987  1.216795  3.777692
H    -2.591582  1.800072  5.249962
H    -1.819049  -0.538038  5.837235
H    -2.560804  -1.162492  4.358674
H    -4.803626  -0.328655  5.108451
H    -4.070294  0.314681  6.597210
H    -3.350685  -2.249915  6.836379
H    -4.632568  -4.256549  7.021983
H    -6.231112  -4.004429  7.625614
H    -7.396107  -2.086688  6.777469
H    -6.490989  -0.622753  6.700930
N    0.299711  2.144876  5.473798
C    -0.438282  3.373004  5.799639
H    1.115579  1.956249  6.059996
H    -1.118090  3.202220  6.644220
H    -1.000632  3.740773  4.936302
H    0.289171  4.138562  6.090449
Pb    2.607931  0.109850  2.940805
