37
Energy: -611339.232542 eV PBE+vdW (tier 2 basis)
C    -3.333812  1.671212  -0.252216
C    -2.316071  1.405836  0.792836
O    -1.859949  2.373006  1.500923
H    -2.943170  2.485521  -0.885047
H    -4.260121  2.065014  0.191871
H    -3.551545  0.806536  -0.885138
N    -1.819051  0.166410  1.012247
C    -2.661165  -1.018366  1.198248
C    -3.313697  -0.863791  2.609667
O    -2.970564  0.094937  3.389751
H    -0.985847  0.167090  1.604171
H    -3.472466  -0.983271  0.455057
C    -1.847219  -2.322636  1.013920
C    -1.301349  -2.476280  -0.419351
C    -0.282761  -3.610452  -0.639010
N    -0.889906  -4.934378  -0.817706
C    -0.353727  -5.937111  -1.549243
N    -1.097839  -7.012563  -1.831295
N    0.899374  -5.855847  -2.005894
H    -2.494403  -3.169747  1.286272
H    -1.020259  -2.332350  1.743161
H    -0.779416  -1.548453  -0.695644
H    -2.128408  -2.583992  -1.137778
H    0.448712  -3.628745  0.186642
H    0.267260  -3.382986  -1.561739
H    -1.690931  -5.184943  -0.248376
H    -0.677672  -7.862336  -2.193784
H    -2.109362  -6.993106  -1.773657
H    1.241989  -6.511128  -2.701558
H    1.587659  -5.245570  -1.582189
N    -4.235222  -1.725487  2.984573
C    -4.950181  -1.698601  4.270680
H    -4.504035  -2.453962  2.326212
H    -5.436781  -2.667234  4.412701
H    -5.714385  -0.910785  4.263637
H    -4.242570  -1.520999  5.086486
Pb    -2.127068  2.203337  3.745262
