37
Energy: -611339.137986 eV PBE+vdW (tier 2 basis)
C    -0.161804  0.704546  -0.235093
C    -0.009932  0.183404  1.143771
O    1.136628  -0.224147  1.552948
H    0.509456  1.555967  -0.416299
H    -1.191875  0.958246  -0.501207
H    0.184687  -0.092895  -0.915442
N    -1.060770  0.082187  1.991307
C    -1.968351  1.201043  2.258746
C    -1.267773  2.065053  3.353842
O    -0.057502  1.822389  3.706433
H    -0.857545  -0.495175  2.808275
H    -1.967673  1.835119  1.358022
C    -3.435756  0.780780  2.494654
C    -3.747202  -0.172839  3.661130
C    -5.253245  -0.500804  3.678625
N    -5.601261  -1.425770  4.759079
C    -6.691067  -2.226743  4.776582
N    -6.811484  -3.143504  5.741867
N    -7.627158  -2.129995  3.826937
H    -3.765411  0.325030  1.549169
H    -4.040820  1.696687  2.589918
H    -3.456352  0.283053  4.621828
H    -3.187371  -1.114998  3.557691
H    -5.528271  -0.976914  2.726256
H    -5.833398  0.433521  3.768699
H    -5.121539  -1.312997  5.647145
H    -7.693149  -3.616042  5.913483
H    -6.024990  -3.422396  6.317072
H    -8.356178  -2.831978  3.745294
H    -7.755277  -1.283957  3.285247
N    -1.919456  3.084051  3.873243
C    -1.365840  4.052354  4.831929
H    -2.866449  3.257395  3.541464
H    -2.197389  4.543412  5.345079
H    -0.773571  4.810611  4.302971
H    -0.736161  3.535189  5.561471
Pb    1.982089  0.804852  3.381971
