37
Energy: -611338.854082 eV PBE+vdW (tier 2 basis)
C    0.138874  0.374822  0.690914
C    -0.059813  -0.205673  2.043860
O    1.018392  -0.571669  2.726181
H    0.725060  -0.320012  0.073347
H    0.718875  1.306090  0.772143
H    -0.805611  0.592381  0.185128
N    -1.212791  -0.382448  2.618339
C    -2.579853  0.018029  2.240895
C    -3.192357  0.232889  3.671344
O    -2.680458  -0.421708  4.592431
H    -1.301252  -0.734168  3.615585
H    -2.559399  0.951246  1.661975
C    -3.290018  -1.125265  1.459875
C    -4.779990  -0.858351  1.174969
C    -5.563028  -2.042189  0.579523
N    -5.420651  -2.183028  -0.875125
C    -6.337537  -2.751025  -1.684836
N    -7.369881  -3.429909  -1.174945
N    -6.217698  -2.619050  -3.012395
H    -3.191426  -2.046319  2.054279
H    -2.726461  -1.287029  0.527086
H    -4.912332  0.027393  0.534029
H    -5.282971  -0.630738  2.124400
H    -6.628965  -1.872470  0.782587
H    -5.271862  -2.976881  1.087392
H    -4.535802  -1.936902  -1.304723
H    -8.153778  -3.701840  -1.759170
H    -7.355996  -3.800681  -0.232653
H    -6.768244  -3.186273  -3.648175
H    -5.654468  -1.885756  -3.426147
N    -4.207784  1.089010  3.796696
C    -4.867605  1.384529  5.073156
H    -4.496768  1.626447  2.984365
H    -5.953859  1.305338  4.952313
H    -4.616538  2.400691  5.401523
H    -4.526040  0.664249  5.820474
Pb    2.829718  -0.892716  3.756566
