37
Energy: -611338.561504 eV PBE+vdW (tier 2 basis)
C    0.113130  -0.307431  0.362796
C    -0.277367  0.615150  1.456525
O    0.313243  1.790430  1.539503
H    -0.255843  0.089100  -0.594991
H    -0.288008  -1.316022  0.492758
H    1.209216  -0.369081  0.315870
N    -1.140467  0.316119  2.403924
C    -2.163423  -0.751381  2.368073
C    -2.862505  -0.666793  0.962902
O    -2.898482  0.422984  0.395766
H    -1.308473  1.057369  3.087367
H    -1.662609  -1.717947  2.516721
C    -3.149425  -0.431376  3.521961
C    -4.350571  -1.363468  3.759783
C    -4.062782  -2.630255  4.579145
N    -5.333244  -3.287093  4.909905
C    -5.478605  -4.514465  5.446890
N    -6.700549  -5.047772  5.548513
N    -4.407945  -5.214187  5.843978
H    -3.556437  0.569217  3.309333
H    -2.566383  -0.349160  4.453649
H    -4.843151  -1.623739  2.812673
H    -5.082915  -0.762926  4.321118
H    -3.524005  -2.352479  5.501371
H    -3.437411  -3.343212  4.020907
H    -6.167746  -2.708253  4.881568
H    -6.875348  -5.863216  6.126175
H    -7.500214  -4.647801  5.070892
H    -4.502656  -6.181236  6.136532
H    -3.535273  -4.757026  6.076998
N    -3.394570  -1.791712  0.441494
C    -3.350363  -3.174246  0.906356
H    -3.887662  -1.621296  -0.435157
H    -3.245195  -3.834375  0.038003
H    -4.268742  -3.458003  1.438979
H    -2.486700  -3.349733  1.556728
Pb    1.320387  3.542797  0.878807
