37
Energy: -611338.898995 eV PBE+vdW (tier 2 basis)
C    0.041949  0.382145  0.119447
C    0.269826  -0.318580  1.409430
O    1.456793  -0.742185  1.670441
H    -0.838260  1.025947  0.120567
H    -0.025620  -0.344759  -0.705426
H    0.937957  0.987147  -0.082929
N    -0.674092  -0.491057  2.362171
C    -2.009934  -1.107042  2.204308
C    -1.721738  -2.631623  2.093216
O    -0.612620  -3.025136  1.567909
H    -0.250594  -0.738969  3.259514
H    -2.522926  -0.917550  3.157769
C    -2.888305  -0.501325  1.074737
C    -4.397469  -0.779515  1.226580
C    -5.330669  0.199923  0.493632
N    -5.375379  0.003205  -0.962250
C    -5.981421  0.865367  -1.816831
N    -5.982235  0.595551  -3.126225
N    -6.537879  1.993568  -1.368412
H    -2.528788  -0.822832  0.088303
H    -2.733827  0.585215  1.141099
H    -4.678716  -0.688148  2.285579
H    -4.645320  -1.811154  0.933481
H    -5.005000  1.231986  0.691149
H    -6.338739  0.077928  0.922973
H    -5.323358  -0.957510  -1.289956
H    -5.411876  -0.142304  -3.521802
H    -6.565806  1.116274  -3.773010
H    -6.873031  2.701502  -2.014676
H    -6.802236  2.113454  -0.397984
N    -2.565695  -3.541971  2.542313
C    -3.816236  -3.412645  3.299316
H    -2.259291  -4.503730  2.373434
H    -4.677046  -3.636687  2.657938
H    -3.920095  -2.412122  3.725288
H    -3.793571  -4.141978  4.117430
Pb    1.694049  -2.977192  1.704954
