37
Energy: -611338.187442 eV PBE+vdW (tier 2 basis)
C    -0.263026  -0.075654  -0.752676
C    -0.015742  -0.175191  0.706605
O    1.230247  -0.281244  1.128414
H    -1.300389  0.157886  -1.004856
H    0.005513  -1.033233  -1.226045
H    0.392864  0.696152  -1.177952
N    -0.945283  -0.188373  1.639554
C    -2.438628  -0.091096  1.602113
C    -3.097066  -0.708982  0.335002
O    -3.617097  0.020005  -0.520757
H    -0.574856  -0.264583  2.590369
H    -2.740102  -0.718666  2.454218
C    -2.948632  1.330666  1.906468
C    -2.567105  2.472150  0.935099
C    -3.738937  3.399070  0.589158
N    -4.717250  2.699215  -0.245247
C    -5.850617  3.238205  -0.725210
N    -6.625629  2.512304  -1.543450
N    -6.209667  4.483347  -0.397210
H    -2.637011  1.590835  2.927896
H    -4.041772  1.219846  1.964362
H    -2.155257  2.086319  -0.006532
H    -1.786737  3.098420  1.385962
H    -3.352707  4.280476  0.052623
H    -4.217333  3.754610  1.517950
H    -4.483321  1.733607  -0.500979
H    -7.504671  2.869344  -1.900464
H    -6.340736  1.594434  -1.862003
H    -5.676233  5.041106  0.256870
H    -7.047920  4.909106  -0.776991
N    -3.098648  -2.050979  0.238423
C    -2.693543  -3.046155  1.234077
H    -3.604487  -2.396263  -0.577122
H    -3.349046  -3.032522  2.115880
H    -1.650548  -2.911032  1.546535
H    -2.772567  -4.036090  0.775291
Pb    3.363197  -0.474660  1.192595
