37
Energy: -611339.815417 eV PBE+vdW (tier 2 basis)
C    1.135487  -0.214434  0.519635
C    0.243471  -0.477016  1.684470
O    0.063959  -1.684834  2.071720
H    0.789337  -0.814729  -0.334276
H    2.150895  -0.566931  0.753604
H    1.181496  0.839901  0.227419
N    -0.351718  0.562084  2.281148
C    -1.355039  0.612162  3.372492
C    -0.804368  0.096457  4.716318
O    -0.551753  -1.141573  4.935211
H    -0.111508  1.468488  1.884668
H    -1.518437  1.689828  3.511450
C    -2.738270  0.010331  3.009777
C    -3.476228  0.863551  1.952326
C    -5.013437  0.747610  1.926019
N    -5.529454  -0.366000  1.122585
C    -6.735268  -0.374053  0.509673
N    -7.014840  -1.340170  -0.373206
N    -7.637278  0.577718  0.763370
H    -3.325155  -0.005811  3.941529
H    -2.627478  -1.035637  2.690035
H    -3.075981  0.683998  0.943941
H    -3.276717  1.924171  2.169662
H    -5.402001  1.670512  1.475142
H    -5.402426  0.694702  2.957009
H    -5.037828  -1.252700  1.142208
H    -7.963011  -1.494071  -0.700904
H    -6.284804  -1.881174  -0.821383
H    -8.459286  0.684548  0.176955
H    -7.612166  1.133192  1.610065
N    -0.652133  0.980734  5.682405
C    -0.195215  0.700147  7.048938
H    -0.859513  1.955645  5.470837
H    -0.811067  1.277577  7.747289
H    0.852320  1.010897  7.158524
H    -0.293251  -0.366721  7.259656
Pb    0.132665  -2.983397  3.877687
