37
Energy: -611339.598335 eV PBE+vdW (tier 2 basis)
C    -0.164095  1.517887  0.830642
C    -0.264599  0.189894  1.499684
O    0.760477  -0.574557  1.519551
H    0.628334  2.108256  1.313201
H    -1.097193  2.090876  0.842520
H    0.155493  1.365103  -0.210863
N    -1.436112  -0.163287  2.045878
C    -1.870170  -1.434674  2.674866
C    -1.101960  -1.716522  3.977682
O    0.114426  -2.130956  3.972366
H    -2.163997  0.543757  1.969287
H    -2.909525  -1.235273  2.962680
C    -1.891928  -2.657114  1.723947
C    -2.868952  -2.479033  0.546466
C    -2.933417  -3.665177  -0.439283
N    -3.724350  -4.820948  0.002957
C    -4.890359  -5.235631  -0.545684
N    -5.264727  -6.510558  -0.402041
N    -5.677029  -4.386704  -1.214305
H    -2.178493  -3.525980  2.337415
H    -0.880993  -2.861882  1.342275
H    -2.567744  -1.601053  -0.044443
H    -3.880677  -2.268257  0.926982
H    -1.921268  -4.025034  -0.676512
H    -3.350596  -3.317927  -1.392685
H    -3.258716  -5.507023  0.587991
H    -6.212099  -6.808905  -0.612233
H    -4.601198  -7.241793  -0.171168
H    -6.449534  -4.726083  -1.778479
H    -5.576660  -3.382954  -1.139143
N    -1.709261  -1.579525  5.140184
C    -3.082876  -1.141257  5.439104
H    -1.129183  -1.825047  5.946365
H    -3.165846  -1.031125  6.524200
H    -3.814753  -1.890835  5.113513
H    -3.295421  -0.167735  4.982796
Pb    2.017006  -1.866927  2.826286
