37
Energy: -611338.762491 eV PBE+vdW (tier 2 basis)
C    -2.204451  1.740240  0.148498
C    -1.218272  1.115238  1.063800
O    -0.369478  1.882381  1.715460
H    -1.720295  2.532865  -0.435898
H    -3.009942  2.190428  0.750513
H    -2.658949  1.023303  -0.540997
N    -1.117253  -0.182049  1.252699
C    -2.083038  -1.220369  0.835115
C    -3.499755  -0.779205  1.350569
O    -3.559015  -0.133559  2.394828
H    -0.419969  -0.472753  1.940845
H    -2.053569  -1.287035  -0.261596
C    -1.625481  -2.555674  1.468351
C    -2.439521  -3.792387  1.053279
C    -1.868900  -5.070379  1.690604
N    -2.620090  -6.251208  1.254422
C    -2.701981  -7.421277  1.919672
N    -3.563653  -8.355302  1.501578
N    -1.952802  -7.644738  3.005423
H    -1.667725  -2.438795  2.563499
H    -0.570567  -2.712514  1.190423
H    -2.421955  -3.895612  -0.043381
H    -3.489422  -3.684081  1.359420
H    -1.947076  -5.003223  2.785444
H    -0.802585  -5.177880  1.429168
H    -2.963213  -6.257331  0.298474
H    -3.507439  -9.312082  1.833926
H    -4.311490  -8.139999  0.852549
H    -2.125024  -8.450739  3.597162
H    -1.097391  -7.131214  3.176371
N    -4.583875  -1.125543  0.626637
C    -4.709238  -1.803908  -0.660628
H    -5.456071  -0.843471  1.074829
H    -5.029716  -2.846802  -0.536274
H    -3.766771  -1.789696  -1.217004
H    -5.461329  -1.284945  -1.266180
Pb    0.434714  3.679202  2.532534
