37
Energy: -611338.741181 eV PBE+vdW (tier 2 basis)
C    0.650494  1.087536  0.493454
C    0.120344  0.076645  1.438332
O    0.967223  -0.665127  2.124642
H    -0.137584  1.604977  -0.061923
H    1.310775  0.587192  -0.230666
H    1.262120  1.816332  1.045950
N    -1.160405  -0.157543  1.648494
C    -2.390539  0.508650  1.121661
C    -2.477406  0.453091  -0.444569
O    -2.140618  1.440117  -1.110647
H    -1.343473  -0.901346  2.324906
H    -3.200959  -0.106935  1.536713
C    -2.560290  1.952765  1.611510
C    -3.997344  2.463598  1.330805
C    -4.084006  3.923456  0.880465
N    -3.594454  4.086560  -0.493688
C    -3.832397  5.156717  -1.269202
N    -3.495245  5.119849  -2.566910
N    -4.402845  6.255305  -0.763232
H    -1.817205  2.583893  1.105838
H    -2.348962  1.999620  2.687765
H    -4.602086  2.360574  2.240559
H    -4.497323  1.843453  0.570621
H    -3.515244  4.569163  1.571095
H    -5.138201  4.235523  0.921345
H    -3.045826  3.321244  -0.890671
H    -3.552459  5.945867  -3.151453
H    -3.259444  4.248545  -3.025014
H    -4.707403  7.013939  -1.363107
H    -4.519318  6.389479  0.232988
N    -2.937188  -0.694692  -0.960417
C    -3.128775  -0.917552  -2.395771
H    -3.282196  -1.412356  -0.329200
H    -2.943097  -1.972537  -2.621433
H    -2.427842  -0.289679  -2.952704
H    -4.155320  -0.666124  -2.693657
Pb    2.759618  -1.509646  2.928060
