37
Energy: -611338.773311 eV PBE+vdW (tier 2 basis)
C    0.065718  -0.249074  0.789334
C    0.058530  0.620771  1.993959
O    1.171687  0.707031  2.709540
H    0.847154  0.090425  0.093873
H    -0.892578  -0.256626  0.263538
H    0.314658  -1.279541  1.082209
N    -0.966411  1.311988  2.405306
C    -2.282809  1.543886  1.781146
C    -2.657875  2.927483  2.392768
O    -2.124776  3.224799  3.473274
H    -0.911236  1.957594  3.236033
H    -2.161545  1.605536  0.692239
C    -3.323904  0.440233  2.119003
C    -3.730139  0.292664  3.603742
C    -5.036922  0.973545  4.036135
N    -6.213008  0.236152  3.548020
C    -7.491637  0.646506  3.688930
N    -8.481483  -0.088704  3.170762
N    -7.769368  1.800525  4.306784
H    -2.913994  -0.511295  1.752590
H    -4.207300  0.632661  1.493002
H    -2.943552  0.679659  4.265296
H    -3.800021  -0.777761  3.848752
H    -5.088765  2.004383  3.655555
H    -5.049230  1.019423  5.137198
H    -6.085985  -0.756980  3.374760
H    -8.300882  -0.859359  2.538141
H    -9.451798  0.086998  3.408883
H    -8.716098  2.165346  4.322705
H    -7.110530  2.230615  4.944368
N    -3.547574  3.701706  1.758117
C    -4.093768  3.536573  0.408199
H    -3.699402  4.601963  2.212568
H    -4.929344  4.232728  0.290554
H    -4.481837  2.523973  0.249893
H    -3.347022  3.769582  -0.363051
Pb    3.159691  0.740893  3.426340
