37
Energy: -611338.568199 eV PBE+vdW (tier 2 basis)
C    -2.255864  0.088943  0.690851
C    -1.593648  0.220473  2.013111
O    -0.335081  0.486254  2.026768
H    -2.255756  1.072229  0.196093
H    -3.282338  -0.285782  0.751130
H    -1.654489  -0.573793  0.053651
N    -2.312798  0.081322  3.131012
C    -1.920823  -0.005595  4.561109
C    -0.972383  1.101286  5.038059
O    -1.275422  1.608315  6.227205
H    -3.305656  -0.078833  2.973054
H    -2.854676  0.190509  5.103405
C    -1.474892  -1.437208  4.986724
C    -0.248697  -2.051106  4.295444
C    0.200685  -3.393744  4.910514
N    -0.682576  -4.539423  4.652471
C    -0.356038  -5.654131  3.960630
N    -1.026795  -6.787767  4.189652
N    0.613742  -5.636006  3.040044
H    -2.356093  -2.080251  4.839266
H    -1.311789  -1.395605  6.075892
H    0.615606  -1.374790  4.377424
H    -0.436773  -2.191235  3.220791
H    0.303855  -3.293848  6.001554
H    1.201538  -3.646767  4.540274
H    -1.503833  -4.628456  5.242593
H    -0.960218  -7.577615  3.555660
H    -1.558301  -6.933755  5.040766
H    0.979519  -4.773127  2.659961
H    0.985523  -6.498867  2.656925
N    0.038772  1.478397  4.329947
C    0.895542  2.539595  4.781404
H    -0.020324  0.858355  2.976391
H    1.688001  2.752361  4.052036
H    1.423431  2.278597  5.729526
H    0.337068  3.503952  4.886931
Pb    -0.527691  3.244330  7.416062
