37
Energy: -611340.124471 eV PBE+vdW (tier 2 basis)
C    0.042663  0.993516  0.824228
C    -0.472580  0.374530  2.077887
O    -0.489365  -0.899938  2.177562
H    1.083228  0.676243  0.663774
H    -0.005126  2.087449  0.819637
H    -0.535008  0.600390  -0.025441
N    -0.915116  1.179949  3.054170
C    -1.561014  0.857198  4.350629
C    -0.584890  0.136733  5.304861
O    -0.275477  -1.096650  5.151867
H    -0.815295  2.173119  2.857208
H    -1.763890  1.841698  4.794162
C    -2.903308  0.100181  4.216814
C    -4.052908  0.879253  3.538996
C    -4.907314  1.733472  4.492563
N    -6.067404  2.266595  3.771660
C    -6.881281  3.256797  4.197506
N    -7.789198  3.763451  3.358838
N    -6.759045  3.754339  5.434524
H    -3.206546  -0.219467  5.225726
H    -2.736950  -0.823866  3.648566
H    -4.711294  0.130972  3.073059
H    -3.673641  1.502488  2.715022
H    -4.334358  2.583004  4.895273
H    -5.234215  1.109386  5.342027
H    -6.394568  1.736698  2.968787
H    -7.755762  3.584997  2.361199
H    -8.552457  4.343311  3.692700
H    -7.276747  4.583632  5.708548
H    -6.361416  3.206501  6.187791
N    -0.103516  0.819470  6.324729
C    0.808242  0.303121  7.353680
H    -0.370067  1.798722  6.409750
H    1.833775  0.632065  7.139382
H    0.762594  -0.787914  7.372357
H    0.501074  0.705699  8.324861
Pb    -0.038820  -2.618141  3.523100
