37
Energy: -611339.335066 eV PBE+vdW (tier 2 basis)
C    -0.298894  -2.988921  2.487089
C    -0.217529  -1.583276  2.021008
O    0.890496  -1.125226  1.565807
H    0.534124  -3.146349  3.191833
H    -0.116183  -3.688319  1.657561
H    -1.239028  -3.233340  2.988980
N    -1.277489  -0.744876  2.083236
C    -2.607473  -1.093736  1.576540
C    -2.489407  -1.104425  0.017361
O    -1.406670  -0.731106  -0.561385
H    -1.026667  0.233270  1.925023
H    -2.838448  -2.122286  1.893512
C    -3.693732  -0.132874  2.108083
C    -3.933487  -0.244775  3.624963
C    -5.087603  0.662783  4.085906
N    -5.326769  0.512968  5.523634
C    -5.980661  1.399377  6.305478
N    -5.981439  1.227012  7.630982
N    -6.598137  2.457677  5.768833
H    -4.630764  -0.347680  1.573127
H    -3.425280  0.900057  1.831644
H    -3.020885  0.018369  4.179490
H    -4.173658  -1.291097  3.875705
H    -6.000959  0.418646  3.516581
H    -4.836827  1.715705  3.889218
H    -5.156294  -0.400483  5.933685
H    -6.621506  1.738385  8.229777
H    -5.333605  0.596434  8.089427
H    -6.956740  3.201439  6.359128
H    -6.895062  2.468300  4.800956
N    -3.515713  -1.516519  -0.695299
C    -3.555274  -1.600104  -2.163853
H    -4.347014  -1.831272  -0.198145
H    -4.601870  -1.652924  -2.475945
H    -3.032755  -2.502734  -2.506277
H    -3.086776  -0.712554  -2.599592
Pb    0.857506  -0.365760  -0.570518
