37
Energy: -611338.692756 eV PBE+vdW (tier 2 basis)
C    -0.120942  1.760622  1.336781
C    -0.667565  0.579145  2.106996
O    -0.202201  0.515537  3.397213
H    -0.488793  1.766214  0.305322
H    0.974634  1.734130  1.309143
H    -0.461484  2.683927  1.821533
N    -2.080616  0.358385  2.048025
C    -2.408040  -0.589040  0.971166
C    -1.076211  -1.305472  0.763713
O    -0.084052  -0.707178  1.355200
H    -2.419514  0.034671  2.953411
H    -3.157701  -1.304880  1.341347
C    -2.949832  0.064596  -0.326589
C    -4.349986  0.670445  -0.137578
C    -4.900897  1.254064  -1.447655
N    -6.260672  1.768556  -1.254460
C    -6.900372  2.621127  -2.079368
N    -8.074454  3.142628  -1.705899
N    -6.358325  2.971184  -3.251619
H    -2.981386  -0.701308  -1.115705
H    -2.243367  0.833319  -0.671160
H    -4.319168  1.454854  0.632063
H    -5.035895  -0.114052  0.223431
H    -4.895124  0.478083  -2.232145
H    -4.264014  2.084841  -1.786222
H    -6.826771  1.330081  -0.534409
H    -8.677206  3.615669  -2.370488
H    -8.402345  3.089314  -0.748543
H    -6.762037  3.717820  -3.807424
H    -5.650517  2.404308  -3.701372
N    -0.856180  -2.398266  0.082481
C    -1.839012  -3.253135  -0.595206
H    0.118717  -2.702552  0.027965
H    -1.619840  -4.297301  -0.345637
H    -1.762514  -3.123613  -1.681804
H    -2.851840  -3.016835  -0.258811
Pb    1.134285  0.755130  4.969460
