37
Energy: -611338.561792 eV PBE+vdW (tier 2 basis)
C    -0.266297  0.093436  -0.358537
C    -0.251845  0.256354  1.130024
O    0.771586  0.332501  1.808345
H    -1.271264  0.053438  -0.792480
H    0.271801  -0.829999  -0.614607
H    0.293143  0.918179  -0.819895
N    -1.499459  0.297276  1.766714
C    -1.540856  0.652694  3.176314
C    -2.452445  -0.310828  3.922769
O    -2.816359  -0.055619  5.146124
H    -2.286618  0.581032  1.183330
H    -0.518804  0.415206  3.541404
C    -1.831275  2.149216  3.455417
C    -0.807399  3.112989  2.825896
C    0.566368  3.144793  3.522288
N    1.511621  4.035585  2.851286
C    2.648629  3.682072  2.215202
N    3.551106  4.631824  1.937078
N    2.882699  2.416074  1.859572
H    -1.870748  2.304393  4.543527
H    -2.830801  2.396858  3.067465
H    -1.247041  4.120072  2.862076
H    -0.673520  2.890892  1.757390
H    1.020800  2.148497  3.573114
H    0.454569  3.496824  4.559167
H    1.338864  5.033548  2.933675
H    4.319052  4.459552  1.297380
H    3.529367  5.539911  2.387467
H    2.157224  1.696663  1.838933
H    3.808512  2.141170  1.550523
N    -2.832658  -1.424341  3.335097
C    -3.638880  -2.473617  3.938169
H    -2.480238  -1.538857  2.377870
H    -3.778363  -3.285448  3.215754
H    -4.644114  -2.098015  4.195881
H    -3.127808  -2.909728  4.815079
Pb    -3.874200  -0.713373  6.917716
