37
Energy: -611338.817574 eV PBE+vdW (tier 2 basis)
C    -1.537100  -1.500011  1.696341
C    -1.604759  -1.374976  3.175158
O    -1.059578  -2.347246  3.898786
H    -2.095533  -2.392925  1.378489
H    -0.493461  -1.643064  1.383094
H    -1.945844  -0.627308  1.181472
N    -2.159568  -0.396291  3.828382
C    -2.633031  0.932525  3.406478
C    -2.179980  1.779913  4.653580
O    -1.945784  1.144739  5.696984
H    -2.038825  -0.292222  4.888277
H    -2.109666  1.249845  2.494114
C    -4.168672  1.046392  3.232361
C    -4.768666  0.298492  2.029675
C    -6.143618  0.811693  1.568300
N    -7.234356  0.541484  2.513017
C    -8.544220  0.529901  2.182323
N    -9.448041  0.146931  3.092381
N    -8.942276  0.872816  0.953835
H    -4.374841  2.122613  3.125914
H    -4.638195  0.738634  4.179543
H    -4.823121  -0.783578  2.221294
H    -4.115001  0.432772  1.154408
H    -6.391498  0.306731  0.624538
H    -6.075253  1.893968  1.362964
H    -7.032573  0.588844  3.506123
H    -10.440053  0.302216  2.947716
H    -9.181872  -0.355962  3.930368
H    -9.896742  0.708275  0.650704
H    -8.357879  1.417216  0.331498
N    -2.104038  3.101120  4.515178
C    -1.716543  4.015995  5.595083
H    -2.278033  3.508495  3.600315
H    -0.768656  4.507717  5.345223
H    -1.602202  3.442527  6.517882
H    -2.493103  4.778256  5.727824
Pb    0.154606  -3.761638  4.884230
