37
Energy: -611339.289115 eV PBE+vdW (tier 2 basis)
C    0.363857  0.407412  0.223370
C    0.049378  0.057006  1.629530
O    0.994393  -0.250217  2.438711
H    1.004107  1.300625  0.175356
H    -0.520151  0.536532  -0.406918
H    0.975566  -0.413501  -0.186573
N    -1.222840  0.024312  2.092058
C    -2.174901  1.124980  1.906206
C    -1.633800  2.314280  2.751087
O    -0.713315  2.111236  3.629769
H    -1.303411  -0.422675  3.007554
H    -2.163803  1.423859  0.847602
C    -3.603938  0.698019  2.312839
C    -4.228076  -0.345088  1.367892
C    -5.669752  -0.695016  1.776957
N    -6.255572  -1.659560  0.842522
C    -7.306817  -2.466616  1.103284
N    -7.625215  -3.428314  0.231291
N    -8.007121  -2.331459  2.235182
H    -4.235601  1.596683  2.341371
H    -3.578905  0.320004  3.348285
H    -3.623156  -1.263489  1.352115
H    -4.230968  0.056170  0.341067
H    -6.279452  0.223963  1.814494
H    -5.675116  -1.145933  2.780232
H    -5.972847  -1.598238  -0.131140
H    -6.986581  -3.721744  -0.499174
H    -8.518305  -3.908089  0.277213
H    -8.027355  -1.458723  2.748443
H    -8.695013  -3.028091  2.503541
N    -2.094411  3.536755  2.584247
C    -3.103082  4.041015  1.646262
H    -1.682132  4.234462  3.209118
H    -4.050789  4.218949  2.171090
H    -3.260299  3.342712  0.819796
H    -2.746806  4.993006  1.236800
Pb    1.194643  1.039368  4.299573
