37
Energy: -611339.587115 eV PBE+vdW (tier 2 basis)
C    0.688903  1.724410  0.761631
C    0.272090  1.137432  2.062898
O    1.114990  1.060643  3.020183
H    -0.108050  1.731965  0.010745
H    1.554995  1.170998  0.371524
H    1.031271  2.755908  0.935421
N    -0.991331  0.711904  2.220566
C    -1.570402  0.238833  3.486625
C    -0.975461  -1.145554  3.853675
O    -0.041232  -1.172915  4.736496
H    -1.615046  0.825227  1.423564
H    -1.181862  0.896383  4.278972
C    -3.107809  0.404049  3.487899
C    -3.764747  -0.022741  4.815704
C    -5.132856  0.611373  5.117816
N    -6.220480  0.105009  4.268673
C    -7.433045  0.703911  4.157241
N    -8.348056  0.176264  3.338370
N    -7.704489  1.829525  4.823060
H    -3.563351  -0.118492  2.636233
H    -3.285398  1.477962  3.321882
H    -3.120654  0.276546  5.656747
H    -3.840412  -1.119983  4.883583
H    -5.068597  1.699542  4.972623
H    -5.361267  0.425820  6.179978
H    -6.221995  -0.894996  4.085910
H    -8.112241  -0.538281  2.659935
H    -9.317077  0.477174  3.364775
H    -8.550532  2.356298  4.628343
H    -7.190470  2.098436  5.653410
N    -1.355101  -2.284534  3.308525
C    -2.348394  -2.555126  2.264388
H    -0.858165  -3.101572  3.672485
H    -2.056812  -3.480256  1.756901
H    -2.370928  -1.753110  1.521710
H    -3.344115  -2.701284  2.701489
Pb    1.842618  0.071595  4.895210
