37
Energy: -611338.670859 eV PBE+vdW (tier 2 basis)
C    -0.465987  2.312127  1.693986
C    -0.157949  1.265464  0.680594
O    0.981246  1.354525  0.018017
H    -0.525792  3.279080  1.168572
H    0.327657  2.369668  2.447852
H    -1.418017  2.150287  2.206107
N    -1.078551  0.438128  0.177744
C    -2.006741  -0.255630  1.077554
C    -1.104355  -0.701618  2.302475
O    0.098571  -0.385817  2.271186
H    -0.738730  -0.130158  -0.600141
H    -2.752702  0.459979  1.457528
C    -2.719161  -1.392815  0.317517
C    -3.782498  -0.896868  -0.679837
C    -4.394921  -1.990221  -1.576083
N    -5.311005  -2.927229  -0.909987
C    -6.650148  -2.975398  -1.079115
N    -7.307509  -4.107258  -0.802652
N    -7.328444  -1.903908  -1.503285
H    -3.181222  -2.061183  1.054539
H    -1.956836  -2.002003  -0.197322
H    -3.339111  -0.154175  -1.361313
H    -4.581437  -0.369702  -0.135046
H    -3.600293  -2.590147  -2.043125
H    -4.936876  -1.519983  -2.406655
H    -4.899533  -3.749617  -0.480772
H    -8.319206  -4.124002  -0.725469
H    -6.835087  -5.003474  -0.763258
H    -8.292494  -1.983744  -1.809227
H    -6.925315  -0.976286  -1.502182
N    -1.654037  -1.346412  3.333289
C    -3.055272  -1.662372  3.608682
H    -0.982302  -1.605767  4.055442
H    -3.219544  -1.573972  4.688133
H    -3.304285  -2.689057  3.308462
H    -3.727460  -0.953522  3.114149
Pb    3.077369  1.644271  0.114726
