37
Energy: -611340.179634 eV PBE+vdW (tier 2 basis)
C    1.633703  1.338341  1.059603
C    1.033419  0.181146  1.781990
O    1.807922  -0.666225  2.348144
H    2.218320  1.943395  1.768085
H    0.897422  1.979474  0.563784
H    2.347953  0.958759  0.314627
N    -0.299728  0.061235  1.802402
C    -1.163879  -1.011957  2.351538
C    -1.076550  -1.102868  3.888080
O    -0.054776  -1.589149  4.490786
H    -0.798459  0.812631  1.330551
H    -2.180576  -0.661960  2.125196
C    -0.998629  -2.388681  1.661267
C    -1.593708  -2.419575  0.239305
C    -1.613254  -3.838623  -0.360484
N    -2.389081  -3.885144  -1.606716
C    -2.111231  -4.601110  -2.720156
N    -3.113015  -4.968666  -3.523638
N    -0.854259  -4.933018  -3.037307
H    -1.517494  -3.128864  2.290379
H    0.061107  -2.681174  1.644996
H    -1.046086  -1.742599  -0.432559
H    -2.630183  -2.046885  0.284351
H    -2.056448  -4.546405  0.359038
H    -0.595166  -4.194113  -0.558675
H    -3.353286  -3.570703  -1.535606
H    -2.941345  -5.280276  -4.474587
H    -4.077013  -4.982821  -3.208726
H    -0.666572  -5.586657  -3.790419
H    -0.059350  -4.430515  -2.665004
N    -2.126669  -0.708982  4.580573
C    -2.264486  -0.751505  6.041645
H    -2.920306  -0.330111  4.066149
H    -1.525002  -1.435904  6.462483
H    -3.275036  -1.096614  6.286241
H    -2.122613  0.255939  6.454903
Pb    2.155351  -1.786814  4.240758
