37
Energy: -611340.430114 eV PBE+vdW (tier 2 basis)
C    -1.439409  -0.180392  -0.295782
C    -1.240763  -0.724222  1.075611
O    -0.667390  -1.857546  1.226091
H    -1.913097  0.806704  -0.311560
H    -2.046068  -0.883771  -0.884057
H    -0.460748  -0.123281  -0.795310
N    -1.645850  -0.002247  2.129656
C    -1.434431  -0.319675  3.554458
C    -2.465652  -1.388841  3.995229
O    -2.254477  -2.617917  3.697790
H    -2.120749  0.873819  1.918774
H    -0.455872  -0.818933  3.631567
C    -1.402233  0.963111  4.409442
C    -0.166597  1.855861  4.174314
C    -0.149542  3.057123  5.137675
N    1.055955  3.866754  4.945904
C    1.193469  5.165144  5.296144
N    2.281952  5.834717  4.905029
N    0.241225  5.788643  5.998634
H    -1.418066  0.651697  5.464879
H    -2.320315  1.552488  4.238647
H    -0.135328  2.225073  3.138610
H    0.743239  1.253794  4.329472
H    -0.210666  2.697099  6.178957
H    -1.022689  3.698889  4.949172
H    1.915847  3.376693  4.717010
H    2.892530  5.484788  4.175394
H    2.527989  6.729153  5.316768
H    0.267767  6.795743  6.124818
H    -0.409475  5.279616  6.584313
N    -3.545196  -1.039053  4.660473
C    -4.610169  -1.942225  5.117432
H    -3.662114  -0.052972  4.885831
H    -4.269896  -2.977003  5.045764
H    -5.504849  -1.798536  4.497712
H    -4.853141  -1.700201  6.158041
Pb    -0.942188  -3.801092  2.302097
