37
Energy: -611338.716607 eV PBE+vdW (tier 2 basis)
C    -1.107972  1.082545  1.647855
C    -0.494590  -0.046877  2.444588
O    -0.001173  0.350924  3.658025
H    -1.460853  0.741652  0.669239
H    -0.377841  1.884231  1.486651
H    -1.974058  1.469441  2.199546
N    -1.237818  -1.260235  2.550296
C    -0.883303  -2.179992  1.457442
C    0.495993  -1.658661  1.040106
O    0.789855  -0.510835  1.563381
H    -1.076018  -1.682329  3.464262
H    -0.784394  -3.194713  1.870473
C    -1.880309  -2.198574  0.269005
C    -3.307317  -2.669789  0.614743
C    -3.524349  -4.188093  0.510624
N    -4.930457  -4.518260  0.766650
C    -5.625390  -5.535920  0.221908
N    -6.959132  -5.550463  0.325246
N    -4.998100  -6.518367  -0.436276
H    -1.457691  -2.826151  -0.531468
H    -1.941147  -1.188472  -0.155752
H    -3.999850  -2.180612  -0.083769
H    -3.576709  -2.311486  1.620742
H    -2.873668  -4.736777  1.212777
H    -3.280781  -4.522722  -0.508100
H    -5.421944  -3.957585  1.456108
H    -7.494019  -6.390314  0.130922
H    -7.485616  -4.718450  0.565730
H    -5.523213  -7.191759  -0.984334
H    -4.022339  -6.730444  -0.270973
N    1.313392  -2.266125  0.221677
C    2.623526  -1.770585  -0.229365
H    1.027923  -3.180704  -0.123850
H    2.717938  -0.710915  0.017337
H    2.695679  -1.905793  -1.314019
H    3.421151  -2.343031  0.260028
Pb    0.801569  1.677659  5.044396
