37
Energy: -611339.499649 eV PBE+vdW (tier 2 basis)
C    0.708336  -1.306835  0.277603
C    0.432156  -0.928268  1.691928
O    1.252872  -1.289536  2.602352
H    1.676803  -0.885895  -0.029363
H    -0.065181  -0.982816  -0.426501
H    0.815014  -2.400447  0.221633
N    -0.682395  -0.231947  1.961849
C    -1.274102  0.179388  3.259070
C    -0.379810  1.209433  3.973859
O    0.685374  0.854002  4.596730
H    -1.231683  0.013018  1.141210
H    -2.194253  0.702427  2.971409
C    -1.665196  -0.997534  4.185607
C    -2.699056  -1.972033  3.575392
C    -4.189026  -1.666233  3.799945
N    -4.627804  -2.059203  5.147088
C    -5.877315  -1.867313  5.633990
N    -6.155747  -2.238044  6.886919
N    -6.814555  -1.274262  4.887012
H    -2.041085  -0.566461  5.126189
H    -0.763891  -1.563587  4.453934
H    -2.491136  -2.985288  3.950447
H    -2.543711  -2.052825  2.490189
H    -4.761123  -2.219914  3.037549
H    -4.404272  -0.594501  3.663662
H    -4.096157  -2.800054  5.595797
H    -7.111395  -2.280408  7.226459
H    -5.429719  -2.504935  7.541784
H    -7.715379  -1.028957  5.286346
H    -6.755196  -1.254929  3.875988
N    -0.717664  2.484178  3.990333
C    -1.871992  3.160586  3.378733
H    -0.076749  3.079929  4.520623
H    -1.678229  4.237021  3.405574
H    -2.789030  2.962159  3.947794
H    -1.994914  2.866810  2.330619
Pb    2.358894  -0.626129  4.419432
