37
Energy: -611338.928156 eV PBE+vdW (tier 2 basis)
C    -1.894892  0.603354  3.259048
C    -2.158255  -0.374485  4.347926
O    -1.708996  -0.142813  5.526809
H    -2.743574  0.705980  2.576490
H    -1.012075  0.288893  2.676220
H    -1.653844  1.574186  3.706907
N    -2.851444  -1.516676  4.149312
C    -2.640783  -2.453369  3.029184
C    -1.142183  -2.877773  3.094281
O    -0.436342  -2.620835  4.133580
H    -3.121237  -1.973816  5.020872
H    -3.202936  -3.352848  3.329784
C    -3.233517  -1.997919  1.665420
C    -3.661943  -3.163148  0.739618
C    -4.878140  -2.894439  -0.163586
N    -4.605510  -1.954402  -1.259335
C    -5.572283  -1.413084  -2.042959
N    -5.225898  -0.555502  -3.007623
N    -6.860115  -1.697980  -1.833768
H    -2.548589  -1.313883  1.147803
H    -4.127353  -1.413254  1.924903
H    -3.950373  -4.033743  1.348224
H    -2.828672  -3.507731  0.103419
H    -5.696722  -2.483280  0.445409
H    -5.211539  -3.865187  -0.566285
H    -3.688356  -2.015060  -1.693229
H    -4.295309  -0.158764  -3.063955
H    -5.886870  -0.269214  -3.722753
H    -7.590710  -1.190224  -2.323282
H    -7.152294  -2.526783  -1.330026
N    -0.613921  -3.555173  2.096717
C    0.756789  -4.091717  2.077221
H    -1.206734  -3.763013  1.297154
H    0.908511  -4.767656  2.926832
H    1.485213  -3.273846  2.123735
H    0.894323  -4.645494  1.145194
Pb    -0.117976  -1.614064  6.182548
