37
Energy: -611340.159250 eV PBE+vdW (tier 2 basis)
C    -1.900893  3.277356  3.507234
C    -2.020680  1.923943  2.899837
O    -2.666011  1.782372  1.804838
H    -2.901954  3.700359  3.669585
H    -1.398575  3.937993  2.783716
H    -1.342651  3.286612  4.449159
N    -1.423887  0.883301  3.498458
C    -1.276039  -0.478142  2.957386
C    -2.562423  -1.293545  3.225421
O    -3.626400  -0.991657  2.578838
H    -0.949381  1.086027  4.375118
H    -1.264136  -0.372167  1.860840
C    0.095177  -1.100197  3.324857
C    0.598377  -1.077040  4.785140
C    1.980231  -1.757494  4.873100
N    2.535274  -1.691250  6.226182
C    3.852155  -1.752730  6.534195
N    4.762129  -2.033004  5.595722
N    4.239697  -1.499006  7.787270
H    0.833176  -0.570492  2.704587
H    0.089701  -2.132482  2.941540
H    -0.097475  -1.579876  5.477723
H    0.705905  -0.044221  5.152309
H    2.677131  -1.241705  4.196803
H    1.898707  -2.804958  4.536561
H    1.895176  -1.813794  7.005304
H    5.753042  -1.919700  5.786739
H    4.523607  -2.543168  4.753801
H    3.630658  -1.039126  8.454635
H    5.172621  -1.736669  8.109303
N    -2.566364  -2.293990  4.080640
C    -3.714129  -3.152760  4.402193
H    -1.693475  -2.501759  4.558566
H    -3.405073  -4.201396  4.324719
H    -4.527599  -2.952107  3.702752
H    -4.048788  -2.949338  5.427368
Pb    -4.279828  0.473808  0.983558
