37
Energy: -611340.392308 eV PBE+vdW (tier 2 basis)
C    1.216843  -0.803684  -0.231537
C    0.772072  0.003540  0.936047
O    0.645605  1.271266  0.813873
H    2.176573  -0.417903  -0.602707
H    0.489548  -0.664839  -1.046465
H    1.311000  -1.872723  -0.013865
N    0.484028  -0.616141  2.088459
C    -0.120334  -0.010374  3.291848
C    0.974013  0.766527  4.061506
O    1.242372  1.971451  3.719610
H    0.620753  -1.625922  2.101270
H    -0.831637  0.755778  2.946718
C    -0.901898  -1.094984  4.062790
C    -1.823002  -0.572353  5.181275
C    -2.647940  -1.717370  5.798946
N    -3.548938  -1.220726  6.841150
C    -4.689219  -1.824292  7.244875
N    -5.519492  -1.170127  8.062797
N    -5.004541  -3.049821  6.812247
H    -0.211521  -1.861686  4.456463
H    -1.516285  -1.615545  3.311791
H    -2.511517  0.183078  4.773869
H    -1.232632  -0.078692  5.969868
H    -1.972774  -2.488789  6.207293
H    -3.262633  -2.187359  5.017507
H    -3.214995  -0.463974  7.430516
H    -6.264256  -1.652754  8.555279
H    -5.453676  -0.168412  8.203470
H    -5.927804  -3.436509  6.982226
H    -4.299584  -3.698116  6.482895
N    1.633864  0.185555  5.041099
C    2.738376  0.782692  5.804629
H    1.383632  -0.773978  5.271562
H    3.700047  0.461444  5.382836
H    2.672544  0.439972  6.842086
H    2.663530  1.872029  5.767101
Pb    1.069873  3.207743  1.831674
