37
Energy: -611338.967670 eV PBE+vdW (tier 2 basis)
C    -0.063494  -0.165949  -0.728587
C    0.091570  0.078484  0.726835
O    1.258907  0.073051  1.253509
H    0.425664  0.629672  -1.310566
H    -1.102860  -0.280726  -1.047662
H    0.491341  -1.087438  -0.968602
N    -0.974127  0.295948  1.532303
C    -2.029418  1.269920  1.223401
C    -1.338227  2.662905  1.179353
O    -0.171253  2.814079  1.703638
H    -0.738585  0.263926  2.526577
H    -2.447321  1.046479  0.231620
C    -3.127043  1.232948  2.314475
C    -3.948959  -0.065680  2.460261
C    -5.136190  -0.213861  1.481720
N    -6.214246  -1.049307  2.024771
C    -6.688400  -2.213513  1.533830
N    -7.938367  -2.583643  1.821187
N    -5.923251  -2.996194  0.758914
H    -3.807153  2.080499  2.148308
H    -2.637500  1.445635  3.278217
H    -4.357180  -0.050002  3.480832
H    -3.299725  -0.953282  2.419624
H    -4.836649  -0.628924  0.510969
H    -5.573128  0.776011  1.276376
H    -6.778805  -0.626143  2.756786
H    -8.630284  -1.922244  2.158041
H    -8.246198  -3.544085  1.703439
H    -6.330594  -3.783985  0.265313
H    -4.914554  -2.983109  0.835040
N    -1.926675  3.704784  0.629046
C    -3.231293  3.805089  -0.032932
H    -1.393113  4.575864  0.691633
H    -3.952831  4.297131  0.632396
H    -3.604119  2.818845  -0.321677
H    -3.115474  4.414906  -0.936069
Pb    1.913435  2.025362  2.220178
