37
Energy: -611340.042309 eV PBE+vdW (tier 2 basis)
C    -1.315731  -0.526548  -0.527111
C    -1.453536  -0.581649  0.954755
O    -1.080286  -1.637894  1.573182
H    -1.670702  0.410220  -0.969012
H    -1.877304  -1.366962  -0.962150
H    -0.262283  -0.682133  -0.800897
N    -1.977113  0.474292  1.590497
C    -2.352475  0.656824  3.014412
C    -1.111593  0.584561  3.924503
O    -0.629270  -0.540236  4.314944
H    -2.235859  1.248187  0.981461
H    -2.711242  1.692653  3.052989
C    -3.526459  -0.245070  3.459507
C    -4.220611  0.247928  4.744640
C    -5.536032  -0.508265  5.008236
N    -6.196697  -0.016353  6.219463
C    -7.527577  -0.030276  6.454487
N    -8.011551  0.636117  7.507088
N    -8.361834  -0.677469  5.633229
H    -3.197020  -1.287797  3.572911
H    -4.245617  -0.238383  2.627116
H    -4.448539  1.321385  4.656266
H    -3.548648  0.130252  5.610285
H    -5.343412  -1.591453  5.087809
H    -6.220802  -0.349191  4.163052
H    -5.608282  0.207613  7.016511
H    -8.956502  0.478779  7.842539
H    -7.465814  1.338067  7.994025
H    -9.366196  -0.553073  5.714072
H    -8.048923  -1.442395  5.048245
N    -0.542900  1.697809  4.344890
C    -0.897709  3.096588  4.051518
H    0.266814  1.555112  4.953298
H    -1.884969  3.348169  4.457518
H    -0.862604  3.294701  2.973831
H    -0.155751  3.735687  4.538521
Pb    -0.089971  -2.501801  3.357367
