37
Energy: -611339.049908 eV PBE+vdW (tier 2 basis)
C    -1.076010  -1.622663  1.956274
C    -0.279887  -0.658752  2.755115
O    0.920226  -0.950698  3.095443
H    -0.624898  -1.772637  0.963678
H    -2.128926  -1.346796  1.852307
H    -1.007140  -2.601216  2.458737
N    -0.793143  0.526338  3.165072
C    -1.469414  1.457200  2.254169
C    -0.362113  2.018266  1.301993
O    0.877059  1.749008  1.504593
H    -0.201361  0.998585  3.851850
H    -2.171042  0.882959  1.630396
C    -2.242763  2.564369  3.005315
C    -3.583903  2.148217  3.658408
C    -3.503666  1.719156  5.136809
N    -4.815384  1.404813  5.709411
C    -5.521769  2.148407  6.587447
N    -6.499268  1.572234  7.292660
N    -5.250629  3.447012  6.768781
H    -2.460615  3.357380  2.277645
H    -1.571203  3.037295  3.741254
H    -4.059028  1.348580  3.069586
H    -4.266682  3.006233  3.583750
H    -3.042397  2.505898  5.749881
H    -2.875346  0.824663  5.257103
H    -5.209439  0.495623  5.487515
H    -6.566246  0.565418  7.394736
H    -7.198081  2.126488  7.777319
H    -5.662424  3.957131  7.543561
H    -4.776979  3.998404  6.065384
N    -0.722941  2.762272  0.279224
C    0.188311  3.356850  -0.711135
H    -1.718221  2.929000  0.138228
H    -0.329845  4.188023  -1.197598
H    0.461526  2.611783  -1.469734
H    1.088677  3.727152  -0.212239
Pb    2.553299  0.427103  2.321932
