37
Energy: -611338.466022 eV PBE+vdW (tier 2 basis)
C    0.007759  -1.449807  -0.036537
C    0.244965  -0.328027  0.909939
O    1.344690  -0.341463  1.637755
H    0.803643  -1.477869  -0.792138
H    -0.951527  -1.386853  -0.555834
H    0.022965  -2.392011  0.533624
N    -0.653727  0.598953  1.203198
C    -1.663114  1.062285  0.244651
C    -0.868996  1.369372  -1.092499
O    0.362030  1.270719  -1.078708
H    -0.356456  1.271493  1.910811
H    -2.358421  0.233211  0.045157
C    -2.484393  2.241446  0.810304
C    -1.725934  3.568317  1.002765
C    -2.616095  4.819473  1.052511
N    -3.499239  4.860881  2.226350
C    -4.552415  5.698147  2.359740
N    -5.339943  5.596063  3.436367
N    -4.830889  6.599935  1.413221
H    -2.955892  1.907622  1.746373
H    -3.317077  2.401062  0.113446
H    -1.036154  3.734004  0.161580
H    -1.090832  3.546801  1.904408
H    -3.249273  4.849448  0.153208
H    -1.962017  5.706337  1.034829
H    -3.138406  4.470927  3.092090
H    -6.017250  6.315983  3.665051
H    -5.310467  4.786844  4.045152
H    -5.698959  7.125357  1.435356
H    -4.131034  6.914075  0.752034
N    -1.569090  1.699664  -2.187995
C    -3.013069  1.712924  -2.421021
H    -0.976675  1.910676  -2.990483
H    -3.191720  1.457676  -3.470936
H    -3.449935  2.703246  -2.234366
H    -3.526126  0.961270  -1.810804
Pb    3.340867  -1.014328  1.941233
