37
Energy: -611338.437477 eV PBE+vdW (tier 2 basis)
C    0.311382  1.248635  1.033265
C    -0.115640  0.553178  2.271641
O    0.812003  0.137691  3.113683
H    -0.512180  1.728734  0.498248
H    0.783608  0.515855  0.359516
H    1.069454  2.002573  1.282870
N    -1.361116  0.283671  2.604532
C    -2.685951  0.560212  1.960371
C    -2.655066  0.625838  0.403814
O    -2.754016  1.705917  -0.191366
H    -1.451629  -0.206454  3.498369
H    -3.273425  -0.330690  2.231162
C    -3.405562  1.767616  2.591322
C    -2.718325  3.149491  2.495788
C    -3.675345  4.286387  2.118104
N    -4.119678  4.143196  0.730068
C    -4.989275  4.958180  0.110083
N    -5.299151  4.733473  -1.174622
N    -5.550345  5.982667  0.760358
H    -3.619962  1.528687  3.642436
H    -4.388921  1.787809  2.098137
H    -1.897291  3.146100  1.766630
H    -2.275603  3.412387  3.465027
H    -3.153362  5.247946  2.248987
H    -4.546567  4.280886  2.794682
H    -3.690680  3.382612  0.193945
H    -5.931869  5.340139  -1.683532
H    -4.878052  3.972999  -1.693187
H    -5.327098  6.193765  1.724082
H    -6.215860  6.597072  0.304732
N    -2.538545  -0.561475  -0.215587
C    -2.578612  -0.711631  -1.672681
H    -2.597318  -1.411112  0.338825
H    -2.130363  0.170143  -2.139529
H    -3.614178  -0.813538  -2.024042
H    -2.018841  -1.608823  -1.954500
Pb    2.685640  -0.362969  4.020207
