37
Energy: -611339.522762 eV PBE+vdW (tier 2 basis)
C    -0.734310  -2.406249  -0.499730
C    -0.490709  -1.830681  0.849522
O    0.706226  -1.725521  1.284590
H    -1.795370  -2.467327  -0.763319
H    -0.283301  -3.407008  -0.557742
H    -0.212745  -1.785920  -1.244633
N    -1.531640  -1.410699  1.585762
C    -1.427201  -0.700899  2.869637
C    -0.956255  -1.681661  3.973758
O    0.286199  -1.651072  4.302815
H    -2.455152  -1.505191  1.167085
H    -0.584102  0.000371  2.777812
C    -2.688027  0.154696  3.129968
C    -2.619397  0.984013  4.427591
C    -3.547893  2.215351  4.458528
N    -4.984489  1.937866  4.602117
C    -5.776373  2.385494  5.606558
N    -7.084628  2.546166  5.386020
N    -5.273569  2.643979  6.817450
H    -3.594485  -0.466037  3.108744
H    -2.753831  0.837081  2.267442
H    -1.599986  1.383434  4.548489
H    -2.809582  0.350287  5.307150
H    -3.408683  2.810420  3.543026
H    -3.244642  2.870025  5.284332
H    -5.483988  1.677643  3.757119
H    -7.737185  2.672822  6.153559
H    -7.462013  2.650869  4.450424
H    -5.815660  3.149669  7.510719
H    -4.362390  2.312354  7.105775
N    -1.743402  -2.551077  4.576662
C    -3.168951  -2.837359  4.381439
H    -1.265656  -3.122157  5.278217
H    -3.791885  -2.150614  4.967994
H    -3.355123  -3.857052  4.732719
H    -3.440495  -2.789609  3.322901
Pb    2.140692  -1.640407  3.002499
