37
Energy: -611338.906124 eV PBE+vdW (tier 2 basis)
C    -0.716107  -0.873219  -0.710865
C    -0.632625  -0.075799  0.543396
O    0.427701  0.613098  0.764974
H    0.031819  -0.495050  -1.416705
H    -1.709301  -0.833818  -1.167842
H    -0.472197  -1.929904  -0.509468
N    -1.626752  -0.008336  1.462162
C    -2.318033  -1.165992  2.068493
C    -1.231860  -1.958627  2.858965
O    0.017516  -1.708202  2.674802
H    -1.443538  0.730623  2.144156
H    -2.983576  -0.724526  2.826707
C    -3.196525  -2.041847  1.136936
C    -4.666436  -1.604523  0.976133
C    -4.952785  -0.414077  0.045403
N    -6.402656  -0.300447  -0.147452
C    -7.083667  0.799420  -0.530191
N    -8.415934  0.811276  -0.435854
N    -6.432983  1.885986  -0.968905
H    -3.212861  -3.054144  1.559128
H    -2.718706  -2.165571  0.159282
H    -5.113269  -1.408352  1.963249
H    -5.195331  -2.482442  0.573157
H    -4.449321  -0.567393  -0.925057
H    -4.587148  0.529814  0.475773
H    -6.938240  -1.163269  -0.105615
H    -8.973834  1.509801  -0.916669
H    -8.921606  0.119987  0.107371
H    -6.935095  2.754004  -1.127523
H    -5.520625  1.811729  -1.401347
N    -1.570989  -2.874506  3.744043
C    -2.897836  -3.301461  4.202994
H    -0.778340  -3.346366  4.186502
H    -2.846174  -3.463161  5.285592
H    -3.183282  -4.246778  3.722818
H    -3.652114  -2.535891  4.001351
Pb    1.783705  -0.289385  2.333216
