37
Energy: -611338.668725 eV PBE+vdW (tier 2 basis)
C    -0.562853  0.861324  0.966880
C    -0.143565  0.412492  2.324803
O    1.061961  -0.096881  2.502471
H    0.130056  1.630653  0.595121
H    -1.576321  1.275508  0.957466
H    -0.538186  0.009658  0.269995
N    -0.961523  0.516818  3.338716
C    -0.820342  0.080817  4.734438
C    -2.285385  -0.240375  5.135508
O    -3.176795  0.419449  4.561986
H    -1.936458  0.842474  3.182276
H    -0.171697  -0.802484  4.758398
C    -0.227772  1.186120  5.671743
C    -1.204018  2.167178  6.345244
C    -1.817198  3.258912  5.447453
N    -2.790960  4.086283  6.156038
C    -4.130086  3.935949  6.131606
N    -4.900440  4.880757  6.684165
N    -4.694529  2.866580  5.559295
H    0.547864  1.729568  5.111248
H    0.303041  0.650943  6.470526
H    -0.645505  2.663186  7.152588
H    -2.007608  1.611742  6.851045
H    -2.317582  2.838077  4.566498
H    -1.031150  3.930160  5.073575
H    -2.428255  4.834531  6.738860
H    -4.529920  5.785853  6.950924
H    -5.893488  4.736559  6.829296
H    -4.166446  2.041997  5.273779
H    -5.696636  2.842021  5.408161
N    -2.519101  -1.143698  6.085500
C    -1.554559  -1.986844  6.799382
H    -3.507391  -1.289638  6.290408
H    -2.094227  -2.529314  7.580664
H    -0.778951  -1.386412  7.289514
H    -1.096834  -2.728485  6.131781
Pb    2.892237  -0.784730  1.618119
