37
Energy: -611339.400713 eV PBE+vdW (tier 2 basis)
C    -0.451156  -2.290921  -0.379901
C    -0.509252  -1.511863  0.885385
O    0.497830  -0.806552  1.238814
H    0.418862  -2.962406  -0.357475
H    -0.283932  -1.592282  -1.214022
H    -1.357696  -2.872927  -0.576299
N    -1.624874  -1.545590  1.627348
C    -1.899793  -0.735953  2.827924
C    -1.003583  -1.221226  3.995321
O    0.062327  -0.541525  4.244462
H    -2.388521  -2.119356  1.271818
H    -1.536224  0.282919  2.625322
C    -3.428388  -0.688672  3.050490
C    -3.982061  0.123034  4.241335
C    -4.115625  1.651929  4.007862
N    -5.356613  2.217580  4.549562
C    -5.492912  3.064865  5.590832
N    -6.579635  3.835976  5.669520
N    -4.546890  3.146282  6.537898
H    -3.809137  -1.714844  3.129870
H    -3.854818  -0.286664  2.117635
H    -3.415158  -0.080261  5.163068
H    -4.990089  -0.270410  4.430407
H    -4.123242  1.864122  2.928193
H    -3.272954  2.215250  4.427646
H    -6.195027  2.072827  3.993574
H    -6.847634  4.286329  6.539225
H    -7.173321  4.010605  4.865280
H    -4.576325  3.888168  7.229970
H    -3.939712  2.362991  6.740949
N    -1.251006  -2.285590  4.733019
C    -2.337482  -3.273762  4.670356
H    -0.546583  -2.452067  5.455958
H    -3.232103  -2.909520  5.190057
H    -1.988815  -4.178788  5.177193
H    -2.575385  -3.534869  3.635023
Pb    1.732924  0.101173  2.858383
