37
Energy: -611337.909057 eV PBE+vdW (tier 2 basis)
C    0.007657  -1.197042  0.606031
C    0.008929  -0.295138  1.783891
O    1.176159  0.143939  2.218739
H    0.533470  -2.127098  0.872574
H    0.569752  -0.726353  -0.212888
H    -0.988578  -1.449109  0.245672
N    -1.042450  0.112882  2.468735
C    -2.526671  -0.047964  2.397096
C    -3.113974  -0.719347  3.687723
O    -4.079871  -0.146673  4.197473
H    -0.783677  0.724974  3.247813
H    -2.870595  0.988676  2.507344
C    -3.157757  -0.630783  1.120006
C    -4.702770  -0.666832  1.163725
C    -5.403851  0.703581  1.242274
N    -6.854362  0.583184  1.361878
C    -7.562279  0.654411  2.507376
N    -8.895833  0.753653  2.440968
N    -6.951053  0.632222  3.695349
H    -2.830927  -1.666019  0.957433
H    -2.824605  -0.034948  0.256156
H    -5.038991  -1.300376  1.996301
H    -5.030631  -1.178926  0.248306
H    -5.198073  1.292137  0.337203
H    -5.050694  1.301824  2.092501
H    -7.384027  0.445444  0.506686
H    -9.475750  0.640777  3.264845
H    -9.372295  0.990723  1.578248
H    -5.971526  0.372482  3.812066
H    -7.470324  0.849981  4.538284
N    -2.616085  -1.875198  4.161936
C    -1.586998  -2.754721  3.616133
H    -3.100526  -2.201069  4.998306
H    -1.743704  -3.757479  4.026058
H    -0.575202  -2.433326  3.901878
H    -1.663856  -2.839954  2.526216
Pb    3.263405  0.633475  2.270186
