37
Energy: -611338.102315 eV PBE+vdW (tier 2 basis)
C    -0.525346  0.423946  -0.445264
C    -0.226725  0.431527  1.014093
O    0.992170  0.619652  1.448496
H    -0.759772  -0.598963  -0.782667
H    0.333617  0.784111  -1.018265
H    -1.393383  1.053209  -0.684296
N    -1.178521  0.249295  1.921022
C    -2.593958  -0.036765  1.647435
C    -3.542026  1.219013  1.562132
O    -4.718677  0.965446  1.338865
H    -0.876988  0.261754  2.897804
H    -2.635917  -0.457001  0.634567
C    -3.200547  -1.095687  2.593448
C    -3.619600  -0.645690  4.005020
C    -4.552741  -1.699510  4.626746
N    -5.029015  -1.294509  5.952013
C    -6.179090  -1.703695  6.525268
N    -6.593960  -1.118491  7.655248
N    -6.917180  -2.668595  5.966490
H    -2.522992  -1.961280  2.635571
H    -4.098590  -1.434575  2.056927
H    -4.160394  0.310111  3.954583
H    -2.742361  -0.499318  4.657150
H    -4.040014  -2.674361  4.684226
H    -5.430952  -1.815024  3.975354
H    -4.380883  -0.797577  6.555092
H    -7.329383  -1.527591  8.221505
H    -6.219449  -0.229157  7.963927
H    -7.858195  -2.859029  6.294646
H    -6.524571  -3.327935  5.306187
N    -3.021515  2.450412  1.687026
C    -3.845229  3.662819  1.582665
H    -2.054821  2.554230  1.972031
H    -3.229082  4.479624  1.194486
H    -4.253134  3.947455  2.560816
H    -4.673344  3.470557  0.894063
Pb    3.137100  0.801882  1.216929
