37
Energy: -611340.156144 eV PBE+vdW (tier 2 basis)
C    0.451231  -2.273442  1.919792
C    0.134681  -0.905561  2.412913
O    0.928601  0.058973  2.139861
H    0.507366  -2.240214  0.820699
H    -0.283861  -3.027907  2.218661
H    1.448241  -2.572391  2.271926
N    -0.993321  -0.705369  3.109823
C    -1.557252  0.593684  3.512807
C    -0.875882  1.082964  4.811904
O    0.336858  1.491894  4.752800
H    -1.553469  -1.533339  3.297611
H    -1.218050  1.320280  2.757527
C    -3.104633  0.609520  3.423615
C    -3.947972  -0.489731  4.106284
C    -5.439394  -0.287936  3.767329
N    -6.277960  -1.326452  4.368993
C    -7.603645  -1.210300  4.617954
N    -8.219559  -2.163826  5.322269
N    -8.287488  -0.141604  4.196241
H    -3.333001  0.592422  2.347434
H    -3.430791  1.602387  3.769809
H    -3.835984  -0.504141  5.201914
H    -3.645434  -1.489980  3.753529
H    -5.562594  -0.273918  2.671029
H    -5.774032  0.685048  4.155467
H    -5.906364  -2.271477  4.399088
H    -7.703676  -2.846322  5.866234
H    -9.232259  -2.228111  5.351278
H    -9.237199  0.022982  4.515967
H    -7.976880  0.416246  3.409805
N    -1.527579  1.104010  5.954980
C    -0.993601  1.565146  7.243431
H    -2.488893  0.773000  5.950223
H    -0.078609  2.136986  7.076724
H    -0.777597  0.701376  7.885405
H    -1.744657  2.197328  7.729476
Pb    1.968778  1.726710  3.203314
