37
Energy: -611339.020872 eV PBE+vdW (tier 2 basis)
C    0.351849  0.191872  0.038323
C    0.009660  -0.044162  1.460508
O    0.933318  -0.315442  2.306851
H    1.071749  1.016385  -0.063959
H    -0.518651  0.350859  -0.603905
H    0.885016  -0.707853  -0.315322
N    -1.269025  -0.012214  1.905221
C    -2.199071  1.094545  1.640089
C    -1.557971  2.340231  2.308652
O    -0.752423  2.177248  3.301812
H    -1.381743  -0.418212  2.836242
H    -2.267343  1.251263  0.555353
C    -3.588114  0.694435  2.207018
C    -4.798130  1.552461  1.800019
C    -6.107156  0.885287  2.267236
N    -7.278006  1.684727  1.900079
C    -8.520241  1.201417  1.673198
N    -9.451235  2.011717  1.160095
N    -8.815697  -0.077535  1.929134
H    -3.518532  0.645623  3.305974
H    -3.747764  -0.336220  1.854542
H    -4.836553  1.671193  0.707096
H    -4.725188  2.558072  2.242468
H    -6.078514  0.722119  3.357727
H    -6.204800  -0.095807  1.781059
H    -7.209580  2.692456  2.006402
H    -9.210898  2.889124  0.713009
H    -10.434663  1.760929  1.174654
H    -9.689498  -0.480806  1.605370
H    -8.289672  -0.623336  2.600576
N    -1.798764  3.565766  1.885658
C    -2.595558  4.041174  0.750461
H    -1.321769  4.294988  2.422798
H    -3.469225  4.595018  1.114792
H    -2.924482  3.211244  0.121682
H    -1.977534  4.720215  0.150906
Pb    1.072882  1.041999  4.122366
