37
Energy: -611338.730378 eV PBE+vdW (tier 2 basis)
C    0.281111  0.612435  0.518838
C    -0.163678  0.968830  1.891007
O    0.763276  1.256704  2.794625
H    0.809364  1.466660  0.069556
H    -0.547457  0.329435  -0.135635
H    0.993252  -0.223495  0.568286
N    -1.406233  1.024369  2.278567
C    -2.665299  0.861591  1.524589
C    -3.618794  1.762809  2.371847
O    -3.375258  1.811302  3.587104
H    -1.674469  1.302864  3.255039
H    -2.528381  1.222388  0.498624
C    -3.103625  -0.630357  1.535418
C    -4.386662  -0.965539  0.742677
C    -5.725154  -0.908856  1.507493
N    -5.992938  -2.062279  2.376180
C    -6.807651  -3.097630  2.086631
N    -7.267858  -3.869570  3.077921
N    -7.159544  -3.364425  0.823830
H    -3.188287  -0.955125  2.583662
H    -2.271288  -1.205886  1.106196
H    -4.263317  -1.978225  0.333050
H    -4.470021  -0.309997  -0.136118
H    -6.554418  -0.829781  0.791784
H    -5.789678  -0.014362  2.140516
H    -5.669081  -2.012026  3.336154
H    -7.710122  -4.762847  2.888578
H    -7.270255  -3.556213  4.041911
H    -7.907739  -4.018111  0.618650
H    -6.658513  -2.983341  0.032100
N    -4.636903  2.416992  1.796715
C    -5.002529  2.562740  0.389068
H    -5.181396  2.964570  2.464691
H    -5.932193  2.022977  0.165196
H    -4.209885  2.194416  -0.268048
H    -5.158935  3.624420  0.165069
Pb    2.481347  1.815718  3.888438
