37
Energy: -611340.377270 eV PBE+vdW (tier 2 basis)
C    1.245786  -0.504006  -0.237305
C    0.763176  0.230582  0.962787
O    0.654859  1.505150  0.919917
H    0.561420  -0.291276  -1.073107
H    1.307742  -1.587500  -0.091529
H    2.230034  -0.116525  -0.535800
N    0.423674  -0.459652  2.059837
C    -0.224796  0.071005  3.275740
C    0.842191  0.780419  4.142552
O    1.144131  1.999079  3.888407
H    0.549433  -1.469694  2.010118
H    -0.913377  0.867750  2.954297
C    -1.049494  -1.054127  3.935568
C    -2.001123  -0.604514  5.060184
C    -2.911378  -1.763364  5.508993
N    -3.848538  -1.328511  6.547206
C    -4.487824  -2.144422  7.415448
N    -5.184520  -1.608510  8.422089
N    -4.401683  -3.473595  7.294255
H    -0.384844  -1.860836  4.291766
H    -1.644985  -1.504763  3.126265
H    -2.628006  0.223326  4.691250
H    -1.443861  -0.223115  5.928668
H    -2.300841  -2.579216  5.923257
H    -3.458056  -2.159040  4.636013
H    -4.207122  -0.380111  6.485628
H    -5.841956  -2.161793  8.962250
H    -5.071303  -0.639059  8.695766
H    -4.748602  -4.082847  8.028690
H    -4.187031  -3.916242  6.408889
N    1.443885  0.129607  5.115712
C    2.515255  0.659337  5.970491
H    1.166940  -0.837135  5.274261
H    2.482650  1.751154  5.964036
H    3.490324  0.313508  5.602528
H    2.367085  0.288054  6.989698
Pb    1.066751  3.360880  2.082169
