37
Energy: -611338.906294 eV PBE+vdW (tier 2 basis)
C    -0.350873  -1.536474  -1.079133
C    0.300468  -1.158502  0.202115
O    1.580798  -1.231170  0.283973
H    -1.278026  -0.992062  -1.270172
H    -0.559572  -2.619199  -1.094676
H    0.363693  -1.346386  -1.890475
N    -0.367908  -0.703208  1.287688
C    -1.536370  -1.335476  1.932945
C    -1.010063  -2.663799  2.555541
O    0.127820  -3.138828  2.191266
H    0.270395  -0.288345  1.969437
H    -1.792671  -0.662526  2.766301
C    -2.796893  -1.507410  1.049892
C    -3.313553  -0.180390  0.438777
C    -4.448689  0.546817  1.176575
N    -5.754467  -0.081008  0.924756
C    -6.922008  0.337161  1.470753
N    -8.052867  -0.309388  1.173552
N    -6.940963  1.358243  2.333674
H    -3.577280  -1.967357  1.670666
H    -2.595247  -2.239758  0.259281
H    -3.637255  -0.365904  -0.596707
H    -2.485715  0.536818  0.349245
H    -4.456401  1.592195  0.826723
H    -4.270114  0.561794  2.263515
H    -5.843873  -0.597856  0.054144
H    -8.051749  -1.188664  0.669351
H    -8.961009  0.072129  1.418458
H    -6.192111  2.039288  2.369170
H    -7.794503  1.606795  2.824317
N    -1.704327  -3.316194  3.467681
C    -2.974264  -2.970889  4.112553
H    -1.272214  -4.189659  3.778767
H    -2.910477  -3.262078  5.166894
H    -3.802581  -3.521635  3.648222
H    -3.160135  -1.894219  4.062866
Pb    2.342595  -2.886310  1.609255
