37
Energy: -611338.806338 eV PBE+vdW (tier 2 basis)
C    -1.279347  -3.156660  1.930328
C    -0.632856  -1.836210  1.712103
O    0.676337  -1.738577  1.874856
H    -0.867255  -3.888984  1.219775
H    -2.365420  -3.132477  1.812263
H    -1.049383  -3.513821  2.944731
N    -1.274438  -0.751625  1.362108
C    -2.701135  -0.576782  1.024164
C    -2.693804  0.628480  0.057625
O    -1.841001  1.517228  0.258488
H    -0.762362  0.137244  1.208314
H    -3.056116  -1.486879  0.523498
C    -3.594071  -0.310859  2.268372
C    -3.349549  0.949626  3.130522
C    -4.200180  2.203014  2.841596
N    -3.580005  3.149345  1.908420
C    -3.924882  4.442657  1.800106
N    -3.173777  5.262942  1.048524
N    -5.003925  4.923262  2.427829
H    -3.499521  -1.196396  2.913373
H    -4.634907  -0.328118  1.911485
H    -2.285592  1.226528  3.169132
H    -3.604351  0.660134  4.158377
H    -4.353147  2.728147  3.795545
H    -5.194610  1.895315  2.474964
H    -2.847752  2.798547  1.284416
H    -2.236707  5.004333  0.765857
H    -3.467503  6.212574  0.850028
H    -5.189690  5.919567  2.465633
H    -5.703076  4.316437  2.836766
N    -3.635993  0.653489  -0.884032
C    -3.797675  1.735216  -1.859085
H    -4.268307  -0.139290  -0.961109
H    -3.901489  1.306482  -2.861809
H    -2.911716  2.374692  -1.828038
H    -4.694079  2.325806  -1.631524
Pb    2.701719  -2.329963  2.145261
