37
Energy: -611338.197257 eV PBE+vdW (tier 2 basis)
C    -1.143915  2.258238  0.377275
C    -1.311035  2.009438  1.829778
O    -1.473024  2.996506  2.632167
H    -0.355402  3.020372  0.265406
H    -2.051461  2.711857  -0.048689
H    -0.861891  1.368655  -0.192450
N    -1.274208  0.761702  2.351997
C    -2.060128  -0.354356  1.818687
C    -3.550917  -0.048279  2.178561
O    -3.851091  0.945505  2.933076
H    -1.200858  0.754626  3.371452
H    -1.977741  -0.342162  0.721132
C    -1.561671  -1.712737  2.360852
C    -0.160553  -2.105568  1.857780
C    0.284954  -3.466578  2.421760
N    1.611503  -3.832976  1.918748
C    2.099817  -5.089233  1.833601
N    3.238311  -5.305368  1.167276
N    1.441822  -6.116478  2.382842
H    -2.286538  -2.485604  2.065268
H    -1.588083  -1.688525  3.462910
H    0.568864  -1.332948  2.148378
H    -0.158554  -2.154279  0.758174
H    -0.422535  -4.247986  2.107914
H    0.286175  -3.433186  3.524486
H    2.279951  -3.083571  1.766920
H    3.747136  -6.178422  1.261333
H    3.624816  -4.618244  0.530108
H    0.791053  -5.985194  3.147538
H    1.718744  -7.072748  2.184686
N    -4.491121  -0.824149  1.682886
C    -5.937320  -0.680472  1.905476
H    -4.203443  -1.580782  1.064013
H    -6.116344  -0.205653  2.873013
H    -6.389625  -1.677112  1.894583
H    -6.382522  -0.077122  1.103376
Pb    -3.398698  3.007297  3.829772
