37
Energy: -611340.147028 eV PBE+vdW (tier 2 basis)
C    0.298789  -0.397865  -0.201503
C    -0.223727  -0.737670  1.149672
O    0.580160  -0.798306  2.140393
H    0.807973  0.575925  -0.148652
H    -0.477143  -0.359411  -0.973223
H    1.063895  -1.132437  -0.491322
N    -1.537904  -0.958500  1.310306
C    -2.206992  -1.213810  2.594981
C    -1.835025  -2.628558  3.113067
O    -0.894781  -2.709231  3.988956
H    -2.117436  -0.905230  0.474929
H    -1.742470  -0.543837  3.333950
C    -3.713909  -0.881345  2.545795
C    -4.015337  0.630160  2.585586
C    -5.530523  0.902340  2.564295
N    -5.808185  2.340322  2.596717
C    -6.953042  2.910331  3.033390
N    -7.006959  4.237837  3.179397
N    -8.014900  2.159852  3.346549
H    -4.185165  -1.370422  3.411695
H    -4.173828  -1.332526  1.654559
H    -3.543629  1.132505  1.725404
H    -3.584077  1.075178  3.494802
H    -5.997731  0.447063  3.449709
H    -5.982192  0.443124  1.668410
H    -5.174860  2.950662  2.088786
H    -6.169633  4.808683  3.200783
H    -7.891900  4.720426  3.297458
H    -8.814531  2.567924  3.820575
H    -8.146128  1.232991  2.960353
N    -2.410592  -3.744942  2.715796
C    -3.470868  -3.985818  1.729300
H    -2.046359  -4.579556  3.182885
H    -3.379871  -3.306055  0.877388
H    -4.461640  -3.893085  2.190955
H    -3.354134  -5.009959  1.361014
Pb    1.138657  -1.752757  4.097848
