37
Energy: -611339.886298 eV PBE+vdW (tier 2 basis)
C    0.557448  -0.447799  1.183455
C    0.086277  0.443308  2.277958
O    0.738921  1.510032  2.543960
H    -0.066189  -1.336889  1.043352
H    1.594789  -0.754190  1.377823
H    0.575043  0.131703  0.247555
N    -1.031548  0.123838  2.946594
C    -1.736369  0.965409  3.929763
C    -1.038089  0.852914  5.304583
O    0.040606  1.514667  5.503657
H    -1.477058  -0.750251  2.676447
H    -1.551871  2.008113  3.628570
C    -3.274083  0.780154  3.836778
C    -3.908061  -0.615856  4.031512
C    -5.295701  -0.766433  3.365745
N    -6.385576  -0.019847  4.005447
C    -7.549905  -0.548328  4.457913
N    -8.637486  0.224858  4.513556
N    -7.619774  -1.818851  4.866102
H    -3.532372  1.140112  2.828400
H    -3.721619  1.502712  4.534908
H    -4.011742  -0.874548  5.097564
H    -3.285424  -1.407964  3.584881
H    -5.572286  -1.827002  3.345426
H    -5.234804  -0.452317  2.312007
H    -6.419852  0.979194  3.825355
H    -8.720246  1.076661  3.969048
H    -9.458501  -0.056302  5.041025
H    -8.516988  -2.262425  5.036051
H    -6.796488  -2.359747  5.096765
N    -1.534057  0.098241  6.261765
C    -0.942923  -0.085109  7.594694
H    -2.388353  -0.414208  6.058661
H    -0.362118  0.800627  7.863767
H    -0.290882  -0.968512  7.598405
H    -1.751632  -0.231104  8.317238
Pb    1.551915  2.665141  4.275270
