37
Energy: -611340.250779 eV PBE+vdW (tier 2 basis)
C    0.085808  -0.446564  -0.237434
C    0.176161  0.272427  1.062001
O    0.449145  1.522235  1.072240
H    1.032003  -0.335072  -0.785630
H    -0.687825  0.039353  -0.851441
H    -0.152534  -1.510268  -0.133649
N    -0.057240  -0.398053  2.198865
C    -0.155103  0.175590  3.554895
C    1.272860  0.463906  4.080997
O    1.838432  1.572124  3.776393
H    -0.255542  -1.392723  2.102005
H    -0.627208  1.165052  3.453237
C    -1.063159  -0.712547  4.432859
C    -1.435746  -0.078911  5.786116
C    -2.294828  -0.955174  6.713925
N    -3.690200  -1.069659  6.267625
C    -4.574028  -1.973014  6.759602
N    -5.811604  -2.015164  6.257144
N    -4.208072  -2.841671  7.706571
H    -0.599956  -1.702758  4.588921
H    -1.974274  -0.906809  3.847094
H    -1.942520  0.886182  5.623231
H    -0.527753  0.162542  6.358150
H    -2.251868  -0.516022  7.723784
H    -1.871482  -1.968999  6.770523
H    -4.108755  -0.229977  5.875681
H    -6.551479  -2.534872  6.718386
H    -6.061380  -1.527325  5.404830
H    -4.819617  -3.607785  7.971783
H    -3.420695  -2.665337  8.318990
N    1.902051  -0.427660  4.816637
C    3.273235  -0.303799  5.331412
H    1.409352  -1.292274  5.031117
H    3.968796  -0.840642  4.672826
H    3.313185  -0.748602  6.330909
H    3.551283  0.751428  5.383197
Pb    1.687560  3.073839  2.094205
