37
Energy: -611339.933471 eV PBE+vdW (tier 2 basis)
C    1.433687  1.008523  0.533777
C    0.777317  -0.139928  1.218264
O    1.466337  -1.188512  1.469460
H    2.291271  1.347943  1.132386
H    0.763196  1.854259  0.348939
H    1.843965  0.656366  -0.424715
N    -0.519901  -0.041660  1.535999
C    -1.460820  -1.049360  2.085237
C    -1.056110  -1.457708  3.514811
O    -0.131432  -2.322887  3.730038
H    -0.949761  0.845368  1.281187
H    -2.404422  -0.496852  2.169712
C    -1.715942  -2.241746  1.134386
C    -3.029437  -2.989280  1.436689
C    -3.310139  -4.096831  0.400896
N    -4.531516  -4.855582  0.688864
C    -5.580866  -5.056273  -0.140135
N    -6.357162  -6.128378  0.039839
N    -5.858403  -4.197349  -1.127939
H    -0.865589  -2.938904  1.148144
H    -1.752117  -1.823965  0.117397
H    -3.870692  -2.279006  1.442306
H    -2.992836  -3.440038  2.441407
H    -2.468839  -4.806689  0.366983
H    -3.391663  -3.675520  -0.609082
H    -4.501326  -5.468164  1.499039
H    -7.275195  -6.193337  -0.388856
H    -6.045825  -6.935007  0.570173
H    -6.533922  -4.435867  -1.846775
H    -5.523262  -3.243109  -1.119135
N    -1.686936  -0.936915  4.549387
C    -2.775102  0.054993  4.578943
H    -1.358701  -1.275101  5.457221
H    -2.972629  0.298705  5.626704
H    -3.694496  -0.354552  4.143251
H    -2.482097  0.977947  4.065277
Pb    1.924365  -2.779585  2.941925
