37
Energy: -611339.873890 eV PBE+vdW (tier 2 basis)
C    -1.600244  1.410855  1.413976
C    -0.971307  0.526408  2.434561
O    -0.399250  -0.552098  2.053172
H    -2.352573  0.827692  0.861684
H    -0.842836  1.714026  0.676955
H    -2.073800  2.304225  1.834328
N    -1.042986  0.885017  3.724117
C    -0.624302  0.166807  4.953417
C    0.910172  0.033451  5.037174
O    1.562097  -0.784779  4.298185
H    -1.497534  1.781136  3.884809
H    -0.924100  0.846037  5.763629
C    -1.345343  -1.185984  5.176697
C    -2.883094  -1.084902  5.303454
C    -3.466650  -0.728928  6.685609
N    -3.641311  -1.901141  7.550143
C    -4.638819  -2.075828  8.445511
N    -4.847446  -3.290104  8.965177
N    -5.424844  -1.055084  8.802774
H    -0.897767  -1.644752  6.072252
H    -1.110616  -1.862866  4.344825
H    -3.325461  -2.036377  4.977272
H    -3.259207  -0.342263  4.585166
H    -4.461061  -0.290641  6.529734
H    -2.852509  0.032697  7.197244
H    -2.934963  -2.629308  7.526840
H    -4.487746  -4.130550  8.527286
H    -5.436330  -3.418572  9.781939
H    -6.276723  -1.217361  9.330840
H    -5.134270  -0.090494  8.701113
N    1.542553  0.764041  5.934264
C    2.989265  0.756739  6.185935
H    0.990721  1.408316  6.497955
H    3.155270  0.838691  7.265340
H    3.456952  1.616078  5.687175
H    3.423886  -0.172878  5.811912
Pb    1.453173  -1.763303  2.282540
