37
Energy: -611339.926271 eV PBE+vdW (tier 2 basis)
C    -0.079625  -0.662454  -0.280344
C    -0.277538  -0.385808  1.167492
O    0.670838  0.136930  1.846065
H    0.177829  0.280327  -0.786177
H    -0.957144  -1.103374  -0.764711
H    0.783967  -1.330507  -0.409879
N    -1.457889  -0.672761  1.738242
C    -1.834040  -0.338954  3.120285
C    -1.044433  -1.236859  4.109308
O    -0.014136  -0.722252  4.682515
H    -2.172843  -1.074236  1.134148
H    -1.441155  0.668712  3.324007
C    -3.370409  -0.275184  3.270007
C    -3.832891  0.130659  4.680582
C    -5.355864  0.161063  4.891873
N    -6.006795  1.297328  4.225511
C    -7.347984  1.417704  4.067385
N    -7.835371  2.471860  3.406112
N    -8.177214  0.477726  4.529822
H    -3.826667  -1.234520  2.988905
H    -3.719473  0.460841  2.529874
H    -3.405601  1.107840  4.959195
H    -3.443967  -0.580132  5.425526
H    -5.542376  0.196637  5.977518
H    -5.806071  -0.764546  4.503254
H    -5.492453  2.174138  4.217946
H    -8.824423  2.698654  3.429054
H    -7.241052  3.082390  2.857639
H    -9.163439  0.491693  4.288349
H    -7.907247  -0.155910  5.272651
N    -1.351318  -2.489224  4.384883
C    -2.424602  -3.348690  3.871619
H    -0.721523  -2.925306  5.063286
H    -2.100487  -4.388090  3.984277
H    -2.607018  -3.163413  2.809342
H    -3.347071  -3.211211  4.449660
Pb    1.728846  0.415326  3.802550
