37
Energy: -611340.065363 eV PBE+vdW (tier 2 basis)
C    -1.505914  -0.244305  0.462582
C    -0.945097  -0.548654  1.808322
O    -0.053461  -1.460149  1.917052
H    -0.689461  0.031988  -0.219730
H    -2.259742  0.549828  0.467549
H    -1.952934  -1.163948  0.055260
N    -1.406750  0.132009  2.865366
C    -1.140176  -0.041734  4.316273
C    0.320903  0.334962  4.649571
O    1.295964  -0.454603  4.399108
H    -2.103522  0.839290  2.640383
H    -1.780214  0.716644  4.787851
C    -1.562585  -1.428212  4.856347
C    -1.808958  -1.498878  6.382805
C    -3.269225  -1.223089  6.788038
N    -3.452158  -1.400118  8.230561
C    -4.574854  -1.834349  8.844579
N    -4.518552  -2.194806  10.130060
N    -5.729138  -1.928068  8.174643
H    -0.804005  -2.174539  4.587983
H    -2.470758  -1.725980  4.312952
H    -1.131835  -0.812278  6.917738
H    -1.546421  -2.508251  6.726359
H    -3.923912  -1.942288  6.275540
H    -3.582780  -0.209144  6.484711
H    -2.704147  -1.086830  8.841961
H    -3.639076  -2.394885  10.593252
H    -5.361979  -2.312619  10.682452
H    -6.526612  -2.404284  8.584638
H    -5.912815  -1.373569  7.347607
N    0.540661  1.499693  5.228532
C    1.855528  2.035890  5.603629
H    -0.261699  2.102035  5.403370
H    2.232881  2.690881  4.806868
H    2.555170  1.213266  5.770280
H    1.743529  2.622296  6.521170
Pb    1.880146  -1.995204  2.861346
