37
Energy: -611339.676653 eV PBE+vdW (tier 2 basis)
C    -2.402717  -0.453496  -0.136821
C    -1.854940  -0.404974  1.248109
O    -0.920230  -1.212453  1.572882
H    -2.775419  -1.470047  -0.332249
H    -1.588695  -0.279100  -0.855121
H    -3.206261  0.267490  -0.319922
N    -2.376629  0.479905  2.111956
C    -2.100592  0.685807  3.554565
C    -0.651642  1.161710  3.779021
O    0.328411  0.331926  3.793590
H    -3.097624  1.079174  1.717134
H    -2.755377  1.519816  3.834472
C    -2.453561  -0.528374  4.445051
C    -3.957456  -0.878591  4.529159
C    -4.703001  -0.219849  5.703123
N    -6.069280  -0.746146  5.780624
C    -7.078148  -0.229173  6.515016
N    -8.316086  -0.704058  6.352224
N    -6.851460  0.773808  7.372323
H    -2.053206  -0.332725  5.451670
H    -1.914646  -1.411073  4.078114
H    -4.028797  -1.969462  4.651724
H    -4.470147  -0.647574  3.583038
H    -4.761100  0.872712  5.579126
H    -4.155652  -0.427995  6.638585
H    -6.230474  -1.671122  5.392562
H    -9.052659  -0.501269  7.020484
H    -8.567209  -1.285947  5.560729
H    -7.626386  1.248635  7.824975
H    -5.935765  0.927768  7.776418
N    -0.395619  2.435414  4.005077
C    -1.308075  3.586554  4.061413
H    0.591652  2.637194  4.183906
H    -2.039737  3.554783  3.247469
H    -0.707887  4.493288  3.938433
H    -1.812591  3.636595  5.034771
Pb    0.992005  -1.499152  2.688366
