37
Energy: -611339.669581 eV PBE+vdW (tier 2 basis)
C    -1.699975  -1.880059  -0.261550
C    -1.165598  -1.323136  1.010261
O    0.039610  -0.901917  1.057735
H    -2.746141  -2.196507  -0.195100
H    -1.080587  -2.732855  -0.574771
H    -1.600245  -1.118331  -1.049181
N    -1.964351  -1.255507  2.086854
C    -1.605453  -0.646037  3.376934
C    -0.566991  -1.536022  4.108490
O    0.671404  -1.196031  4.018806
H    -2.910291  -1.616423  1.978059
H    -1.038460  0.269355  3.149468
C    -2.856363  -0.229944  4.184595
C    -3.541380  1.030679  3.618567
C    -4.915143  1.360449  4.238989
N    -4.889377  1.933668  5.591191
C    -5.294929  3.181252  5.925756
N    -5.277639  4.173428  5.030182
N    -5.702144  3.424691  7.175106
H    -2.537563  -0.057832  5.223536
H    -3.576862  -1.060905  4.215601
H    -3.720369  0.900645  2.539754
H    -2.870569  1.897498  3.719477
H    -5.545712  0.459185  4.270296
H    -5.443462  2.064721  3.584568
H    -4.829654  1.282991  6.367954
H    -5.750562  5.052032  5.216053
H    -4.749739  4.114016  4.169296
H    -5.808074  4.373815  7.519656
H    -6.011381  2.682040  7.792688
N    -0.867347  -2.613930  4.804442
C    -2.157598  -3.264798  5.060494
H    -0.053586  -3.065590  5.230024
H    -1.961995  -4.323085  5.260250
H    -2.813553  -3.199793  4.187909
H    -2.646179  -2.829995  5.941075
Pb    1.924253  -0.604763  2.241536
