37
Energy: -611337.913713 eV PBE+vdW (tier 2 basis)
C    0.678425  0.020875  1.562683
C    0.082389  0.000895  2.922323
O    0.862056  0.032523  3.977192
H    0.940366  1.061572  1.307032
H    -0.004430  -0.322440  0.779452
H    1.595229  -0.580617  1.541651
N    -1.222725  -0.012284  3.147266
C    -2.296470  0.017068  2.137853
C    -2.394927  1.456356  1.489680
O    -2.010153  1.535072  0.327478
H    -1.502936  0.032478  4.129717
H    -1.958601  -0.588585  1.290417
C    -3.611139  -0.590555  2.665536
C    -4.751441  -0.431008  1.641391
C    -6.110505  -1.012627  2.078900
N    -6.265751  -2.464414  1.922670
C    -6.998120  -3.076538  0.968070
N    -7.414294  -4.333245  1.162939
N    -7.302842  -2.449134  -0.172858
H    -3.905695  -0.124424  3.617572
H    -3.423894  -1.655597  2.873393
H    -4.454364  -0.868386  0.675879
H    -4.917243  0.639736  1.449365
H    -6.912774  -0.527496  1.508249
H    -6.313283  -0.774410  3.132947
H    -5.977645  -3.053263  2.696933
H    -7.790112  -4.887749  0.400890
H    -7.467020  -4.740251  2.089795
H    -8.002890  -2.824833  -0.803732
H    -6.828530  -1.605984  -0.468525
N    -2.836886  2.515199  2.200870
C    -3.423377  2.586112  3.535666
H    -2.861074  3.371879  1.648124
H    -3.393884  3.630477  3.862569
H    -2.849930  2.006728  4.269518
H    -4.472549  2.259869  3.551215
Pb    2.776738  0.076886  4.961283
