37
Energy: -611338.732795 eV PBE+vdW (tier 2 basis)
C    -0.118390  -1.668073  1.193446
C    -0.101262  -1.539566  2.673781
O    0.574558  -2.442318  3.371886
H    0.909630  -1.609263  0.806354
H    -0.721172  -0.897821  0.705349
H    -0.516143  -2.654752  0.915164
N    -0.703576  -0.599443  3.345527
C    -1.391450  0.619703  2.880833
C    -1.172256  1.560774  4.105194
O    -0.982644  1.013122  5.202368
H    -0.619024  -0.514328  4.392573
H    -0.883064  1.000302  1.986035
C    -2.895319  0.389384  2.554920
C    -3.832383  0.031420  3.730792
C    -4.545439  1.209257  4.428409
N    -5.683035  1.768877  3.686243
C    -6.987870  1.534327  3.933459
N    -7.371729  0.489268  4.675034
N    -7.912482  2.357087  3.425146
H    -2.940224  -0.406102  1.797834
H    -3.248588  1.292143  2.034842
H    -3.282919  -0.520853  4.506708
H    -4.595266  -0.664424  3.353964
H    -3.851459  2.037140  4.624670
H    -4.907714  0.892577  5.415096
H    -5.491408  2.496817  3.006626
H    -8.323718  0.414150  5.016989
H    -6.745751  -0.273988  4.893948
H    -7.678697  3.286171  3.094125
H    -8.895953  2.108008  3.422421
N    -1.235506  2.887698  3.933136
C    -1.264478  3.643674  2.678785
H    -1.044937  3.416089  4.785033
H    -1.941270  3.186434  1.948695
H    -0.261968  3.733372  2.238497
H    -1.634217  4.651606  2.891136
Pb    1.943399  -3.897234  4.062751
