37
Energy: -611338.556482 eV PBE+vdW (tier 2 basis)
C    -0.298977  -1.761135  -0.136263
C    -0.510360  -2.377552  1.202181
O    0.213809  -3.434134  1.523229
H    -0.921170  -0.878794  -0.307200
H    -0.563041  -2.513623  -0.897041
H    0.750821  -1.477518  -0.272290
N    -1.584769  -2.139199  1.959995
C    -2.041880  -0.761394  2.178829
C    -0.704734  0.063256  2.391496
O    0.369462  -0.558732  2.315104
H    -1.643469  -2.738457  2.785383
H    -2.529076  -0.385672  1.265169
C    -3.028917  -0.736645  3.362975
C    -4.383738  -1.436982  3.088056
C    -5.562081  -0.532694  2.698592
N    -6.109318  0.171176  3.868643
C    -7.104990  1.084085  3.821682
N    -7.513083  1.671844  4.951325
N    -7.653129  1.432024  2.652202
H    -3.196569  0.304574  3.663284
H    -2.530518  -1.203196  4.226564
H    -4.674857  -2.026277  3.970599
H    -4.272879  -2.178538  2.284121
H    -6.340228  -1.164331  2.239881
H    -5.254151  0.216204  1.951928
H    -5.966400  -0.276128  4.769914
H    -7.008411  1.564991  5.823524
H    -8.363739  2.223907  4.983213
H    -8.324936  2.190888  2.599225
H    -7.579301  0.839861  1.834138
N    -0.759561  1.379926  2.603091
C    -1.904585  2.288137  2.591798
H    0.154157  1.806267  2.755756
H    -1.571034  3.252695  2.194152
H    -2.301129  2.453087  3.602739
H    -2.697215  1.917238  1.933334
Pb    2.098963  -4.392251  1.627038
