37
Energy: -611339.941010 eV PBE+vdW (tier 2 basis)
C    0.852976  1.835432  1.947656
C    0.261112  0.820117  2.859680
O    0.929298  0.413052  3.869511
H    0.189874  2.124373  1.125543
H    1.796843  1.449635  1.536160
H    1.112825  2.728337  2.535755
N    -0.975916  0.358633  2.617302
C    -1.725815  -0.567331  3.480747
C    -1.113322  -1.988280  3.381521
O    -0.287791  -2.342213  4.303495
H    -1.444679  0.720352  1.788950
H    -1.512339  -0.273061  4.519539
C    -3.251895  -0.443042  3.267635
C    -3.826605  0.836963  3.907414
C    -5.303745  1.134954  3.603512
N    -6.230970  0.254326  4.328217
C    -7.559788  0.177159  4.069919
N    -8.313521  -0.674409  4.772219
N    -8.110379  0.910502  3.098331
H    -3.727895  -1.335905  3.698208
H    -3.487607  -0.460335  2.193476
H    -3.267487  1.715025  3.551022
H    -3.672714  0.816807  4.998696
H    -5.495344  1.020950  2.526175
H    -5.492964  2.187904  3.868951
H    -5.962074  -0.003539  5.274159
H    -9.327087  -0.631076  4.742359
H    -7.906008  -1.387451  5.365635
H    -9.071524  0.753763  2.810806
H    -7.670750  1.753730  2.749415
N    -1.374147  -2.846822  2.416559
C    -2.232704  -2.728132  1.231849
H    -0.886750  -3.740420  2.521548
H    -1.865806  -3.438013  0.483986
H    -2.176503  -1.723723  0.802279
H    -3.271336  -2.984234  1.474158
Pb    1.450068  -1.269717  5.260532
