37
Energy: -611339.533742 eV PBE+vdW (tier 2 basis)
C    -0.409133  0.442281  0.278206
C    -0.446068  0.161676  1.740740
O    0.263677  -0.795192  2.206928
H    -1.057403  1.269206  -0.029848
H    -0.705250  -0.470039  -0.261085
H    0.625314  0.659346  -0.024791
N    -1.235573  0.915148  2.517521
C    -1.576014  0.803279  3.956737
C    -0.339196  1.037224  4.845322
O    0.539744  0.118831  5.031043
H    -1.740659  1.645439  2.019481
H    -2.248860  1.652613  4.126511
C    -2.368443  -0.477039  4.315854
C    -3.013036  -0.386154  5.713017
C    -3.842282  -1.607392  6.157132
N    -5.193000  -1.647088  5.587236
C    -6.289124  -2.130905  6.216153
N    -7.496980  -1.906907  5.687943
N    -6.179811  -2.808186  7.363055
H    -1.722636  -1.364579  4.250830
H    -3.130244  -0.592448  3.530429
H    -3.644528  0.513016  5.784473
H    -2.222999  -0.267676  6.470431
H    -3.954579  -1.547301  7.247287
H    -3.301271  -2.541722  5.931836
H    -5.307674  -1.450032  4.598514
H    -7.655433  -1.177224  5.002686
H    -8.312843  -2.422360  6.002690
H    -7.000443  -3.009721  7.926066
H    -5.322878  -3.276534  7.631201
N    -0.186201  2.189870  5.467215
C    -1.039823  3.389694  5.444253
H    0.652536  2.244956  6.050401
H    -1.992950  3.204489  5.954619
H    -1.211229  3.733635  4.417938
H    -0.511643  4.181859  5.982599
Pb    1.636012  -1.429541  3.830089
