37
Energy: -611338.886747 eV PBE+vdW (tier 2 basis)
C    -0.564984  0.509242  -0.886843
C    -0.136975  0.644630  0.530179
O    1.160764  0.772355  0.778785
H    -0.270587  1.408432  -1.448303
H    -1.643553  0.367613  -0.993843
H    -0.049315  -0.345665  -1.347139
N    -0.941657  0.648031  1.553234
C    -2.410722  0.733324  1.609056
C    -2.602211  1.462094  2.981156
O    -1.640115  1.443334  3.766243
H    -0.612297  0.841136  2.544958
H    -2.764324  1.365005  0.782995
C    -3.148766  -0.629782  1.551626
C    -3.060789  -1.511893  2.807884
C    -3.922270  -2.775332  2.652459
N    -3.936156  -3.561687  3.890105
C    -4.879889  -4.459365  4.236205
N    -4.890042  -4.959230  5.477519
N    -5.818329  -4.834398  3.359419
H    -2.792189  -1.179307  0.666788
H    -4.203794  -0.392488  1.346210
H    -3.410612  -0.950867  3.686973
H    -2.015399  -1.797088  3.005597
H    -3.549173  -3.386776  1.813563
H    -4.959218  -2.486687  2.424415
H    -3.112494  -3.522305  4.482313
H    -4.373024  -4.524282  6.232664
H    -5.445216  -5.774764  5.713296
H    -6.617049  -5.384557  3.657526
H    -5.688039  -4.729428  2.360933
N    -3.788418  2.023907  3.215936
C    -4.116619  2.750824  4.446258
H    -4.483566  2.024471  2.474229
H    -4.216748  3.822683  4.234938
H    -3.313820  2.596380  5.171281
H    -5.063221  2.377588  4.853292
Pb    3.206783  1.291672  0.734349
