37
Energy: -611340.208664 eV PBE+vdW (tier 2 basis)
C    -1.255907  0.639228  -0.499545
C    -1.639846  -0.052814  0.760164
O    -2.548582  -0.953119  0.731773
H    -0.472854  1.392623  -0.364380
H    -2.143629  1.109369  -0.945757
H    -0.909467  -0.117001  -1.220558
N    -1.007091  0.261120  1.898975
C    -1.149030  -0.414692  3.203669
C    -2.464672  0.058254  3.869725
O    -3.562893  -0.528261  3.567593
H    -0.306779  0.998419  1.835032
H    -1.298817  -1.485912  2.998638
C    0.152262  -0.247013  4.018036
C    0.225976  -1.115227  5.288104
C    1.457955  -0.850813  6.180081
N    2.741644  -1.346423  5.666927
C    3.484729  -2.332880  6.222319
N    2.916397  -3.281757  6.973007
N    4.802028  -2.364034  6.001362
H    0.308752  0.816530  4.273043
H    0.976840  -0.512973  3.338601
H    0.192255  -2.179754  5.010486
H    -0.654316  -0.932696  5.923707
H    1.289666  -1.302157  7.165769
H    1.569581  0.228140  6.365451
H    3.246999  -0.741282  5.027465
H    3.481199  -3.908909  7.536797
H    1.919461  -3.452632  6.962939
H    5.315133  -1.543179  5.698540
H    5.353955  -3.188110  6.218440
N    -2.455025  1.062706  4.719926
C    -3.634088  1.646391  5.374946
H    -1.556601  1.493611  4.928692
H    -3.954027  2.546254  4.833009
H    -3.363995  1.924280  6.398848
H    -4.445051  0.914622  5.389931
Pb    -4.369161  -1.678909  1.797247
