37
Energy: -611339.045392 eV PBE+vdW (tier 2 basis)
C    -1.143879  0.759376  -0.610950
C    -0.652541  0.443709  0.751559
O    0.513565  -0.064052  0.910065
H    -1.054458  -0.163899  -1.208177
H    -0.489674  1.491725  -1.106143
H    -2.184732  1.093122  -0.638001
N    -1.414492  0.646501  1.853172
C    -2.083459  1.918943  2.144676
C    -0.953547  2.932554  2.486648
O    0.240844  2.508147  2.720844
H    -1.033377  0.196192  2.687345
H    -2.580016  2.266710  1.226476
C    -3.145109  1.757865  3.259303
C    -4.332994  0.881197  2.810741
C    -5.619863  0.997342  3.648924
N    -5.596378  0.250856  4.911495
C    -6.688268  -0.275445  5.513088
N    -6.527248  -1.093913  6.559140
N    -7.916734  -0.004539  5.063980
H    -3.507171  2.759578  3.529738
H    -2.654584  1.361213  4.163361
H    -4.038475  -0.175328  2.735134
H    -4.623021  1.187586  1.793823
H    -6.435038  0.578553  3.044113
H    -5.855959  2.059270  3.832815
H    -4.758854  0.289278  5.482579
H    -7.308912  -1.345876  7.155377
H    -5.643009  -1.550488  6.749160
H    -8.717901  -0.536375  5.389790
H    -8.116918  0.813154  4.500971
N    -1.186894  4.228126  2.529672
C    -2.424347  4.970811  2.265032
H    -0.374368  4.796740  2.781970
H    -2.169246  5.867324  1.688842
H    -2.887887  5.283052  3.209873
H    -3.129319  4.371537  1.682334
Pb    1.965552  1.083236  2.228217
