37
Energy: -611338.775400 eV PBE+vdW (tier 2 basis)
C    0.484386  0.543973  1.001707
C    -0.028574  0.132710  2.333449
O    0.857700  -0.019104  3.304480
H    -0.296761  0.637067  0.248775
H    1.217743  -0.188911  0.644402
H    0.985472  1.519029  1.115926
N    -1.298228  0.085593  2.716898
C    -2.451935  -0.308182  1.895591
C    -2.069772  -1.725299  1.316210
O    -0.879385  -1.972473  1.114070
H    -1.417589  -0.090110  3.715371
H    -3.277301  -0.402838  2.614721
C    -2.879701  0.706286  0.800803
C    -4.377720  0.628537  0.449788
C    -4.803055  1.782775  -0.477898
N    -6.250390  1.809234  -0.716605
C    -6.885037  1.842750  -1.906422
N    -8.131075  2.323931  -1.967985
N    -6.296215  1.394685  -3.022071
H    -2.284814  0.558703  -0.110894
H    -2.650829  1.713744  1.179497
H    -4.973779  0.683550  1.374966
H    -4.618514  -0.330510  -0.031722
H    -4.287052  1.726527  -1.444419
H    -4.514629  2.747838  -0.032677
H    -6.831206  2.026232  0.088691
H    -8.724469  2.151725  -2.772909
H    -8.517144  2.907379  -1.234059
H    -5.500737  0.771090  -2.993848
H    -6.704415  1.575794  -3.932702
N    -3.090003  -2.550739  1.056951
C    -2.907389  -3.894069  0.493978
H    -4.019153  -2.297281  1.376626
H    -2.753129  -4.632092  1.291584
H    -2.035575  -3.891603  -0.166149
H    -3.800559  -4.164476  -0.077336
Pb    2.757783  -0.392847  4.164863
