37
Energy: -611338.996671 eV PBE+vdW (tier 2 basis)
C    0.074399  0.107133  -0.095209
C    0.059100  -0.063374  1.376624
O    1.148774  -0.324690  2.002743
H    0.743901  0.926674  -0.393499
H    -0.918114  0.237569  -0.535719
H    0.524847  -0.807987  -0.517055
N    -1.084781  0.008235  2.097061
C    -2.030618  1.120348  1.981074
C    -1.442814  2.269503  2.860116
O    -0.295487  2.148274  3.420399
H    -0.976658  -0.349195  3.047079
H    -1.974575  1.485907  0.944082
C    -3.500596  0.700222  2.233943
C    -3.848805  0.189599  3.644306
C    -5.128787  -0.665936  3.733918
N    -6.377974  0.085233  3.569770
C    -7.562542  -0.265378  4.126999
N    -8.597887  0.575830  4.037767
N    -7.698507  -1.421288  4.782599
H    -3.707412  -0.081573  1.487484
H    -4.144580  1.548275  1.952481
H    -3.908558  1.019852  4.363474
H    -3.053337  -0.479239  4.008935
H    -5.151023  -1.115268  4.735243
H    -5.073669  -1.487531  2.999718
H    -6.444375  0.744834  2.801281
H    -8.474647  1.553417  3.801338
H    -9.542569  0.273795  4.253860
H    -8.522951  -1.603103  5.346917
H    -7.086596  -2.210564  4.613458
N    -2.123241  3.390190  2.982300
C    -1.661071  4.587408  3.702227
H    -3.014484  3.459481  2.495795
H    -0.885845  5.103388  3.121321
H    -1.260660  4.303503  4.680551
H    -2.513387  5.258714  3.835921
Pb    1.758681  1.120318  3.633338
