37
Energy: -611340.182481 eV PBE+vdW (tier 2 basis)
C    -0.184962  -2.234175  1.349486
C    -1.548694  -1.813808  1.769710
O    -2.561954  -2.501024  1.398596
H    0.608312  -1.573985  1.715394
H    -0.138703  -2.290737  0.252799
H    -0.005273  -3.254716  1.721190
N    -1.689474  -0.735458  2.553671
C    -2.936096  -0.269122  3.190317
C    -3.795571  0.465017  2.133923
O    -4.575338  -0.215921  1.380550
H    -0.832349  -0.241958  2.798036
H    -3.516673  -1.166525  3.454777
C    -2.604388  0.482617  4.498720
C    -3.841282  0.813979  5.358610
C    -3.571909  1.041499  6.856060
N    -2.885496  2.307974  7.148402
C    -2.299263  2.593066  8.339017
N    -1.679276  3.766874  8.494703
N    -2.302629  1.703326  9.335003
H    -2.002893  1.384262  4.293228
H    -1.941292  -0.188172  5.066754
H    -4.543359  -0.032837  5.320456
H    -4.397948  1.670570  4.947064
H    -2.949420  0.221443  7.242480
H    -4.541231  1.003818  7.379316
H    -3.197062  3.121438  6.624348
H    -1.391088  4.095319  9.410896
H    -1.464981  4.368318  7.707956
H    -1.741688  1.854267  10.168024
H    -2.983408  0.954886  9.383571
N    -3.709980  1.772066  2.000467
C    -4.422681  2.579224  0.999765
H    -3.069983  2.264828  2.619426
H    -3.775301  2.754320  0.130293
H    -4.686385  3.542026  1.448643
H    -5.329323  2.056047  0.686647
Pb    -4.646962  -2.346745  0.617699
