37
Energy: -611338.494567 eV PBE+vdW (tier 2 basis)
C    0.631730  0.367092  0.616161
C    -0.347974  -0.318616  1.542263
O    0.163437  -0.425266  2.861317
H    1.612662  -0.121723  0.650561
H    0.736269  1.417921  0.915783
H    0.259838  0.345078  -0.413471
N    -1.690000  0.185168  1.478219
C    -2.672937  -0.896450  1.563285
C    -1.803690  -2.046932  1.110868
O    -0.532445  -1.732432  1.072424
H    -1.862865  0.989342  2.076798
H    -2.979624  -1.129058  2.603640
C    -3.963564  -0.640667  0.747805
C    -3.755552  -0.304256  -0.735615
C    -5.044812  -0.187169  -1.563604
N    -5.825399  1.015237  -1.239703
C    -7.109621  1.216072  -1.612326
N    -7.744295  2.322730  -1.209853
N    -7.758492  0.306186  -2.345841
H    -4.503385  0.167989  1.262070
H    -4.615596  -1.523386  0.859327
H    -3.158928  -1.090335  -1.224156
H    -3.161708  0.616522  -0.836903
H    -5.685602  -1.063557  -1.385506
H    -4.767256  -0.182658  -2.630182
H    -5.298220  1.855098  -1.017737
H    -8.631444  2.600313  -1.616279
H    -7.370833  2.917460  -0.479991
H    -8.758588  0.381609  -2.502001
H    -7.265284  -0.377565  -2.906799
N    -2.199905  -3.245777  0.793864
C    -1.347373  -4.377279  0.393252
H    -3.201887  -3.424624  0.855147
H    -1.737696  -4.799303  -0.539658
H    -1.376819  -5.145439  1.175804
H    -0.322433  -4.032085  0.242718
Pb    1.681468  -0.293224  4.270215
