37
Energy: -611338.882437 eV PBE+vdW (tier 2 basis)
C    -0.681850  1.482025  -0.249930
C    -0.384967  1.104489  1.156730
O    0.760036  1.520938  1.684092
H    0.128338  1.129505  -0.904252
H    -0.718367  2.578002  -0.337833
H    -1.628080  1.070134  -0.610317
N    -1.165459  0.392113  1.916673
C    -2.559659  -0.036852  1.714320
C    -3.059464  -0.092852  3.196883
O    -2.189401  -0.142007  4.081875
H    -0.966787  0.221186  2.946455
H    -3.096600  0.741271  1.155067
C    -2.729327  -1.391184  0.978721
C    -2.316915  -2.653394  1.753925
C    -2.727278  -3.922515  0.991026
N    -2.425766  -5.125507  1.773660
C    -2.430505  -6.386316  1.296255
N    -2.010828  -7.388530  2.077270
N    -2.822989  -6.638419  0.042527
H    -2.191683  -1.335115  0.019752
H    -3.796154  -1.456649  0.714971
H    -2.807019  -2.656469  2.740431
H    -1.232266  -2.666954  1.936544
H    -2.182687  -3.984722  0.036807
H    -3.806532  -3.876701  0.764243
H    -2.390921  -5.026962  2.783695
H    -2.180728  -8.357445  1.830001
H    -1.504862  -7.219050  2.938532
H    -2.697993  -7.558528  -0.366262
H    -3.392514  -5.984875  -0.480175
N    -4.377552  -0.110035  3.398170
C    -4.999957  -0.145432  4.725349
H    -4.994917  -0.009004  2.596805
H    -5.739432  -0.953441  4.764737
H    -5.502222  0.808116  4.930287
H    -4.222900  -0.316042  5.474388
Pb    2.460002  2.632458  2.259245
