37
Energy: -611338.769450 eV PBE+vdW (tier 2 basis)
C    -0.469672  1.087008  -0.177032
C    0.027293  1.020956  1.221561
O    1.283517  1.352864  1.466276
H    -0.481288  2.135026  -0.514094
H    -1.473507  0.672013  -0.297226
H    0.215604  0.535472  -0.835807
N    -0.704032  0.657077  2.245160
C    -2.134471  0.277541  2.293631
C    -2.579583  0.756312  3.698367
O    -1.867417  0.393967  4.652538
H    -0.270982  0.614196  3.180319
H    -2.665432  0.789362  1.484114
C    -2.277333  -1.261365  2.176685
C    -3.712473  -1.803495  2.315129
C    -4.246406  -2.062440  3.733036
N    -3.555340  -3.158231  4.428857
C    -3.096328  -3.129283  5.698762
N    -3.045965  -4.269731  6.397976
N    -2.673685  -1.987750  6.252626
H    -1.618984  -1.728760  2.924410
H    -1.883729  -1.547836  1.190968
H    -3.760484  -2.748115  1.753821
H    -4.430368  -1.144093  1.804607
H    -5.311150  -2.327926  3.652936
H    -4.203471  -1.174797  4.372024
H    -3.713564  -4.088223  4.048712
H    -2.507523  -4.340902  7.254541
H    -3.601749  -5.078074  6.140639
H    -2.513638  -1.939072  7.252471
H    -2.407544  -1.171316  5.696832
N    -3.687865  1.492186  3.823675
C    -4.573660  2.017807  2.777073
H    -3.895738  1.764260  4.784402
H    -5.395529  2.546568  3.267993
H    -5.010341  1.214521  2.172312
H    -4.053810  2.736362  2.130589
Pb    3.268927  2.069645  1.197658
