37
Energy: -611339.460246 eV PBE+vdW (tier 2 basis)
C    -1.141578  -1.538499  -0.439383
C    -1.120671  -1.467877  1.047045
O    -0.807694  -2.505484  1.724669
H    -1.384187  -0.584567  -0.919207
H    -1.870871  -2.298655  -0.755926
H    -0.159809  -1.885961  -0.793015
N    -1.418167  -0.309387  1.654720
C    -1.377505  -0.063882  3.105479
C    -2.502263  -0.871120  3.809936
O    -2.169610  -1.978447  4.380267
H    -1.668589  0.473457  1.053046
H    -0.453828  -0.523554  3.487902
C    -1.362658  1.448714  3.419804
C    -0.046640  2.220774  3.168494
C    1.003472  2.148172  4.305735
N    1.765643  3.392135  4.469032
C    3.066405  3.608354  4.185173
N    3.716044  2.827536  3.308705
N    3.714230  4.603704  4.794494
H    -1.658628  1.574054  4.472459
H    -2.153095  1.937378  2.834839
H    -0.334427  3.274899  3.053072
H    0.402918  1.937066  2.204235
H    1.718113  1.326306  4.170071
H    0.498556  1.966096  5.266249
H    1.300072  4.138805  4.977635
H    4.724346  2.894264  3.213313
H    3.222614  2.358464  2.560448
H    3.360578  5.036803  5.641297
H    4.593388  4.961355  4.433777
N    -3.765928  -0.502118  3.863645
C    -4.465015  0.664325  3.306236
H    -4.353926  -1.150247  4.394527
H    -4.405212  1.519210  3.990989
H    -5.517763  0.390343  3.184684
H    -4.067017  0.931440  2.323306
Pb    -1.061545  -3.756977  3.573828
