37
Energy: -611338.210319 eV PBE+vdW (tier 2 basis)
C    0.132427  -0.523614  -0.405306
C    -0.440172  -0.380749  0.988193
O    0.583950  -0.294687  1.965824
H    -0.672080  -0.685696  -1.130174
H    0.832016  -1.366289  -0.458765
H    0.653259  0.403078  -0.678073
N    -1.452111  0.627012  1.127037
C    -2.593057  0.166960  1.923151
C    -2.332959  -1.319164  1.909848
O    -1.203430  -1.626056  1.312512
H    -1.094668  1.549703  1.361528
H    -2.549640  0.494546  2.981033
C    -3.951842  0.644867  1.341563
C    -4.260314  0.172070  -0.085077
C    -5.643974  0.576531  -0.617693
N    -5.751495  2.015292  -0.896846
C    -6.916167  2.665358  -1.117927
N    -6.904456  3.991177  -1.296481
N    -8.076931  2.002824  -1.125705
H    -3.925518  1.743355  1.392223
H    -4.753983  0.342668  2.029533
H    -4.236171  -0.928096  -0.134602
H    -3.478502  0.516619  -0.779108
H    -6.418625  0.316850  0.119151
H    -5.841013  -0.003350  -1.533935
H    -4.918317  2.476257  -1.251083
H    -7.718818  4.483821  -1.647766
H    -6.092556  4.553504  -1.071238
H    -8.960495  2.502018  -1.141385
H    -8.120734  1.003866  -1.285857
N    -3.049074  -2.287931  2.407730
C    -4.305819  -2.188107  3.163365
H    -2.674089  -3.229949  2.270461
H    -4.317692  -2.994314  3.904031
H    -5.165257  -2.312216  2.493085
H    -4.363930  -1.230131  3.687390
Pb    2.550354  -0.455594  2.610514
