37
Energy: -611340.153731 eV PBE+vdW (tier 2 basis)
C    -0.412322  -0.528458  0.598106
C    -0.269338  -0.375976  2.071560
O    0.799640  0.138731  2.548483
H    0.426627  -1.118130  0.203256
H    -0.334125  0.468933  0.138273
H    -1.358191  -0.989504  0.295248
N    -1.278277  -0.754782  2.869767
C    -1.392814  -0.510184  4.317505
C    -0.597690  -1.581541  5.097070
O    0.682747  -1.542208  5.076144
H    -2.080886  -1.171973  2.404665
H    -0.833596  0.418260  4.515037
C    -2.851423  -0.203174  4.741926
C    -4.005510  -1.151264  4.349178
C    -5.350878  -0.553362  4.810371
N    -6.480979  -1.402375  4.428305
C    -7.698371  -1.394083  5.020892
N    -8.591442  -2.329137  4.684846
N    -7.999003  -0.485284  5.954187
H    -3.071986  0.790676  4.324492
H    -2.838660  -0.059500  5.833297
H    -3.903621  -2.159635  4.780229
H    -4.044177  -1.287881  3.255397
H    -5.462311  0.458483  4.384994
H    -5.352190  -0.459408  5.906013
H    -6.436425  -1.863845  3.524380
H    -8.325491  -3.170257  4.185202
H    -9.569811  -2.240469  4.940584
H    -8.844910  -0.574703  6.508939
H    -7.521484  0.406439  6.006668
N    -1.203254  -2.516744  5.796877
C    -0.510799  -3.554700  6.577278
H    -2.219058  -2.521905  5.804525
H    -1.250342  -4.074153  7.191651
H    0.244191  -3.093160  7.223039
H    -0.024587  -4.272418  5.905089
Pb    2.316746  -0.292309  4.131528
