37
Energy: -611338.876314 eV PBE+vdW (tier 2 basis)
C    0.435867  1.057146  -0.336330
C    0.193953  1.025910  1.129312
O    1.212129  0.718066  1.922350
H    0.845136  0.090497  -0.662567
H    1.188287  1.825162  -0.569210
H    -0.470482  1.268828  -0.909759
N    -0.946980  1.280580  1.701475
C    -2.222268  1.776954  1.157093
C    -2.774756  2.542717  2.408636
O    -2.382715  2.145261  3.515872
H    -1.063212  1.300190  2.753069
H    -2.032935  2.454316  0.312827
C    -3.149714  0.605256  0.730710
C    -4.464171  1.074208  0.079488
C    -5.319949  -0.035529  -0.556392
N    -6.121757  -0.784281  0.419162
C    -7.300310  -1.384276  0.153920
N    -8.052306  -1.834762  1.166134
N    -7.731189  -1.518250  -1.104473
H    -3.332923  -0.019563  1.618564
H    -2.593459  -0.018174  0.013396
H    -4.226383  1.774856  -0.735804
H    -5.084623  1.630245  0.796820
H    -4.683242  -0.721996  -1.139271
H    -6.020477  0.441610  -1.254866
H    -5.726597  -0.963171  1.336142
H    -7.916681  -1.511122  2.116522
H    -8.834108  -2.460201  1.002826
H    -8.686111  -1.800217  -1.300336
H    -7.101710  -1.466715  -1.895989
N    -3.627796  3.547746  2.198721
C    -4.212457  4.352367  3.276552
H    -3.814641  3.837897  1.243174
H    -5.293966  4.440610  3.124254
H    -3.769111  5.355925  3.283008
H    -4.011631  3.860165  4.231278
Pb    3.039659  0.423536  2.934747
