37
Energy: -611339.074149 eV PBE+vdW (tier 2 basis)
C    0.057020  -0.174439  0.592556
C    -0.141057  -0.054140  2.056656
O    0.855782  -0.191214  2.850477
H    0.538562  -1.150650  0.412009
H    0.773672  0.576098  0.228706
H    -0.871367  -0.132105  0.016515
N    -1.361665  0.167207  2.600108
C    -2.257281  1.246590  2.167555
C    -1.573457  2.571869  2.608881
O    -0.599987  2.542293  3.451685
H    -1.380319  0.016354  3.610611
H    -2.309196  1.236338  1.068728
C    -3.675235  1.053607  2.759226
C    -4.357303  -0.225701  2.239037
C    -5.699800  -0.587582  2.895633
N    -6.821403  0.224693  2.400543
C    -8.052128  0.243592  2.968991
N    -9.005446  1.015949  2.438308
N    -8.307353  -0.466672  4.071295
H    -4.278307  1.941174  2.525479
H    -3.597111  1.025539  3.858670
H    -3.695064  -1.086336  2.411048
H    -4.484133  -0.171916  1.145202
H    -5.632867  -0.451639  3.985189
H    -5.891543  -1.655093  2.700256
H    -6.805301  0.450804  1.409448
H    -9.976678  0.924648  2.718026
H    -8.800298  1.709659  1.729110
H    -9.181584  -0.349166  4.573991
H    -7.738636  -1.260136  4.340440
N    -1.963534  3.735888  2.130833
C    -3.007072  4.043404  1.147820
H    -1.455221  4.540630  2.506147
H    -3.900611  4.430079  1.654636
H    -3.264540  3.160541  0.556379
H    -2.626174  4.817081  0.471744
Pb    1.302249  1.539981  4.251017
