37
Energy: -611339.433569 eV PBE+vdW (tier 2 basis)
C    -0.560860  2.199336  0.863439
C    -0.920703  1.562021  2.161150
O    -1.298113  2.300021  3.141242
H    -1.464490  2.691513  0.468497
H    -0.188614  1.494421  0.112632
H    0.178518  2.995602  1.021317
N    -0.860920  0.228840  2.258970
C    -1.442738  -0.694053  3.254196
C    -1.150849  -0.331609  4.711109
O    -0.197787  0.468770  5.039003
H    -0.583817  -0.235023  1.395742
H    -2.538687  -0.646970  3.131950
C    -1.022208  -2.149919  2.899720
C    0.455150  -2.535383  3.097059
C    0.699731  -3.968324  2.587452
N    2.090526  -4.383363  2.785557
C    2.524497  -5.663644  2.807055
N    3.785957  -5.920542  3.166907
N    1.697928  -6.669728  2.502733
H    -1.324443  -2.309360  1.851662
H    -1.660607  -2.828667  3.480404
H    0.732861  -2.475613  4.160253
H    1.114774  -1.838210  2.555508
H    0.426767  -4.029786  1.519918
H    0.056346  -4.669626  3.139124
H    2.810362  -3.671623  2.705287
H    4.357959  -5.232435  3.642914
H    4.207724  -6.828393  2.999694
H    1.972212  -7.633080  2.668673
H    0.871996  -6.530030  1.933469
N    -1.886717  -0.878476  5.665627
C    -3.045816  -1.777951  5.585865
H    -1.577514  -0.645396  6.611583
H    -2.732654  -2.822743  5.707650
H    -3.579820  -1.656109  4.638815
H    -3.729158  -1.523753  6.403286
Pb    -0.311438  2.737040  5.084480
