37
Energy: -611340.153345 eV PBE+vdW (tier 2 basis)
C    -0.619354  -0.135233  0.529275
C    -0.389089  -0.160041  1.999354
O    0.702024  0.310158  2.471845
H    0.200341  -0.657526  0.016712
H    -0.579821  0.911811  0.190923
H    -1.576915  -0.573045  0.228631
N    -1.344924  -0.648879  2.803190
C    -1.374445  -0.584068  4.273888
C    -0.530949  -1.735774  4.868018
O    0.745327  -1.675451  4.772206
H    -2.169881  -1.020072  2.338220
H    -0.806265  0.318230  4.550745
C    -2.806234  -0.342630  4.816466
C    -3.982375  -1.241488  4.375811
C    -5.300071  -0.703646  4.971021
N    -6.450264  -1.511212  4.560125
C    -7.636179  -1.565876  5.211179
N    -8.547807  -2.464179  4.828136
N    -7.886380  -0.756532  6.245389
H    -3.049697  0.693792  4.538509
H    -2.730863  -0.334626  5.914722
H    -3.862925  -2.292649  4.682316
H    -4.077566  -1.251078  3.277027
H    -5.432495  0.347982  4.664739
H    -5.242268  -0.729383  6.068917
H    -6.452029  -1.878843  3.613123
H    -8.309774  -3.250263  4.233762
H    -9.511628  -2.404261  5.141118
H    -8.703304  -0.903211  6.830569
H    -7.403463  0.125889  6.364019
N    -1.101716  -2.751101  5.480797
C    -0.403612  -3.888519  6.095092
H    -2.117005  -2.752523  5.534842
H    0.649630  -3.637849  6.236527
H    -0.489433  -4.770270  5.446873
H    -0.868262  -4.105239  7.062968
Pb    2.310673  -0.293396  3.900939
