37
Energy: -611338.712834 eV PBE+vdW (tier 2 basis)
C    1.412896  -1.257312  -0.886832
C    0.919395  0.142559  -0.835474
O    1.704898  1.110410  -1.263782
H    1.458311  -1.584949  -1.935928
H    0.776955  -1.961328  -0.344039
H    2.423305  -1.301485  -0.456289
N    -0.238424  0.499711  -0.318727
C    -1.355193  -0.406784  -0.016257
C    -1.698102  -1.187639  -1.344024
O    -1.213081  -0.796916  -2.404902
H    -0.449213  1.497698  -0.357953
H    -0.999558  -1.127533  0.734551
C    -2.548386  0.364479  0.593486
C    -3.499819  1.065062  -0.393594
C    -4.664996  1.728737  0.357690
N    -5.637714  2.310239  -0.572293
C    -6.923297  2.593685  -0.281247
N    -7.760484  2.938225  -1.266524
N    -7.372473  2.508231  0.975991
H    -2.151718  1.079717  1.331676
H    -3.121442  -0.362007  1.184669
H    -3.904278  0.333143  -1.108307
H    -2.965392  1.823573  -0.989121
H    -4.278842  2.501888  1.043364
H    -5.186407  0.972609  0.963527
H    -5.292275  2.650723  -1.464108
H    -8.666028  3.350479  -1.069045
H    -7.537213  2.770184  -2.240517
H    -8.365253  2.567102  1.177441
H    -6.746630  2.549843  1.770822
N    -2.502222  -2.260827  -1.236531
C    -3.101540  -2.875296  -0.052775
H    -2.712187  -2.693163  -2.135586
H    -3.236686  -3.943654  -0.251026
H    -4.085498  -2.445551  0.180059
H    -2.447511  -2.787596  0.822293
Pb    3.487303  1.820122  -2.196543
