37
Energy: -611340.075952 eV PBE+vdW (tier 2 basis)
C    1.518281  -1.582187  1.965184
C    0.804107  -0.274798  1.928463
O    1.488811  0.806339  1.898278
H    2.158605  -1.672296  1.075705
H    0.851215  -2.448979  2.017629
H    2.193817  -1.590138  2.833547
N    -0.534755  -0.275568  1.944176
C    -1.505036  0.844531  2.028333
C    -1.480635  1.727291  0.764952
O    -0.516025  2.531315  0.507846
H    -0.953798  -1.203097  1.949379
H    -2.479421  0.336464  2.030817
C    -1.426134  1.668463  3.337612
C    -1.733898  0.827965  4.591369
C    -1.687626  1.601020  5.926967
N    -2.866725  2.421984  6.229336
C    -3.779512  2.165979  7.195197
N    -4.518768  3.168265  7.680144
N    -3.961039  0.925553  7.658960
H    -2.152231  2.490096  3.234779
H    -0.434455  2.133706  3.435853
H    -0.995769  0.016311  4.674757
H    -2.718668  0.346122  4.485929
H    -0.807098  2.259199  5.961729
H    -1.552682  0.889476  6.751287
H    -2.884355  3.367207  5.860782
H    -4.236596  4.137532  7.584647
H    -5.342612  2.990137  8.245956
H    -4.501859  0.757793  8.501311
H    -3.616679  0.109536  7.170587
N    -2.524818  1.669141  -0.038108
C    -2.712718  2.449700  -1.267501
H    -3.269361  1.014990  0.197782
H    -2.059829  3.325004  -1.252257
H    -3.760135  2.765182  -1.323159
H    -2.482488  1.825075  -2.140887
Pb    1.688891  2.746681  0.831620
