37
Energy: -611338.861754 eV PBE+vdW (tier 2 basis)
C    0.120847  0.201762  0.550578
C    -0.367801  -0.309643  1.857920
O    0.506233  -0.918749  2.651879
H    0.568876  -0.622740  -0.022440
H    0.910757  0.948875  0.717862
H    -0.670868  0.656811  -0.050315
N    -1.591359  -0.209700  2.287574
C    -2.726407  0.567259  1.758081
C    -3.506308  0.858401  3.080997
O    -3.230444  0.136345  4.056760
H    -1.891890  -0.496346  3.269875
H    -2.347326  1.495343  1.311710
C    -3.590203  -0.181485  0.708754
C    -4.506951  -1.293815  1.244476
C    -5.373434  -1.883032  0.120195
N    -6.314353  -2.876765  0.646645
C    -7.457047  -3.268095  0.048827
N    -8.328344  -4.025379  0.725635
N    -7.737714  -2.885941  -1.202388
H    -2.919032  -0.576323  -0.069273
H    -4.200790  0.587065  0.212490
H    -5.168371  -0.894085  2.027345
H    -3.909831  -2.093792  1.710145
H    -4.731571  -2.334809  -0.654936
H    -5.958653  -1.080215  -0.352736
H    -6.031266  -3.404309  1.466626
H    -9.087048  -4.505997  0.254090
H    -8.282347  -4.121604  1.733355
H    -8.658200  -3.043778  -1.599074
H    -7.014243  -2.584020  -1.843062
N    -4.425424  1.825041  3.111469
C    -4.822531  2.763305  2.062708
H    -4.887358  1.920651  4.016237
H    -5.719521  2.415593  1.532749
H    -4.012632  2.922009  1.343174
H    -5.048292  3.730428  2.524262
Pb    2.199763  -1.486929  3.773739
