37
Energy: -611339.008566 eV PBE+vdW (tier 2 basis)
C    0.262880  2.110659  0.029260
C    0.045784  0.970046  0.949890
O    1.031016  0.489625  1.617351
H    1.060030  1.807905  -0.671568
H    0.661795  2.983220  0.566259
H    -0.622313  2.384156  -0.551408
N    -1.164004  0.381273  1.092553
C    -2.402665  1.119683  1.352014
C    -2.275302  1.656422  2.811875
O    -1.358495  1.214732  3.593687
H    -1.120651  -0.522575  1.567012
H    -2.433188  1.989628  0.678903
C    -3.628106  0.213004  1.056409
C    -4.982457  0.944047  0.975917
C    -6.072138  0.232082  0.154249
N    -6.620439  -0.961230  0.812510
C    -7.396936  -1.879244  0.184773
N    -7.834955  -2.940588  0.869425
N    -7.693684  -1.753077  -1.111361
H    -3.666059  -0.608695  1.787798
H    -3.409463  -0.244957  0.080201
H    -4.846298  1.914407  0.472017
H    -5.376573  1.169372  1.979712
H    -5.653045  -0.074504  -0.815214
H    -6.874336  0.962586  -0.040584
H    -6.753392  -0.904197  1.818594
H    -8.556708  -3.549049  0.496731
H    -7.464744  -3.179488  1.781731
H    -8.151728  -2.506339  -1.615293
H    -7.638358  -0.862637  -1.590905
N    -3.114010  2.583596  3.227795
C    -3.109384  3.200471  4.563337
H    -3.794835  2.941145  2.560681
H    -4.101432  3.620251  4.752911
H    -2.367627  4.008915  4.604711
H    -2.878077  2.446122  5.320593
Pb    0.796070  0.441375  3.868402
