37
Energy: -611338.338781 eV PBE+vdW (tier 2 basis)
C    -0.360055  -1.180597  2.255663
C    -1.503441  -0.254631  2.538308
O    -2.165180  -0.267518  3.574394
H    0.352185  -1.149797  3.090431
H    0.166479  -0.966679  1.319045
H    -0.747477  -2.209135  2.218421
N    -1.824366  0.665833  1.532048
C    -2.847037  1.662930  1.804449
C    -3.842066  1.706406  0.650175
O    -4.741894  2.645886  0.597030
H    -1.078081  0.905520  0.880127
H    -3.424643  1.224553  2.648153
C    -2.336697  3.049759  2.267411
C    -1.953767  3.125272  3.762325
C    -0.537194  2.643066  4.135167
N    -0.265397  2.767324  5.566222
C    -0.361367  1.791277  6.491512
N    0.098828  2.025344  7.727082
N    -0.899184  0.603496  6.196070
H    -3.141450  3.777513  2.100372
H    -1.501402  3.367754  1.623686
H    -2.698646  2.581451  4.361980
H    -2.031378  4.178807  4.066300
H    0.217667  3.244903  3.610143
H    -0.355093  1.601406  3.849352
H    0.029539  3.679340  5.901410
H    -0.074374  1.378245  8.488264
H    0.686174  2.824477  7.937217
H    -1.402124  0.409703  5.330671
H    -0.840752  -0.158613  6.862194
N    -3.825335  0.755047  -0.256754
C    -4.765761  0.609576  -1.357923
H    -3.096404  0.047152  -0.114132
H    -4.509529  -0.283967  -1.937317
H    -4.702174  1.470648  -2.043446
H    -5.793463  0.465323  -0.980512
Pb    -6.520707  3.475522  -0.307875
