37
Energy: -611338.477035 eV PBE+vdW (tier 2 basis)
C    -2.226834  -0.820040  -1.209643
C    -1.762189  -0.771720  0.206825
O    -0.703572  -0.061338  0.528970
H    -3.124145  -1.434014  -1.341347
H    -1.433572  -1.240111  -1.846747
H    -2.454433  0.197216  -1.562441
N    -2.408866  -1.440104  1.132098
C    -2.172494  -1.575585  2.581016
C    -2.539097  -3.058689  2.873171
O    -3.687395  -3.409842  2.549591
H    -3.232623  -1.977019  0.831597
H    -1.127739  -1.328734  2.795524
C    -3.166476  -0.662539  3.349384
C    -3.332912  -1.015400  4.850505
C    -4.788460  -1.161873  5.309082
N    -5.434634  -2.337401  4.716557
C    -6.619296  -2.841663  5.106067
N    -7.058340  -3.979170  4.549009
N    -7.353311  -2.228945  6.039529
H    -4.135828  -0.742380  2.836895
H    -2.841885  0.379244  3.230513
H    -2.881835  -0.227506  5.466119
H    -2.792285  -1.937102  5.111857
H    -5.353807  -0.248503  5.054629
H    -4.794468  -1.263567  6.405204
H    -4.971867  -2.790054  3.921761
H    -6.467295  -4.528153  3.936522
H    -7.979764  -4.349850  4.752400
H    -8.200895  -2.649962  6.404029
H    -7.115059  -1.312008  6.394886
N    -1.647621  -3.861269  3.461053
C    -0.273800  -3.567231  3.879954
H    -1.980777  -4.815285  3.600337
H    0.084444  -4.410760  4.477153
H    -0.228104  -2.673140  4.513293
H    0.397096  -3.458206  3.017778
Pb    0.848790  1.225469  -0.248866
