37
Energy: -611339.666402 eV PBE+vdW (tier 2 basis)
C    0.142283  -0.842342  -0.520211
C    -0.311910  -0.838815  0.896431
O    0.539856  -0.659987  1.831749
H    -0.669413  -0.993455  -1.239481
H    0.901280  -1.625974  -0.657438
H    0.642372  0.114450  -0.732544
N    -1.615071  -1.006752  1.170841
C    -2.220382  -0.933361  2.509883
C    -1.812295  -2.179074  3.338816
O    -0.834406  -2.045523  4.165363
H    -2.234792  -1.151760  0.375950
H    -1.724552  -0.104700  3.037677
C    -3.729590  -0.604763  2.442090
C    -4.004146  0.870509  2.085740
C    -5.479563  1.205400  1.782678
N    -6.375784  1.271988  2.944706
C    -7.007029  2.383374  3.391003
N    -8.136787  2.257431  4.093712
N    -6.507989  3.600484  3.153468
H    -4.166043  -0.848616  3.422256
H    -4.224561  -1.261171  1.710841
H    -3.440347  1.142401  1.179612
H    -3.632778  1.523927  2.889974
H    -5.900355  0.472033  1.078467
H    -5.527836  2.170677  1.263598
H    -6.771433  0.396915  3.273386
H    -8.520443  3.036701  4.619329
H    -8.702907  1.416959  4.053105
H    -7.063750  4.433409  3.319233
H    -5.550422  3.743528  2.860279
N    -2.391545  -3.359090  3.246518
C    -3.489545  -3.827375  2.392571
H    -1.997521  -4.058540  3.881205
H    -3.440969  -3.371284  1.399748
H    -4.461053  -3.625994  2.860371
H    -3.379967  -4.910042  2.274552
Pb    1.200395  -1.106565  3.930519
