37
Energy: -611337.787810 eV PBE+vdW (tier 2 basis)
C    0.093505  0.305612  -0.410956
C    -0.373792  -0.432228  0.782920
O    0.181505  -1.601164  1.059342
H    -0.225667  -0.244143  -1.311568
H    1.191435  0.336464  -0.414774
H    -0.330148  1.314266  -0.476140
N    -1.325048  -0.052176  1.615305
C    -2.226814  1.140872  1.731005
C    -2.748385  1.654879  0.362221
O    -2.042143  2.398956  -0.327577
H    -1.490152  -0.730899  2.362194
H    -3.075551  0.725616  2.288076
C    -1.652291  2.260897  2.635762
C    -0.449901  3.106083  2.160235
C    -0.769189  4.508275  1.622381
N    -1.171608  5.421431  2.702777
C    -1.725660  6.637755  2.512820
N    -2.073833  7.376475  3.572949
N    -1.959498  7.093448  1.277633
H    -1.408153  1.783549  3.595573
H    -2.510779  2.914046  2.857986
H    0.115356  2.591819  1.373878
H    0.258796  3.206098  2.996752
H    -1.579795  4.450768  0.884207
H    0.127527  4.898377  1.113966
H    -0.730326  5.278087  3.607068
H    -2.086100  6.992899  4.510565
H    -2.324486  8.354522  3.476984
H    -2.485181  7.947888  1.127811
H    -1.497702  6.696246  0.469163
N    -3.992525  1.287552  0.003850
C    -4.978232  0.476025  0.722485
H    -4.297074  1.712227  -0.871903
H    -5.813944  0.283543  0.042997
H    -5.377063  0.996903  1.603536
H    -4.567236  -0.497718  1.016344
Pb    1.373941  -3.356752  0.818513
