37
Energy: -611338.858008 eV PBE+vdW (tier 2 basis)
C    -0.466596  -1.712124  0.432387
C    -0.112294  -0.483194  1.188384
O    0.737052  0.363738  0.614229
H    0.445301  -2.286024  0.213969
H    -0.911218  -1.434216  -0.534220
H    -1.169234  -2.348296  0.976385
N    -0.560325  -0.162356  2.364452
C    -1.645797  -0.698752  3.201831
C    -2.173128  0.649076  3.827638
O    -1.409672  1.629224  3.753004
H    -0.394796  0.815107  2.784285
H    -2.416921  -1.169526  2.576272
C    -1.168717  -1.644444  4.330650
C    -0.861956  -3.100145  3.942237
C    -0.602694  -3.939267  5.206095
N    -0.423928  -5.359398  4.889055
C    0.109846  -6.277473  5.722743
N    0.320552  -7.522312  5.280464
N    0.455684  -5.946923  6.971328
H    -0.300518  -1.180992  4.823326
H    -1.970380  -1.646243  5.084497
H    0.012735  -3.162853  3.277635
H    -1.722429  -3.524386  3.398388
H    -1.446549  -3.808524  5.905163
H    0.309497  -3.581532  5.705896
H    -0.941990  -5.727111  4.096742
H    0.532473  -8.280962  5.919643
H    0.288086  -7.751759  4.294166
H    0.989984  -6.587271  7.549385
H    0.072118  -5.132796  7.434831
N    -3.371734  0.643875  4.403141
C    -3.977458  1.815845  5.046164
H    -3.926026  -0.207495  4.371744
H    -4.893686  2.099249  4.514618
H    -3.263088  2.641769  5.016644
H    -4.223400  1.578858  6.087911
Pb    1.814163  1.845188  -0.425966
