37
Energy: -611340.232870 eV PBE+vdW (tier 2 basis)
C    0.252798  -0.040901  -0.334382
C    0.315939  0.516610  1.043469
O    0.585054  1.756150  1.209856
H    0.025730  -1.111731  -0.363494
H    1.204794  0.146283  -0.850805
H    -0.518526  0.507414  -0.896799
N    0.061747  -0.285769  2.086900
C    -0.061968  0.121534  3.499637
C    1.356727  0.336968  4.082552
O    1.928766  1.472165  3.924917
H    -0.128387  -1.262486  1.867589
H    -0.530092  1.117914  3.508709
C    -0.990019  -0.860161  4.249040
C    -1.394196  -0.379956  5.656959
C    -2.200201  -1.386050  6.501715
N    -3.616496  -1.478382  6.132622
C    -4.621698  -1.775404  6.988899
N    -5.887784  -1.619709  6.587766
N    -4.362920  -2.198220  8.229706
H    -0.529667  -1.862499  4.302636
H    -1.880029  -0.981350  3.612089
H    -1.954888  0.564497  5.589546
H    -0.490835  -0.156311  6.244048
H    -2.160421  -1.042384  7.543653
H    -1.725228  -2.381288  6.463068
H    -3.862203  -1.496839  5.148418
H    -6.658909  -2.023330  7.110074
H    -6.129447  -1.045727  5.788245
H    -5.101196  -2.247171  8.925178
H    -3.481795  -2.632351  8.477086
N    1.972052  -0.641723  4.711593
C    3.336177  -0.591388  5.256275
H    1.472855  -1.523317  4.811995
H    3.629732  0.448863  5.413920
H    4.033209  -1.074262  4.558620
H    3.353585  -1.131589  6.208448
Pb    1.801743  3.169899  2.437253
