37
Energy: -611340.079106 eV PBE+vdW (tier 2 basis)
C    1.562204  1.407809  2.177033
C    0.681304  0.282540  2.599050
O    1.194109  -0.704242  3.233739
H    1.041593  2.189544  1.614072
H    2.381483  1.003168  1.564280
H    2.032906  1.854364  3.064965
N    -0.619124  0.334506  2.285340
C    -1.701287  -0.666019  2.464557
C    -2.026611  -0.904196  3.952228
O    -1.248107  -1.563134  4.728450
H    -0.899605  1.181709  1.795541
H    -2.580192  -0.166362  2.033737
C    -1.501461  -1.981686  1.671960
C    -1.427936  -1.744023  0.151485
C    -1.321526  -3.002840  -0.725454
N    -2.610510  -3.691331  -0.887990
C    -2.754733  -4.904819  -1.474833
N    -3.972897  -5.447446  -1.563227
N    -1.690408  -5.575625  -1.925430
H    -2.348900  -2.637993  1.922697
H    -0.593534  -2.499961  2.012282
H    -0.543345  -1.134840  -0.082002
H    -2.291976  -1.145498  -0.182966
H    -0.604015  -3.712581  -0.287347
H    -0.930867  -2.692798  -1.708302
H    -3.435053  -3.097858  -0.923732
H    -4.766513  -5.068119  -1.060213
H    -4.150164  -6.257109  -2.149005
H    -0.819708  -5.108762  -2.148234
H    -1.779811  -6.534670  -2.246787
N    -3.175413  -0.442226  4.405547
C    -3.684627  -0.591309  5.774642
H    -3.764493  0.082212  3.760672
H    -4.762378  -0.780250  5.726494
H    -3.510950  0.335516  6.337541
H    -3.181308  -1.426516  6.266492
Pb    0.928791  -1.986971  5.029938
