37
Energy: -611340.049375 eV PBE+vdW (tier 2 basis)
C    -1.461927  -1.423203  -0.415753
C    -1.468514  -0.964184  1.001035
O    -0.723566  -1.564412  1.850805
H    -1.751676  -2.484620  -0.440435
H    -0.437336  -1.371813  -0.811081
H    -2.131726  -0.852925  -1.067727
N    -2.267137  0.055386  1.341631
C    -2.585321  0.631799  2.671433
C    -1.334689  1.263717  3.311504
O    -0.471621  0.553059  3.944188
H    -2.809339  0.442451  0.571600
H    -3.268845  1.456336  2.434821
C    -3.353855  -0.342315  3.593633
C    -4.094353  0.364946  4.746002
C    -5.052378  -0.591935  5.479624
N    -5.771078  0.097369  6.553875
C    -7.000500  -0.224033  7.014150
N    -7.623665  0.611476  7.850692
N    -7.606713  -1.349705  6.620649
H    -2.683633  -1.121282  3.984339
H    -4.082192  -0.857395  2.949997
H    -4.681076  1.207719  4.349194
H    -3.371092  0.783973  5.464320
H    -4.495110  -1.454903  5.881413
H    -5.797699  -0.974297  4.767678
H    -5.250782  0.769009  7.110570
H    -8.436098  0.316906  8.383013
H    -7.325793  1.573318  7.968182
H    -8.586185  -1.510564  6.833910
H    -7.083292  -2.147413  6.281609
N    -1.151978  2.568016  3.242232
C    -1.981799  3.594538  2.589283
H    -0.301602  2.900424  3.703253
H    -1.474651  4.556035  2.709376
H    -2.968111  3.666632  3.063214
H    -2.083770  3.395095  1.516079
Pb    0.626104  -1.378203  3.598695
