37
Energy: -611338.734727 eV PBE+vdW (tier 2 basis)
C    -0.499168  0.362025  -0.426068
C    -0.317020  0.904068  0.941062
O    0.534014  1.899350  1.111801
H    0.474124  0.001939  -0.792408
H    -0.834413  1.169404  -1.094331
H    -1.180625  -0.488860  -0.459147
N    -0.931900  0.495559  2.037135
C    -1.902554  -0.601019  2.303969
C    -1.195612  -1.979572  2.065820
O    -0.932669  -2.309340  0.910826
H    -0.640879  1.000271  2.876174
H    -2.128168  -0.476519  3.371916
C    -3.221123  -0.502111  1.513485
C    -4.269213  -1.507796  2.024727
C    -5.612201  -1.351324  1.286280
N    -6.677085  -2.196248  1.835473
C    -7.301206  -3.221016  1.223138
N    -8.502241  -3.612929  1.661880
N    -6.738750  -3.853467  0.185358
H    -3.030038  -0.684017  0.447862
H    -3.606309  0.523907  1.612308
H    -4.438621  -1.354404  3.102245
H    -3.900578  -2.537840  1.906502
H    -5.508105  -1.574505  0.216314
H    -5.957454  -0.308645  1.349047
H    -7.090279  -1.891694  2.712133
H    -8.896779  -4.508071  1.392887
H    -9.078815  -3.016468  2.244889
H    -7.278222  -4.493780  -0.386810
H    -5.745671  -3.800860  0.002231
N    -0.940633  -2.700697  3.169087
C    -0.328112  -4.031264  3.135676
H    -1.222854  -2.335771  4.073439
H    0.510089  -4.066653  3.840919
H    0.032945  -4.224883  2.122016
H    -1.061061  -4.798656  3.414173
Pb    2.030910  3.332072  0.595679
