37
Energy: -611340.123959 eV PBE+vdW (tier 2 basis)
C    -2.880478  0.087878  -0.314079
C    -2.356531  -0.189094  1.053581
O    -1.923321  -1.361071  1.326391
H    -3.679674  -0.633450  -0.539103
H    -2.083995  -0.093749  -1.050433
H    -3.263140  1.105665  -0.443382
N    -2.371861  0.801198  1.956105
C    -2.016884  0.805333  3.395596
C    -0.517793  0.545406  3.622123
O    0.001042  -0.620704  3.470891
H    -2.727500  1.686423  1.601897
H    -2.200164  1.842114  3.702209
C    -2.905910  -0.093307  4.290027
C    -4.349856  0.429214  4.418719
C    -5.162617  -0.349514  5.467929
N    -6.503308  0.225738  5.610546
C    -7.572225  -0.394890  6.155720
N    -8.777981  0.173023  6.059217
N    -7.437428  -1.581231  6.759711
H    -2.433141  -0.120302  5.284504
H    -2.903346  -1.126890  3.915782
H    -4.867723  0.378480  3.449605
H    -4.318694  1.491159  4.714041
H    -4.630304  -0.330874  6.434348
H    -5.272052  -1.399890  5.159946
H    -6.601727  1.224594  5.454968
H    -9.557874  -0.143342  6.626456
H    -8.964415  0.927962  5.408828
H    -8.255335  -2.113980  7.038611
H    -6.551519  -1.884066  7.145450
N    0.262907  1.524174  4.035415
C    -0.055615  2.934685  4.312052
H    1.232261  1.242016  4.202125
H    -0.593415  3.391511  3.473932
H    0.890711  3.469123  4.436636
H    -0.630585  3.031197  5.241620
Pb    -0.220510  -2.470537  2.241019
