37
Energy: -611340.279938 eV PBE+vdW (tier 2 basis)
C    0.681437  -1.267992  -0.074427
C    0.208431  -0.452204  1.076082
O    0.822030  0.630670  1.374738
H    0.644817  -0.644800  -0.981201
H    0.091861  -2.175979  -0.238840
H    1.736547  -1.537418  0.074623
N    -0.869678  -0.852712  1.763107
C    -1.571452  -0.104180  2.825311
C    -0.760915  -0.225516  4.137649
O    0.201313  0.591129  4.356581
H    -1.292236  -1.730444  1.463633
H    -1.527279  0.962062  2.554841
C    -3.050098  -0.544350  2.860135
C    -3.981175  0.332638  3.718889
C    -5.439676  -0.165213  3.639139
N    -6.355937  0.607965  4.483865
C    -7.534619  1.157988  4.111549
N    -8.480726  1.355764  5.033521
N    -7.761957  1.517852  2.843227
H    -3.128526  -1.602740  3.166263
H    -3.398814  -0.521008  1.815788
H    -3.931803  1.378421  3.380548
H    -3.657076  0.328889  4.771454
H    -5.495837  -1.221530  3.947325
H    -5.805711  -0.132191  2.605422
H    -6.227035  0.515055  5.487687
H    -8.479584  0.861198  5.919122
H    -9.267612  1.973214  4.858882
H    -8.695928  1.767907  2.534828
H    -7.007857  1.685319  2.190198
N    -1.045310  -1.172041  5.006869
C    -0.313511  -1.438519  6.253123
H    -1.817171  -1.797479  4.784634
H    0.442912  -2.216435  6.084013
H    -1.023990  -1.791054  7.007245
H    0.170250  -0.521373  6.597929
Pb    1.615914  1.817104  3.086246
