37
Energy: -611339.049959 eV PBE+vdW (tier 2 basis)
C    -0.732448  1.763595  -0.539331
C    -0.365297  1.007388  0.680946
O    0.828866  1.077055  1.142538
H    -0.029380  1.453587  -1.331754
H    -0.561243  2.841064  -0.402991
H    -1.751593  1.573710  -0.886807
N    -1.248943  0.206649  1.322487
C    -2.592958  0.636155  1.724338
C    -2.379183  1.753960  2.788713
O    -1.255313  1.864971  3.398578
H    -0.806985  -0.420891  1.997232
H    -3.100318  1.079367  0.854728
C    -3.394014  -0.600723  2.216256
C    -4.894208  -0.370218  2.468676
C    -5.673372  -1.610973  2.952162
N    -6.015843  -2.554449  1.882827
C    -7.116901  -3.340659  1.868993
N    -7.438429  -3.994459  0.747650
N    -7.892952  -3.451823  2.951293
H    -2.921887  -0.992336  3.132018
H    -3.243933  -1.361330  1.434729
H    -5.385629  0.032128  1.568927
H    -5.024345  0.375632  3.266579
H    -6.618553  -1.257354  3.384060
H    -5.112079  -2.119635  3.753795
H    -5.315466  -2.770848  1.181370
H    -8.120596  -4.745981  0.753889
H    -7.065486  -3.724678  -0.155245
H    -8.806848  -3.890027  2.890335
H    -7.545563  -3.262192  3.883733
N    -3.367103  2.586763  3.046100
C    -3.328174  3.688545  4.019717
H    -4.221409  2.488631  2.500396
H    -4.348993  3.884616  4.361110
H    -2.931432  4.596646  3.546919
H    -2.702848  3.408070  4.871355
Pb    1.042757  1.778983  3.288472
