37
Energy: -611340.376390 eV PBE+vdW (tier 2 basis)
C    -4.336792  2.297897  4.983968
C    -3.382132  1.559680  4.114185
O    -3.242834  1.911207  2.891484
H    -4.390167  1.906885  6.005419
H    -5.337892  2.280771  4.530929
H    -4.028907  3.354442  5.018400
N    -2.663463  0.556454  4.635780
C    -1.560380  -0.176465  3.982658
C    -2.160893  -1.211883  3.002517
O    -2.481118  -0.839524  1.819536
H    -2.844122  0.337439  5.614510
H    -1.022303  0.544949  3.348505
C    -0.592650  -0.695825  5.066820
C    0.751328  -1.240251  4.547010
C    1.689381  -1.599216  5.715065
N    2.977167  -2.099560  5.229502
C    4.140607  -2.065488  5.917175
N    4.165052  -1.694645  7.201859
N    5.278656  -2.379341  5.290657
H    -1.093888  -1.446510  5.703023
H    -0.395362  0.161091  5.729594
H    1.241306  -0.483875  3.915762
H    0.591282  -2.130387  3.917669
H    1.206531  -2.345965  6.368494
H    1.882385  -0.699524  6.317270
H    2.973011  -2.675935  4.393225
H    5.047105  -1.513504  7.670882
H    3.347665  -1.768374  7.795258
H    5.342089  -2.411622  4.279451
H    6.130132  -2.572413  5.808185
N    -2.357490  -2.454333  3.390202
C    -2.977176  -3.517298  2.586830
H    -2.088432  -2.697317  4.341515
H    -4.039408  -3.611491  2.848811
H    -2.471266  -4.462887  2.806477
H    -2.877553  -3.279927  1.525122
Pb    -3.066466  1.105747  0.821252
