37
Energy: -611338.506696 eV PBE+vdW (tier 2 basis)
C    2.130006  -0.271279  1.192402
C    0.935787  -0.565422  2.034320
O    0.948592  -1.704487  2.713399
H    2.025043  0.642923  0.607416
H    2.331333  -1.101804  0.507603
H    2.991809  -0.147612  1.868225
N    0.071365  0.361370  2.492809
C    -0.659569  1.221690  1.553136
C    -1.057844  0.231879  0.397263
O    -0.392710  -0.817344  0.286258
H    -0.504811  0.017365  3.261427
H    -1.562737  1.540305  2.093365
C    0.091019  2.502166  1.091181
C    -0.843200  3.583703  0.518884
C    -0.160727  4.899172  0.111379
N    0.184346  5.743564  1.264065
C    0.933584  6.866602  1.183197
N    1.197566  7.562042  2.295142
N    1.440064  7.264920  0.012338
H    0.849924  2.256074  0.336357
H    0.625141  2.887373  1.971656
H    -1.662258  3.802797  1.224630
H    -1.323022  3.213329  -0.398059
H    -0.846311  5.441031  -0.560280
H    0.761722  4.684731  -0.448786
H    -0.438510  5.692528  2.065400
H    1.599352  8.492535  2.253234
H    0.997001  7.192824  3.216813
H    2.106481  8.028775  -0.034494
H    1.064359  6.940538  -0.870170
N    -2.071530  0.561095  -0.396941
C    -2.533612  -0.271152  -1.515684
H    -2.626767  1.378231  -0.164067
H    -3.248653  -1.026621  -1.165819
H    -1.675734  -0.768331  -1.977104
H    -3.023321  0.371999  -2.252760
Pb    1.272916  -3.778213  2.923731
