37
Energy: -611338.948108 eV PBE+vdW (tier 2 basis)
C    -0.372035  1.312295  1.239733
C    -0.078525  0.071857  2.005698
O    1.072521  -0.482056  1.899326
H    -1.009185  2.007622  1.793870
H    -0.876952  1.058370  0.291476
H    0.574387  1.798133  0.975734
N    -0.994462  -0.517004  2.806095
C    -2.398139  -0.762638  2.418962
C    -2.340484  -1.547925  1.074259
O    -1.269987  -2.170427  0.738067
H    -0.595919  -1.241590  3.403666
H    -2.749366  -1.502664  3.157117
C    -3.346665  0.465147  2.520514
C    -4.770610  0.106651  2.997756
C    -5.732215  1.295335  3.175792
N    -5.470251  2.054495  4.406295
C    -6.026153  3.258730  4.689737
N    -5.708393  3.869861  5.834753
N    -6.850199  3.852899  3.822092
H    -3.385944  1.009138  1.565194
H    -2.888649  1.149069  3.248040
H    -4.717110  -0.462642  3.940326
H    -5.270194  -0.575056  2.291822
H    -6.760183  0.898077  3.185513
H    -5.645105  1.983165  2.321612
H    -5.193146  1.509803  5.218914
H    -6.233948  4.670685  6.170416
H    -4.943784  3.551241  6.418414
H    -7.158051  4.809055  3.970816
H    -7.343147  3.330661  3.107881
N    -3.405344  -1.616999  0.304320
C    -3.495753  -2.401220  -0.938233
H    -4.237823  -1.111752  0.595804
H    -2.853277  -1.963681  -1.712033
H    -4.533656  -2.382967  -1.280011
H    -3.191772  -3.436816  -0.749886
Pb    1.000292  -2.511327  0.888250
