37
Energy: -611338.714008 eV PBE+vdW (tier 2 basis)
C    -0.042442  0.042224  -0.535042
C    0.296328  -0.326806  0.863289
O    1.551599  -0.660434  1.116454
H    0.558994  0.924822  -0.807615
H    -1.096650  0.281312  -0.670066
H    0.214765  -0.780711  -1.211937
N    -0.470017  -0.150054  1.934093
C    -1.923337  -0.351349  1.998965
C    -2.151911  -1.800099  1.417740
O    -1.350421  -2.227469  0.582563
H    0.012963  -0.323731  2.816385
H    -2.150624  -0.338396  3.074082
C    -2.799224  0.738447  1.317323
C    -4.170982  0.887681  2.003567
C    -4.991410  2.123679  1.606518
N    -5.621351  1.996691  0.283982
C    -6.279845  3.000612  -0.338213
N    -6.818602  2.786240  -1.544203
N    -6.364069  4.210363  0.222884
H    -2.928217  0.520585  0.248675
H    -2.255231  1.691310  1.393964
H    -4.020274  0.970991  3.090538
H    -4.786003  -0.014036  1.852746
H    -4.345549  3.014438  1.598522
H    -5.764484  2.272552  2.378159
H    -5.881533  1.058575  -0.006727
H    -6.619280  1.948658  -2.077534
H    -7.463381  3.449580  -1.960383
H    -6.743620  4.998565  -0.291387
H    -6.203841  4.353239  1.212517
N    -3.230907  -2.452636  1.863006
C    -3.596884  -3.800563  1.411334
H    -3.748482  -2.065647  2.645819
H    -3.148321  -4.562474  2.061652
H    -3.239088  -3.944954  0.388338
H    -4.686185  -3.902803  1.438604
Pb    3.487860  -1.442201  0.768894
