37
Energy: -611338.873448 eV PBE+vdW (tier 2 basis)
C    -0.238108  -1.214061  0.678201
C    -0.125044  -0.065760  1.614058
O    1.090820  0.384363  1.901095
H    0.176250  -0.932872  -0.301269
H    -1.270802  -1.545875  0.541476
H    0.359653  -2.056249  1.054576
N    -1.127340  0.541053  2.177985
C    -2.585902  0.394508  2.014281
C    -3.038771  1.854276  2.364370
O    -2.293560  2.476837  3.138626
H    -1.005591  1.386633  2.805509
H    -2.820927  0.108310  0.982330
C    -3.131535  -0.639538  3.038551
C    -4.659880  -0.813478  3.050033
C    -5.095013  -1.846956  4.102322
N    -6.556787  -1.957690  4.144800
C    -7.252836  -3.002948  4.635140
N    -8.576092  -3.057950  4.446400
N    -6.629524  -3.994853  5.281904
H    -2.786441  -0.328929  4.036535
H    -2.650573  -1.605849  2.820954
H    -5.023162  -1.132981  2.062187
H    -5.138967  0.150049  3.282392
H    -4.703826  -1.556681  5.092054
H    -4.685820  -2.836046  3.849487
H    -7.093007  -1.119028  3.943984
H    -9.157788  -3.702240  4.971347
H    -9.042493  -2.476245  3.760046
H    -7.121633  -4.851218  5.514229
H    -5.724779  -3.860257  5.715663
N    -4.165892  2.365411  1.858730
C    -5.070119  1.840057  0.838977
H    -4.347384  3.318128  2.178529
H    -6.078996  1.708735  1.250149
H    -4.718404  0.878543  0.455888
H    -5.127433  2.543720  -0.000511
Pb    3.080835  1.056189  2.070696
