37
Energy: -611338.973368 eV PBE+vdW (tier 2 basis)
C    -0.667966  0.112658  0.417664
C    -0.094847  -0.121146  1.769034
O    1.175029  -0.054390  1.931422
H    -1.639069  0.614554  0.450590
H    -0.787371  -0.847168  -0.114180
H    0.043588  0.708772  -0.166291
N    -0.855343  -0.400034  2.854222
C    -1.916063  -1.427186  2.911099
C    -1.232972  -2.782568  2.540418
O    0.046948  -2.881695  2.529647
H    -0.322347  -0.332615  3.721752
H    -2.157953  -1.505307  3.983143
C    -3.221093  -1.113613  2.144746
C    -3.898689  0.234548  2.479471
C    -4.879677  0.193572  3.664719
N    -5.604055  1.465190  3.749712
C    -6.337337  1.892054  4.800494
N    -6.800107  3.145221  4.809110
N    -6.570882  1.083684  5.841738
H    -3.937610  -1.922713  2.356309
H    -3.035573  -1.165606  1.065152
H    -4.462388  0.531150  1.582184
H    -3.145557  1.018183  2.648270
H    -4.351028  0.034586  4.617061
H    -5.586565  -0.642133  3.521529
H    -5.716594  1.989719  2.886812
H    -6.454863  3.848418  4.165370
H    -7.522146  3.437795  5.459637
H    -7.004721  1.443986  6.685960
H    -6.548982  0.075927  5.745419
N    -1.972337  -3.839134  2.280973
C    -1.448292  -5.183774  1.991123
H    -2.983620  -3.729894  2.287086
H    -0.777867  -5.506437  2.795615
H    -0.906781  -5.182621  1.037372
H    -2.294144  -5.872547  1.923452
Pb    2.166547  -2.015396  2.494802
