37
Energy: -611338.480652 eV PBE+vdW (tier 2 basis)
C    -0.668479  2.377977  -0.648273
C    -0.200240  0.998200  -0.243171
O    1.137617  0.795422  -0.479652
H    -1.741465  2.503806  -0.473727
H    -0.469894  2.557214  -1.711329
H    -0.141457  3.120682  -0.036441
N    -0.576679  0.525692  1.052519
C    -1.822572  -0.255753  0.974444
C    -1.786919  -0.724907  -0.480604
O    -0.980809  -0.010687  -1.212599
H    0.183935  -0.016623  1.461649
H    -1.749897  -1.112957  1.658783
C    -3.068193  0.597510  1.364595
C    -4.377285  -0.169736  1.600859
C    -5.542083  0.688360  2.123051
N    -5.391428  1.048044  3.540071
C    -6.163377  1.952982  4.182805
N    -5.924297  2.223015  5.471056
N    -7.135279  2.603245  3.535392
H    -3.235241  1.375183  0.605765
H    -2.758081  1.121826  2.279368
H    -4.218367  -1.016175  2.289820
H    -4.738511  -0.608598  0.661197
H    -6.475411  0.121399  1.975038
H    -5.614056  1.617044  1.537480
H    -4.933787  0.363854  4.135913
H    -5.083201  1.904202  5.936936
H    -6.585369  2.749461  6.032221
H    -7.626903  3.374926  3.974309
H    -7.526705  2.254007  2.669329
N    -2.429054  -1.717668  -1.039952
C    -3.265030  -2.746605  -0.410642
H    -2.265951  -1.832671  -2.043353
H    -4.307183  -2.635744  -0.732399
H    -3.198791  -2.684090  0.677675
H    -2.900586  -3.729276  -0.732317
Pb    3.014804  1.124449  -1.307965
