37
Energy: -611340.093622 eV PBE+vdW (tier 2 basis)
C    0.029842  -2.040876  -0.564064
C    -0.000507  -1.631542  0.865127
O    1.091998  -1.561693  1.525391
H    0.668449  -1.335437  -1.117239
H    -0.960228  -2.071231  -1.030822
H    0.507320  -3.027251  -0.652107
N    -1.173987  -1.322756  1.437512
C    -1.345118  -0.772886  2.791759
C    -1.044707  -1.871769  3.843398
O    0.115158  -1.856962  4.399557
H    -2.000051  -1.381870  0.844360
H    -0.536810  -0.042254  2.946874
C    -2.682662  -0.006764  2.884192
C    -2.942867  0.689389  4.232099
C    -4.186829  1.593538  4.150621
N    -4.428591  2.280385  5.421555
C    -5.607949  2.817363  5.807131
N    -5.742378  3.267946  7.058134
N    -6.643062  2.870858  4.961846
H    -3.524172  -0.667108  2.632723
H    -2.639054  0.753606  2.088491
H    -2.068580  1.302674  4.504501
H    -3.082802  -0.047759  5.037477
H    -5.074219  0.986166  3.919067
H    -4.054731  2.324796  3.334988
H    -3.616879  2.557760  5.965502
H    -5.085377  3.022259  7.789909
H    -6.523714  3.858042  7.325395
H    -7.567542  3.129122  5.292867
H    -6.513562  2.859120  3.957431
N    -1.890854  -2.823337  4.186196
C    -3.244168  -3.120072  3.700918
H    -1.523038  -3.462646  4.895225
H    -3.993449  -2.525211  4.237860
H    -3.441872  -4.178920  3.894951
H    -3.323419  -2.953191  2.622880
Pb    2.175413  -1.681488  3.478297
