37
Energy: -611337.505037 eV PBE+vdW (tier 2 basis)
C    0.950837  0.492377  0.300388
C    0.436934  0.051668  1.636883
O    1.073009  -0.672114  2.411872
H    1.927407  0.976442  0.430611
H    0.277120  1.170108  -0.234906
H    1.126962  -0.400109  -0.316541
N    -0.820529  0.500236  2.003836
C    -1.394422  0.113766  3.284089
C    -2.662875  -0.705789  3.008287
O    -3.847309  -0.161173  3.033559
H    -1.290903  1.183678  1.417123
H    -0.663905  -0.611519  3.685842
C    -1.568333  1.255491  4.302147
C    -0.354983  1.529299  5.218657
C    0.914589  2.196944  4.632303
N    2.001725  1.260044  4.345396
C    3.296753  1.421263  4.679046
N    3.763595  2.581061  5.155087
N    4.130361  0.381558  4.537831
H    -2.399673  0.996287  4.974723
H    -1.871481  2.176445  3.780842
H    -0.065270  0.607664  5.745064
H    -0.725147  2.202924  6.003291
H    1.281862  2.908368  5.380897
H    0.673524  2.782360  3.730088
H    1.783209  0.442556  3.764583
H    4.694282  2.642593  5.554312
H    3.270281  3.454708  5.022183
H    3.782978  -0.557404  4.382127
H    5.136215  0.497908  4.595285
N    -2.528757  -1.978915  2.711486
C    -3.597416  -2.909395  2.344375
H    -1.574731  -2.344662  2.717965
H    -3.149445  -3.881421  2.118308
H    -4.126583  -2.556562  1.448513
H    -4.294776  -3.044949  3.183444
Pb    -5.971719  0.173110  3.097551
