37
Energy: -611339.967142 eV PBE+vdW (tier 2 basis)
C    0.523052  -1.761245  1.227112
C    0.184012  -0.660304  2.168700
O    0.957430  0.353696  2.253821
H    0.562976  -1.346437  0.208020
H    -0.190864  -2.591226  1.248669
H    1.531216  -2.138243  1.448258
N    -0.943803  -0.739459  2.891219
C    -1.509820  0.325048  3.738387
C    -0.764152  0.355749  5.093688
O    0.351192  0.982057  5.167665
H    -1.492818  -1.587793  2.770874
H    -1.227131  1.276410  3.263043
C    -3.061294  0.308484  3.720123
C    -3.830222  -0.934923  4.221578
C    -5.250073  -1.095260  3.635481
N    -6.227081  -0.140682  4.166018
C    -7.552693  -0.389432  4.305792
N    -8.310921  0.488791  4.968958
N    -8.098450  -1.505283  3.814693
H    -3.327861  0.487951  2.666749
H    -3.382710  1.207203  4.266861
H    -3.922194  -0.944766  5.319351
H    -3.306425  -1.865054  3.948572
H    -5.601682  -2.101487  3.898196
H    -5.203618  -1.033562  2.534877
H    -5.964780  0.838779  4.215161
H    -7.908993  1.187365  5.583642
H    -9.324345  0.453030  4.919318
H    -9.042474  -1.777077  4.072748
H    -7.675684  -2.020850  3.051915
N    -1.245615  -0.249956  6.158100
C    -0.587101  -0.294234  7.472544
H    -2.129530  -0.742997  6.063189
H    0.157254  -1.100937  7.495612
H    -1.348126  -0.485065  8.234204
H    -0.095764  0.662542  7.671814
Pb    1.924090  1.732164  3.726048
