37
Energy: -611338.794586 eV PBE+vdW (tier 2 basis)
C    0.338183  -0.261006  0.946548
C    -0.390705  0.023498  2.212153
O    0.289339  -0.001245  3.343132
H    1.120390  0.492572  0.788731
H    -0.301562  -0.268533  0.061347
H    0.806890  -1.254192  1.034964
N    -1.708511  0.115759  2.316131
C    -2.551118  0.605171  1.227527
C    -1.951317  2.022829  0.824277
O    -0.866119  2.356008  1.305637
H    -2.058116  0.245659  3.266377
H    -2.385418  -0.045761  0.356129
C    -4.054736  0.533898  1.556372
C    -4.618922  1.515653  2.599935
C    -6.151760  1.399491  2.656549
N    -6.731531  2.346630  3.612671
C    -7.983259  2.274979  4.113137
N    -8.353470  3.122392  5.079768
N    -8.842541  1.350544  3.672261
H    -4.283199  -0.503758  1.844496
H    -4.587526  0.676406  0.603789
H    -4.337886  2.547257  2.335106
H    -4.211129  1.317611  3.603765
H    -6.435156  0.382680  2.966453
H    -6.564915  1.572954  1.647824
H    -6.244413  3.226637  3.752268
H    -9.327499  3.231177  5.341468
H    -7.677176  3.669464  5.599169
H    -9.725837  1.193209  4.146373
H    -8.721094  0.889126  2.779370
N    -2.659687  2.725494  -0.065273
C    -2.220603  4.008209  -0.627312
H    -3.511820  2.321474  -0.440999
H    -2.977374  4.778890  -0.441397
H    -2.067392  3.908087  -1.708582
H    -1.281114  4.296388  -0.150002
Pb    2.179822  -0.009211  4.321273
