37
Energy: -611338.559804 eV PBE+vdW (tier 2 basis)
C    0.261073  0.094618  -0.092062
C    0.022511  0.625706  1.279700
O    0.685129  1.688653  1.694642
H    0.054008  0.875064  -0.839017
H    -0.363311  -0.776084  -0.317424
H    1.314373  -0.208088  -0.194802
N    -0.835673  0.043948  2.076983
C    -1.171792  0.318633  3.478914
C    -1.519200  -1.092044  4.027011
O    -2.022294  -1.898311  3.220663
H    -1.295606  -0.839744  1.782126
H    -0.288648  0.751397  3.965375
C    -2.382995  1.294577  3.649071
C    -3.806804  0.714348  3.676139
C    -4.414136  0.177470  2.350439
N    -4.760544  -1.241023  2.421884
C    -5.946636  -1.801557  2.122815
N    -6.188219  -3.059908  2.513797
N    -6.891308  -1.130667  1.452567
H    -2.297764  2.080052  2.883049
H    -2.224085  1.800528  4.611779
H    -4.452594  1.524967  4.039937
H    -3.882648  -0.065412  4.446952
H    -3.731220  0.343370  1.501555
H    -5.326010  0.742409  2.127498
H    -4.005828  -1.859732  2.725530
H    -6.964575  -3.590972  2.134383
H    -5.619619  -3.516397  3.216654
H    -7.838114  -1.489637  1.390745
H    -6.677273  -0.316630  0.891224
N    -1.295233  -1.319359  5.319091
C    -1.594650  -2.583085  6.000201
H    -0.872551  -0.581201  5.875892
H    -1.854824  -3.335124  5.251362
H    -2.427093  -2.448192  6.702090
H    -0.710531  -2.914153  6.556207
Pb    2.236300  3.131803  1.349740
