37
Energy: -611338.638744 eV PBE+vdW (tier 2 basis)
C    0.463062  -0.734079  1.504780
C    -0.167085  0.389899  2.237642
O    0.598914  1.235062  2.897741
H    1.123178  -0.331059  0.721936
H    -0.266536  -1.414226  1.055102
H    1.092108  -1.308119  2.201031
N    -1.465480  0.614420  2.290648
C    -2.606423  -0.073424  1.617172
C    -2.684050  -1.596656  1.981604
O    -2.322036  -2.436927  1.146545
H    -1.730873  1.427792  2.849454
H    -3.485250  0.427076  2.045781
C    -2.618493  0.116702  0.094176
C    -3.998910  -0.268022  -0.500869
C    -3.940719  -1.023880  -1.830476
N    -3.476483  -2.401985  -1.638748
C    -3.625701  -3.393915  -2.531712
N    -3.331524  -4.652337  -2.172551
N    -4.065579  -3.141971  -3.769125
H    -1.819747  -0.494013  -0.346901
H    -2.392232  1.165673  -0.138058
H    -4.587878  0.643213  -0.664279
H    -4.581939  -0.874721  0.209075
H    -3.286619  -0.492170  -2.542750
H    -4.953498  -1.046174  -2.260014
H    -3.019250  -2.620566  -0.749862
H    -3.321285  -5.406879  -2.849336
H    -3.197809  -4.904558  -1.201168
H    -4.304878  -3.893952  -4.405905
H    -4.137282  -2.200050  -4.132154
N    -3.167018  -1.920161  3.190352
C    -3.709306  -1.040921  4.228076
H    -3.221208  -2.924265  3.357908
H    -2.956375  -0.334693  4.602016
H    -4.596198  -0.494798  3.879689
H    -4.016940  -1.664713  5.072343
Pb    2.317901  2.232434  3.693840
