37
Energy: -611340.053264 eV PBE+vdW (tier 2 basis)
C    -1.276713  -0.856378  -0.345504
C    -1.349002  -0.615820  1.122540
O    -0.731824  -1.410806  1.912726
H    -1.674079  -1.860891  -0.556138
H    -0.223707  -0.866486  -0.661368
H    -1.827291  -0.120506  -0.940814
N    -2.071458  0.420134  1.568009
C    -2.428342  0.827017  2.949473
C    -1.171038  1.218380  3.749435
O    -0.435932  0.333606  4.321340
H    -2.516308  0.970129  0.835645
H    -3.006705  1.747390  2.802951
C    -3.356227  -0.180150  3.666485
C    -4.097612  0.427920  4.873332
C    -5.205323  -0.506882  5.393830
N    -5.907082  0.087983  6.533729
C    -7.194165  -0.140202  6.877415
N    -7.765905  0.627136  7.810535
N    -7.903877  -1.102115  6.277061
H    -2.799790  -1.079482  3.967126
H    -4.086913  -0.508514  2.912554
H    -4.558579  1.384848  4.583742
H    -3.386922  0.645054  5.687287
H    -4.779130  -1.485386  5.672295
H    -5.941897  -0.675501  4.595395
H    -5.348347  0.589658  7.217704
H    -8.640670  0.359273  8.250181
H    -7.364890  1.513458  8.095690
H    -8.908060  -1.164574  6.413641
H    -7.459094  -1.898935  5.838177
N    -0.850569  2.490787  3.883521
C    -1.519756  3.685001  3.340080
H    -0.007645  2.657635  4.438377
H    -2.526001  3.800396  3.760580
H    -1.561322  3.649423  2.245131
H    -0.927098  4.557435  3.629435
Pb    0.484276  -1.637035  3.751401
