37
Energy: -611340.037788 eV PBE+vdW (tier 2 basis)
C    -1.263558  -3.233630  -0.000417
C    -0.922546  -2.210230  1.023284
O    0.229662  -1.656652  1.003902
H    -1.179433  -2.774669  -0.997311
H    -2.268578  -3.651810  0.118593
H    -0.522423  -4.044869  0.032062
N    -1.837439  -1.868252  1.942887
C    -1.692827  -0.784986  2.928925
C    -0.655066  -1.196569  4.004350
O    0.535897  -0.723892  3.889813
H    -2.740226  -2.336565  1.884686
H    -1.207783  0.057374  2.412910
C    -3.083707  -0.304679  3.396243
C    -3.068959  0.898610  4.356711
C    -4.504682  1.335374  4.712205
N    -4.538608  2.456269  5.657956
C    -5.308794  3.565796  5.575777
N    -5.737396  4.028096  4.396141
N    -5.631453  4.217730  6.696300
H    -3.647516  -1.135575  3.842863
H    -3.624303  -0.028138  2.477255
H    -2.530053  1.745003  3.905300
H    -2.531433  0.642954  5.284263
H    -5.059328  0.490232  5.150957
H    -5.054781  1.621727  3.807635
H    -4.149604  2.276043  6.579382
H    -6.443258  4.755712  4.349943
H    -5.290546  3.773705  3.525115
H    -5.992502  5.166276  6.670071
H    -5.577820  3.777636  7.608427
N    -0.910368  -2.010825  5.009709
C    -2.138661  -2.728841  5.372553
H    -0.105249  -2.173030  5.619657
H    -1.851570  -3.589346  5.984852
H    -2.656195  -3.102579  4.484412
H    -2.806304  -2.091208  5.965093
Pb    1.909410  -0.658187  2.093499
