37
Energy: -611340.319316 eV PBE+vdW (tier 2 basis)
C    -4.426215  2.001894  4.689671
C    -3.409438  1.292306  3.867719
O    -3.294327  1.576658  2.625094
H    -4.205368  3.080204  4.660030
H    -4.454575  1.670659  5.733012
H    -5.419587  1.876119  4.236690
N    -2.611935  0.386936  4.450434
C    -1.447450  -0.289177  3.843763
C    -1.952277  -1.433594  2.933804
O    -2.307293  -1.166430  1.732331
H    -2.777358  0.215869  5.441338
H    -0.971934  0.433805  3.163001
C    -0.441150  -0.651201  4.956214
C    0.944117  -1.116040  4.468394
C    1.922922  -1.266121  5.648253
N    3.255183  -1.660092  5.184266
C    4.205729  -2.247802  5.945347
N    4.030695  -2.396901  7.262843
N    5.315405  -2.710501  5.361835
H    -0.878424  -1.396112  5.644150
H    -0.316477  0.262282  5.558414
H    1.344322  -0.371734  3.761102
H    0.879071  -2.071374  3.926743
H    1.560455  -2.042973  6.337526
H    1.973512  -0.315302  6.205811
H    3.569445  -1.286861  4.293380
H    4.666169  -2.972547  7.806636
H    3.402993  -1.801481  7.789215
H    5.377400  -2.845463  4.359096
H    6.132758  -2.962974  5.908009
N    -2.033155  -2.662933  3.397261
C    -2.552186  -3.824336  2.661012
H    -1.741336  -2.822397  4.359374
H    -3.608089  -3.986138  2.915338
H    -1.976087  -4.708638  2.951138
H    -2.452723  -3.651350  1.586837
Pb    -3.054792  0.652738  0.611914
