37
Energy: -611340.232303 eV PBE+vdW (tier 2 basis)
C    0.249976  -0.075885  -0.341748
C    0.295614  0.501425  1.028674
O    0.539093  1.748184  1.179345
H    -0.522310  0.455682  -0.918552
H    0.035643  -1.149615  -0.357652
H    1.204467  0.114672  -0.852554
N    0.053812  -0.292067  2.081761
C    -0.081393  0.130368  3.489067
C    1.331107  0.384415  4.071353
O    1.877001  1.530855  3.902724
H    -0.116137  -1.275106  1.874569
H    -0.571551  1.116100  3.485081
C    -0.988382  -0.862799  4.249094
C    -1.401138  -0.378070  5.653011
C    -2.184530  -1.393180  6.508100
N    -3.599827  -1.516793  6.143965
C    -4.595760  -1.828680  7.005696
N    -5.866187  -1.701700  6.608313
N    -4.323870  -2.238000  8.248205
H    -0.507178  -1.854781  4.311737
H    -1.876279  -1.008519  3.614340
H    -1.981765  0.553650  5.577753
H    -0.502088  -0.129838  6.236811
H    -2.148899  -1.040354  7.547127
H    -1.689974  -2.379059  6.476150
H    -3.848053  -1.546285  5.160681
H    -6.626943  -2.117492  7.136205
H    -6.122445  -1.138188  5.805931
H    -5.058268  -2.296843  8.946984
H    -3.432754  -2.651228  8.495375
N    1.967945  -0.573340  4.710975
C    3.329963  -0.486061  5.256657
H    1.489138  -1.465173  4.819855
H    3.598613  0.562189  5.405534
H    4.038962  -0.958445  4.563949
H    3.358793  -1.017364  6.213526
Pb    1.718605  3.205321  2.391954
