37
Energy: -611340.279487 eV PBE+vdW (tier 2 basis)
C    -1.777274  1.961497  0.266516
C    -1.853491  0.765117  1.147362
O    -2.467282  -0.280671  0.737452
H    -1.234439  2.800637  0.714023
H    -2.792396  2.283994  -0.004946
H    -1.281994  1.671076  -0.672807
N    -1.253986  0.794301  2.345184
C    -1.088938  -0.337049  3.279963
C    -2.425104  -0.565485  4.025645
O    -3.329342  -1.290967  3.480629
H    -0.795646  1.669147  2.596523
H    -0.938981  -1.241638  2.670654
C    0.172613  -0.105127  4.137681
C    0.642629  -1.319738  4.960564
C    1.934092  -0.995847  5.740657
N    2.388775  -2.108268  6.581010
C    3.631183  -2.641977  6.622175
N    4.449152  -2.578636  5.565412
N    4.039390  -3.254466  7.736907
H    0.036220  0.773814  4.792519
H    0.970331  0.181694  3.434766
H    0.821613  -2.178245  4.296051
H    -0.137755  -1.632722  5.671933
H    1.775070  -0.118366  6.387668
H    2.744882  -0.721892  5.054188
H    1.797545  -2.342585  7.373639
H    5.429606  -2.825367  5.653419
H    4.104104  -2.418440  4.628192
H    3.593449  -3.092723  8.633391
H    4.848749  -3.867453  7.736307
N    -2.635251  -0.001886  5.196434
C    -3.878694  -0.081581  5.975900
H    -1.885834  0.567766  5.584127
H    -4.429237  -0.982854  5.696191
H    -4.496298  0.806099  5.785117
H    -3.623687  -0.115682  7.039806
Pb    -3.903771  -1.863476  1.368749
