37
Energy: -611338.902636 eV PBE+vdW (tier 2 basis)
C    0.219912  0.561987  0.478632
C    0.114818  0.084410  1.880852
O    1.180217  0.075214  2.601023
H    0.878022  1.444708  0.492745
H    -0.736710  0.835419  0.033235
H    0.734209  -0.181563  -0.149707
N    -1.045547  -0.271174  2.483191
C    -2.012534  -1.303122  2.044853
C    -1.347777  -2.648939  2.452010
O    -0.063513  -2.748571  2.424690
H    -0.940698  -0.272205  3.500628
H    -2.903666  -1.147967  2.668754
C    -2.443036  -1.212170  0.557897
C    -3.641445  -2.101459  0.173469
C    -4.102817  -1.962954  -1.291894
N    -4.982144  -0.811944  -1.526767
C    -5.934363  -0.748957  -2.485220
N    -6.829459  0.244309  -2.454906
N    -5.998894  -1.676558  -3.444978
H    -1.594579  -1.456182  -0.096521
H    -2.689475  -0.153304  0.389670
H    -4.501582  -1.915924  0.833919
H    -3.367486  -3.158125  0.298032
H    -4.676496  -2.863919  -1.546327
H    -3.228073  -1.927678  -1.963031
H    -4.798651  0.053827  -1.031055
H    -7.420989  0.444152  -3.255190
H    -7.003006  0.783513  -1.614429
H    -6.808351  -1.736701  -4.054991
H    -5.199583  -2.244125  -3.699441
N    -2.055338  -3.689263  2.850770
C    -3.492833  -3.841766  3.103058
H    -1.489356  -4.516054  3.060624
H    -3.939042  -4.506474  2.353355
H    -4.003274  -2.876530  3.090487
H    -3.619675  -4.297809  4.092223
Pb    1.946639  -1.949164  3.220761
