37
Energy: -611338.986473 eV PBE+vdW (tier 2 basis)
C    -0.860115  -0.377701  -1.231280
C    0.049867  -0.201872  -0.068475
O    1.311454  -0.093820  -0.264879
H    -0.369050  0.021514  -2.126799
H    -1.828301  0.110176  -1.086562
H    -1.032498  -1.452241  -1.415700
N    -0.400685  -0.162314  1.205648
C    -1.354149  -1.130705  1.788403
C    -0.758014  -2.545434  1.522587
O    0.488143  -2.678770  1.246122
H    0.308159  0.160097  1.864826
H    -1.248159  -0.981481  2.875669
C    -2.849181  -0.918914  1.452467
C    -3.309057  0.527408  1.719329
C    -4.790377  0.823873  1.433870
N    -5.685583  0.334313  2.492651
C    -7.037370  0.300427  2.386011
N    -7.761580  -0.165473  3.408120
N    -7.643343  0.687021  1.259938
H    -3.431927  -1.604040  2.088471
H    -3.060236  -1.203730  0.412032
H    -2.729533  1.215715  1.088099
H    -3.069667  0.819432  2.755186
H    -5.093311  0.356794  0.484833
H    -4.897189  1.915020  1.321509
H    -5.334014  0.407132  3.443967
H    -7.335230  -0.643242  4.193391
H    -8.768508  -0.042914  3.442058
H    -7.190089  1.298095  0.591417
H    -8.639329  0.539330  1.128777
N    -1.522304  -3.610314  1.634608
C    -1.054520  -4.999572  1.500758
H    -2.506468  -3.469629  1.848555
H    -0.228716  -5.185765  2.196678
H    -0.720919  -5.190830  0.473786
H    -1.887888  -5.665356  1.738477
Pb    2.510742  -1.838380  0.553073
