37
Energy: -611338.792858 eV PBE+vdW (tier 2 basis)
C    -0.546402  0.926257  -0.427098
C    -0.015624  0.090673  0.681888
O    1.276047  -0.059046  0.842803
H    0.196774  1.665661  -0.741733
H    -1.470342  1.446567  -0.148799
H    -0.774428  0.283343  -1.294186
N    -0.810335  -0.539255  1.530703
C    -2.288450  -0.590186  1.503847
C    -3.003355  0.664988  2.099319
O    -4.094185  0.961322  1.605192
H    -0.347085  -1.105731  2.246493
H    -2.596079  -0.603797  0.451755
C    -2.746994  -1.889272  2.213582
C    -4.260292  -2.028385  2.455526
C    -5.115680  -2.164210  1.181194
N    -6.546302  -2.231585  1.468835
C    -7.410891  -1.199188  1.422508
N    -8.724463  -1.445852  1.503953
N    -6.972703  0.057006  1.291554
H    -2.252651  -1.940360  3.197739
H    -2.378605  -2.745103  1.626972
H    -4.627343  -1.188249  3.061409
H    -4.401932  -2.926763  3.072934
H    -4.849885  -3.082477  0.639098
H    -4.952761  -1.329937  0.486277
H    -6.928666  -3.136175  1.726833
H    -9.395644  -0.698349  1.639711
H    -9.100547  -2.380806  1.394936
H    -5.992558  0.315514  1.401044
H    -7.626288  0.805080  1.090493
N    -2.423755  1.318210  3.116082
C    -3.059246  2.450008  3.801950
H    -1.571970  0.944492  3.521641
H    -2.280552  3.089980  4.227521
H    -3.718030  2.100303  4.607292
H    -3.648981  3.021174  3.078975
Pb    3.389598  0.021545  0.433938
