37
Energy: -611337.746567 eV PBE+vdW (tier 2 basis)
C    -1.528233  -0.615146  -0.489154
C    -1.264304  -1.138797  0.869859
O    -0.663429  -2.277126  0.973290
H    -2.157238  -1.328740  -1.040627
H    -0.573119  -0.565216  -1.034620
H    -1.997169  0.373694  -0.488779
N    -1.626189  -0.451936  1.956919
C    -1.183400  -0.723303  3.346791
C    -1.875344  -2.004718  3.872663
O    -2.755399  -1.914278  4.855731
H    -2.171505  0.393310  1.798428
H    -0.114409  -0.986178  3.283820
C    -1.356095  0.529789  4.218724
C    -0.512502  1.745055  3.761677
C    0.915301  1.871819  4.318510
N    0.920900  2.478412  5.658426
C    2.034931  2.697535  6.393684
N    3.232988  2.309185  5.944504
N    1.926692  3.268993  7.597619
H    -1.107763  0.257509  5.254283
H    -2.420620  0.806886  4.233624
H    -1.064204  2.667264  3.997029
H    -0.423644  1.757634  2.665988
H    1.495642  2.498194  3.621612
H    1.409828  0.889312  4.376482
H    0.123445  3.065337  5.887423
H    3.399099  2.124305  4.962968
H    4.056368  2.379677  6.533805
H    1.027064  3.430230  8.034940
H    2.742162  3.605881  8.098649
N    -1.535895  -3.105622  3.283747
C    -2.127700  -4.348290  3.672014
H    -0.816822  -2.718613  1.905568
H    -1.876831  -4.620202  4.730432
H    -1.751354  -5.188181  3.071760
H    -3.239722  -4.360634  3.506018
Pb    -3.964992  -3.447540  5.809206
