37
Energy: -611338.742016 eV PBE+vdW (tier 2 basis)
C    -0.185292  -1.843012  2.174755
C    -0.034030  -0.368285  2.067310
O    1.085525  0.185846  2.502771
H    0.620840  -2.338076  1.613236
H    -1.144818  -2.208274  1.800454
H    -0.087891  -2.143956  3.228366
N    -0.940439  0.430080  1.566064
C    -2.231670  0.097658  0.931227
C    -2.475925  1.286818  -0.020707
O    -2.061848  2.405351  0.353479
H    -0.771309  1.452232  1.508724
H    -2.120634  -0.844297  0.381063
C    -3.391258  -0.055240  1.956594
C    -3.770775  1.139173  2.864226
C    -4.940802  2.042376  2.428145
N    -4.540003  3.197807  1.619353
C    -5.300453  4.288037  1.427270
N    -4.774574  5.356391  0.808732
N    -6.570848  4.323971  1.844792
H    -3.125556  -0.907800  2.597936
H    -4.271027  -0.390922  1.387733
H    -2.899832  1.761419  3.117970
H    -4.090281  0.697733  3.817327
H    -5.423152  2.423175  3.340339
H    -5.690560  1.436760  1.890186
H    -3.626997  3.165895  1.156441
H    -3.775331  5.447313  0.674318
H    -5.348400  6.147837  0.540914
H    -7.107801  5.183911  1.820109
H    -7.062826  3.491704  2.143460
N    -3.159823  1.081277  -1.146792
C    -3.626833  -0.190356  -1.713930
H    -3.277457  1.915379  -1.721029
H    -4.274518  0.037033  -2.565366
H    -4.220034  -0.761949  -0.990982
H    -2.789280  -0.798877  -2.079388
Pb    3.085251  0.362634  3.206644
