37
Energy: -611337.796337 eV PBE+vdW (tier 2 basis)
C    0.340362  -0.820956  0.024369
C    0.147955  -0.883871  1.507051
O    0.953358  -1.245070  2.322055
H    -0.565743  -0.579319  -0.546472
H    0.767313  -1.770893  -0.327056
H    1.096871  -0.053997  -0.202778
N    -1.214858  -0.472825  1.980221
C    -1.311089  -0.213867  3.445935
C    -2.429880  -1.059665  4.062275
O    -3.266161  -1.706305  3.310494
H    -1.513609  0.352869  1.446521
H    -0.363295  -0.608785  3.854243
C    -1.448512  1.305925  3.779906
C    -0.190771  2.045098  4.281134
C    0.899947  2.361935  3.237837
N    1.794503  3.432287  3.690186
C    3.128784  3.374194  3.888287
N    3.748835  2.202195  4.085319
N    3.838409  4.504849  3.878184
H    -2.223064  1.428132  4.547789
H    -1.862850  1.823171  2.898097
H    0.252718  1.513313  5.136243
H    -0.552129  3.000594  4.689526
H    0.433634  2.701964  2.298467
H    1.509973  1.483653  2.990483
H    1.387762  4.362886  3.737490
H    4.762589  2.152177  4.087689
H    3.257933  1.398458  4.454565
H    3.472081  5.366476  3.486958
H    4.776177  4.544790  4.265590
N    -2.581572  -1.173855  5.361358
C    -1.771593  -0.623228  6.452457
H    -3.384055  -1.744904  5.642386
H    -1.747516  -1.361729  7.261132
H    -2.224064  0.301110  6.835462
H    -0.747586  -0.433282  6.119304
Pb    -3.011560  -2.197848  1.204993
