37
Energy: -611338.757183 eV PBE+vdW (tier 2 basis)
C    -0.878983  -0.479959  -1.080555
C    -0.433346  -0.137898  0.297342
O    0.675259  0.565707  0.438129
H    -1.062732  0.435768  -1.656018
H    -1.788390  -1.084346  -1.109676
H    -0.074185  -1.054479  -1.566758
N    -0.941240  -0.668097  1.403193
C    -2.357943  -1.007723  1.521280
C    -3.137025  0.312837  1.099265
O    -2.494721  1.230256  0.581096
H    -0.464589  -0.395880  2.264163
H    -2.594994  -1.755053  0.749457
C    -2.696809  -1.640093  2.887766
C    -2.600569  -0.728839  4.122951
C    -2.789641  -1.454781  5.466580
N    -4.178440  -1.875717  5.700081
C    -4.554003  -2.817355  6.597177
N    -5.844812  -3.156149  6.687786
N    -3.649339  -3.433768  7.363736
H    -2.042159  -2.516751  3.012066
H    -3.709611  -2.061394  2.807294
H    -3.310800  0.109759  4.047894
H    -1.606595  -0.258501  4.188704
H    -2.457040  -0.784525  6.275251
H    -2.156518  -2.353650  5.489440
H    -4.901382  -1.206458  5.449745
H    -6.192883  -3.708340  7.464688
H    -6.519689  -2.886492  5.981982
H    -3.905738  -4.242024  7.921863
H    -2.741853  -3.025802  7.552040
N    -4.458724  0.312799  1.296400
C    -5.335927  1.408023  0.862962
H    -4.900502  -0.534729  1.636853
H    -6.165700  1.505311  1.569915
H    -5.736703  1.210170  -0.139487
H    -4.761569  2.337867  0.844350
Pb    2.124389  1.889174  -0.377056
