37
Energy: -611339.960446 eV PBE+vdW (tier 2 basis)
C    0.418289  -1.326969  1.242461
C    0.002223  -0.290835  2.225948
O    0.675420  0.791539  2.320226
H    -0.214347  -2.220694  1.254176
H    1.462271  -1.614415  1.430106
H    0.394728  -0.881216  0.236160
N    -1.089170  -0.500854  2.977320
C    -1.725097  0.476558  3.878715
C    -0.927353  0.545964  5.203163
O    0.099816  1.309767  5.262060
H    -1.556124  -1.395338  2.846010
H    -1.559766  1.464551  3.423655
C    -3.266007  0.304723  3.920076
C    -3.885027  -1.024493  4.403862
C    -5.319974  -1.284332  3.904101
N    -6.310778  -0.374568  4.492273
C    -7.567841  -0.204881  4.010029
N    -8.371422  0.691279  4.589389
N    -7.990755  -0.892812  2.945763
H    -3.595923  0.489948  2.886226
H    -3.661407  1.145492  4.507012
H    -3.892998  -1.094320  5.504784
H    -3.304866  -1.895337  4.059423
H    -5.573875  -2.331970  4.134144
H    -5.351320  -1.160844  2.811605
H    -6.196026  -0.147729  5.476554
H    -8.021560  1.383968  5.241271
H    -9.366823  0.713871  4.391193
H    -8.871213  -0.660822  2.495704
H    -7.567750  -1.771892  2.672596
N    -1.273329  -0.166289  6.254466
C    -0.550528  -0.185655  7.535511
H    -2.087110  -0.769392  6.170987
H    -1.243996  -0.503401  8.319102
H    -0.171474  0.815411  7.760497
H    0.287126  -0.893739  7.486427
Pb    1.535988  2.244724  3.787010
