37
Energy: -611338.544228 eV PBE+vdW (tier 2 basis)
C    -0.823095  -0.059890  -0.246295
C    -0.217956  -0.348405  1.082441
O    0.573353  -1.381872  1.240569
H    -1.850024  -0.461222  -0.282172
H    -0.245437  -0.537907  -1.043434
H    -0.880465  1.015779  -0.451208
N    -0.452976  0.404914  2.145209
C    -1.398633  1.535422  2.248139
C    -0.772299  2.953613  2.053767
O    -1.549480  3.903470  2.168538
H    -0.003403  0.105672  3.014629
H    -2.107195  1.433647  1.415930
C    -2.207949  1.451239  3.562181
C    -1.493127  1.834889  4.875440
C    -1.666957  3.288778  5.358106
N    -3.060432  3.633923  5.659150
C    -3.751582  4.686365  5.166542
N    -4.796734  5.155731  5.859121
N    -3.421522  5.237018  3.996479
H    -2.606630  0.429580  3.632462
H    -3.089827  2.090017  3.415047
H    -0.406533  1.649210  4.824371
H    -1.853865  1.166582  5.669922
H    -1.282513  4.011589  4.632376
H    -1.076250  3.422100  6.276258
H    -3.461718  3.197205  6.484756
H    -5.461104  5.797638  5.440493
H    -4.921372  4.950160  6.844004
H    -3.825190  6.124295  3.717847
H    -2.787436  4.780012  3.338494
N    0.524727  3.070119  1.744201
C    1.175500  4.366172  1.508822
H    1.105161  2.239811  1.722701
H    0.446220  5.060822  1.082302
H    2.000648  4.226223  0.804058
H    1.566865  4.783019  2.445505
Pb    1.534382  -3.251182  0.752138
