37
Energy: -611339.559390 eV PBE+vdW (tier 2 basis)
C    0.427291  1.611554  1.307439
C    0.167943  0.183151  1.639487
O    1.144145  -0.642077  1.634987
H    1.184274  2.013378  1.996159
H    -0.467016  2.242462  1.342744
H    0.865810  1.662871  0.299342
N    -1.087558  -0.193539  1.921079
C    -1.644970  -1.547515  2.160722
C    -1.026966  -2.157464  3.438269
O    0.080789  -2.803304  3.400745
H    -1.773427  0.557969  1.890494
H    -2.703769  -1.360485  2.378387
C    -1.561806  -2.468741  0.923902
C    -2.500779  -3.699741  0.946327
C    -3.856895  -3.452827  0.258768
N    -4.651942  -4.682369  0.213687
C    -5.525384  -5.030453  -0.756956
N    -5.975291  -6.287420  -0.811311
N    -5.922190  -4.138434  -1.671884
H    -0.529278  -2.813313  0.785725
H    -1.779381  -1.844189  0.045522
H    -2.658995  -4.051281  1.979556
H    -2.000393  -4.524793  0.422158
H    -3.678273  -3.131037  -0.777151
H    -4.420423  -2.650853  0.766367
H    -4.614294  -5.298380  1.020274
H    -6.785813  -6.533631  -1.370651
H    -5.510807  -7.045440  -0.323654
H    -6.442630  -4.436187  -2.491205
H    -5.898785  -3.142396  -1.491214
N    -1.652743  -2.034646  4.593351
C    -2.917808  -1.346923  4.897104
H    -1.171538  -2.470330  5.383761
H    -3.762390  -1.827164  4.388206
H    -2.862416  -0.284363  4.632524
H    -3.085360  -1.419807  5.975464
Pb    2.115069  -2.441288  2.504476
