37
Energy: -611339.886037 eV PBE+vdW (tier 2 basis)
C    0.654340  1.185832  1.099476
C    -0.113829  0.533063  2.196425
O    -0.327295  -0.726733  2.140084
H    0.139303  0.991054  0.146722
H    1.644287  0.714560  1.017239
H    0.778006  2.266157  1.228503
N    -0.570698  1.295567  3.199808
C    -1.442164  0.957454  4.352582
C    -0.731179  0.006538  5.337675
O    -0.559832  -1.235974  5.077504
H    -0.303476  2.275386  3.136366
H    -1.562505  1.916603  4.875318
C    -2.852029  0.452258  3.957533
C    -3.690826  1.459660  3.137165
C    -4.480936  2.532683  3.913671
N    -5.799108  2.062297  4.353945
C    -6.922579  2.811710  4.414076
N    -8.107667  2.205853  4.542884
N    -6.861855  4.144678  4.330519
H    -3.364897  0.168238  4.889813
H    -2.755208  -0.473439  3.375259
H    -4.397097  0.899720  2.508699
H    -3.036926  1.981699  2.423856
H    -4.649754  3.382868  3.240069
H    -3.904829  2.911038  4.776077
H    -5.885336  1.108381  4.689166
H    -8.236040  1.225441  4.319672
H    -8.938819  2.726033  4.805665
H    -7.704623  4.694052  4.192996
H    -6.019051  4.659637  4.553727
N    -0.333319  0.503262  6.492370
C    0.336084  -0.241521  7.566452
H    -0.482791  1.496878  6.659273
H    1.416735  -0.049030  7.532988
H    0.143882  -1.310246  7.449336
H    -0.056979  0.105313  8.528077
Pb    -0.257991  -2.606968  3.328013
