37
Energy: -611338.362450 eV PBE+vdW (tier 2 basis)
C    0.260286  -1.892511  1.420073
C    0.331242  -0.520806  1.984471
O    1.502654  0.024266  2.215327
H    0.870859  -2.576030  2.026852
H    0.684023  -1.875106  0.402964
H    -0.756227  -2.286023  1.333497
N    -0.732589  0.216929  2.258968
C    -2.145769  -0.164490  2.082502
C    -2.558357  -0.120695  0.559418
O    -2.779931  -1.212619  0.044820
H    -0.539828  1.162416  2.597921
H    -2.217584  -1.233036  2.309294
C    -3.072216  0.585736  3.058132
C    -4.540864  0.163778  2.861253
C    -5.468243  0.729136  3.947178
N    -6.841366  0.262186  3.730633
C    -7.957056  0.837215  4.220886
N    -9.153682  0.424759  3.788145
N    -7.876611  1.833106  5.111600
H    -2.972306  1.674740  2.945391
H    -2.747303  0.337859  4.080600
H    -4.603516  -0.936483  2.872496
H    -4.901809  0.489685  1.874310
H    -5.469617  1.828641  3.911517
H    -5.110449  0.419842  4.943775
H    -6.959485  -0.647137  3.293654
H    -10.006648  0.672554  4.278008
H    -9.253266  -0.142157  2.953961
H    -8.701065  2.366027  5.367990
H    -7.054957  1.965672  5.687977
N    -2.630474  1.047204  -0.112594
C    -2.504891  2.423319  0.356633
H    -2.925126  0.922211  -1.080720
H    -2.330923  3.063452  -0.514324
H    -1.644413  2.555406  1.023836
H    -3.414925  2.779369  0.859036
Pb    3.653405  0.007354  2.301173
