37
Energy: -611339.763955 eV PBE+vdW (tier 2 basis)
C    -0.996946  -1.925329  -0.547885
C    -0.723244  -1.432667  0.828408
O    0.481198  -1.208784  1.191891
H    -0.450259  -2.864462  -0.715112
H    -0.593455  -1.198017  -1.268513
H    -2.061302  -2.082005  -0.752058
N    -1.749211  -1.212566  1.665525
C    -1.637879  -0.615520  3.005026
C    -0.957640  -1.621966  3.970224
O    0.292545  -1.449733  4.219168
H    -2.682642  -1.401011  1.304211
H    -0.904848  0.201998  2.932123
C    -2.983554  0.008588  3.439876
C    -2.924227  0.701995  4.814026
C    -4.268316  1.237028  5.344732
N    -4.696573  2.496437  4.727284
C    -5.447664  3.441378  5.339203
N    -6.017195  3.203001  6.524133
N    -5.598890  4.634564  4.754658
H    -3.779400  -0.749311  3.437393
H    -3.241610  0.730332  2.648908
H    -2.187902  1.519810  4.805329
H    -2.573064  -0.015823  5.571337
H    -4.142963  1.430087  6.418210
H    -5.051422  0.467400  5.235044
H    -4.586721  2.607557  3.724821
H    -6.424791  3.959415  7.065147
H    -6.205514  2.262991  6.850931
H    -6.310752  5.287287  5.066839
H    -4.974967  4.955522  4.023444
N    -1.571140  -2.645625  4.530770
C    -2.957050  -3.114461  4.412664
H    -0.965669  -3.202760  5.139055
H    -2.968180  -4.182370  4.652485
H    -3.331286  -2.992368  3.392317
H    -3.608954  -2.594368  5.125770
Pb    2.027486  -1.107242  2.811617
