37
Energy: -611338.867946 eV PBE+vdW (tier 2 basis)
C    -0.263332  -1.795429  -0.245518
C    0.002579  -0.817906  0.841175
O    1.173067  -0.872590  1.461132
H    0.485870  -1.673177  -1.041520
H    -1.259482  -1.684745  -0.681887
H    -0.161399  -2.817773  0.146190
N    -0.833091  0.101812  1.233517
C    -2.165613  0.482827  0.730216
C    -2.223031  1.981722  1.159956
O    -1.596915  2.294953  2.179672
H    -0.589254  0.785187  1.992159
H    -2.202352  0.362387  -0.360913
C    -3.258771  -0.372310  1.426351
C    -4.722801  -0.067195  1.032421
C    -5.487246  0.783626  2.057961
N    -6.903728  0.861526  1.681940
C    -7.821010  1.680329  2.233084
N    -9.047759  1.746869  1.704630
N    -7.501311  2.451050  3.280546
H    -3.125768  -0.273399  2.514128
H    -3.043259  -1.422634  1.187121
H    -5.241103  -1.032736  0.936393
H    -4.781125  0.404004  0.039583
H    -5.079937  1.804355  2.107106
H    -5.381668  0.323380  3.055142
H    -7.263945  0.119964  1.088334
H    -9.261714  1.347864  0.797766
H    -9.814306  2.188722  2.200727
H    -6.720288  2.225377  3.883890
H    -8.150133  3.151268  3.624234
N    -2.963333  2.809360  0.411381
C    -3.081791  4.245431  0.682922
H    -3.339322  2.464076  -0.466651
H    -2.444148  4.819794  -0.001050
H    -2.765213  4.435859  1.711831
H    -4.122144  4.560452  0.546781
Pb    3.153699  -1.198898  2.117666
