37
Energy: -611338.008187 eV PBE+vdW (tier 2 basis)
C    0.875239  -1.353340  2.159760
C    0.079386  -0.129354  2.419730
O    0.689287  0.933520  2.910537
H    1.188454  -1.786456  3.123332
H    1.787168  -1.086100  1.609240
H    0.323039  -2.116296  1.604016
N    -1.217680  -0.015557  2.220992
C    -2.241297  -0.961025  1.675612
C    -2.044978  -2.429309  2.141510
O    -1.655720  -3.292458  1.343940
H    -1.597660  0.903481  2.460306
H    -3.166861  -0.607843  2.153784
C    -2.468640  -0.782192  0.154755
C    -1.311861  -0.921632  -0.854499
C    -1.078251  -2.287624  -1.523315
N    -2.236907  -2.765864  -2.284473
C    -2.830447  -3.973146  -2.161639
N    -3.556344  -4.447234  -3.181708
N    -2.721875  -4.675761  -1.031563
H    -2.901882  0.221497  0.037824
H    -3.287379  -1.470846  -0.104349
H    -0.350796  -0.607810  -0.418363
H    -1.497110  -0.186638  -1.651618
H    -0.232511  -2.189792  -2.220477
H    -0.805091  -3.050671  -0.791415
H    -2.475503  -2.242234  -3.122585
H    -3.465630  -4.075650  -4.120588
H    -4.171238  -5.245480  -3.066159
H    -3.005202  -5.648513  -1.003524
H    -2.346985  -4.262617  -0.176066
N    -2.344047  -2.710697  3.422202
C    -2.962019  -1.853170  4.436462
H    -2.252693  -3.700572  3.650265
H    -3.003322  -2.413988  5.374835
H    -3.990783  -1.577599  4.166228
H    -2.371091  -0.947264  4.621148
Pb    2.157120  2.270033  3.709923
