37
Energy: -611338.733494 eV PBE+vdW (tier 2 basis)
C    1.337888  -0.904630  0.891315
C    0.654120  0.308385  0.360050
O    1.324229  1.081453  -0.476946
H    2.225002  -0.572025  1.454569
H    1.658139  -1.554786  0.068586
H    0.717051  -1.497649  1.566855
N    -0.451418  0.834019  0.895857
C    -1.554629  -0.048019  1.271816
C    -1.785388  -0.947389  -0.017091
O    -0.873364  -0.983280  -0.857069
H    -0.716724  1.736161  0.498084
H    -1.191460  -0.742347  2.044180
C    -2.763414  0.694297  1.870904
C    -3.473830  1.717951  0.968738
C    -4.872800  2.138584  1.448757
N    -4.850883  2.893825  2.709013
C    -5.931337  3.103175  3.495186
N    -5.778492  3.734086  4.664656
N    -7.137757  2.657064  3.131219
H    -2.432776  1.159424  2.810740
H    -3.481685  -0.078140  2.187034
H    -3.620201  1.299794  -0.038677
H    -2.860286  2.624527  0.832512
H    -5.489008  1.240909  1.605654
H    -5.344454  2.736985  0.652621
H    -4.078793  3.539476  2.847281
H    -4.865876  3.872463  5.082313
H    -6.577307  4.076492  5.188250
H    -7.916448  2.676572  3.782118
H    -7.363985  2.455676  2.164814
N    -2.913053  -1.650027  -0.094922
C    -3.188481  -2.606021  -1.176708
H    -3.567745  -1.614249  0.678832
H    -2.631714  -3.538529  -1.020315
H    -2.895828  -2.168850  -2.136251
H    -4.260156  -2.822555  -1.186542
Pb    2.828515  1.210155  -1.968560
