37
Energy: -611338.424955 eV PBE+vdW (tier 2 basis)
C    -0.051948  1.328802  0.876843
C    -0.598294  0.238516  1.771544
O    0.157544  0.030292  2.896139
H    -0.072334  2.278569  1.425271
H    -0.656681  1.445911  -0.028804
H    0.974680  1.097882  0.569112
N    -1.997249  0.282282  2.079253
C    -2.754094  -0.498854  1.085172
C    -1.683125  -1.447385  0.546342
O    -0.479222  -1.104352  0.896618
H    -2.142886  -0.076056  3.023644
H    -3.522771  -1.085984  1.609365
C    -3.435069  0.328846  -0.045048
C    -4.923395  0.666947  0.168980
C    -5.220421  1.856985  1.094773
N    -6.668476  2.090981  1.151270
C    -7.297619  3.281430  1.177075
N    -8.608368  3.337912  0.916514
N    -6.623714  4.408164  1.442406
H    -3.366018  -0.234111  -0.985551
H    -2.852388  1.245849  -0.206348
H    -5.453265  -0.228619  0.535216
H    -5.354657  0.892593  -0.816608
H    -4.744808  2.761589  0.690853
H    -4.822424  1.691593  2.108836
H    -7.266681  1.271125  1.197248
H    -9.158541  4.156802  1.153259
H    -9.096802  2.575219  0.460991
H    -7.055585  5.314782  1.298142
H    -5.754117  4.394668  1.959602
N    -1.866589  -2.505919  -0.197104
C    -3.141496  -3.073305  -0.653102
H    -1.021024  -2.996838  -0.496970
H    -3.124961  -4.154567  -0.476974
H    -3.269476  -2.889045  -1.727045
H    -3.976642  -2.637603  -0.098839
Pb    1.927765  -0.143353  3.975582
