37
Energy: -611340.110317 eV PBE+vdW (tier 2 basis)
C    -0.944014  -2.190669  -0.748121
C    -0.649156  -1.623369  0.594380
O    0.556983  -1.337968  0.907967
H    -0.356755  -3.108598  -0.893807
H    -0.601530  -1.477412  -1.513274
H    -2.005531  -2.406868  -0.907728
N    -1.656027  -1.401629  1.452978
C    -1.531643  -0.728480  2.755770
C    -0.787444  -1.655019  3.751317
O    0.461649  -1.424179  3.954529
H    -2.593196  -1.633221  1.127612
H    -0.835673  0.112852  2.618001
C    -2.893135  -0.135716  3.178839
C    -2.867494  0.680544  4.483862
C    -4.231215  1.348698  4.738675
N    -4.214034  2.144844  5.968070
C    -5.060375  3.159438  6.253872
N    -6.109870  3.415899  5.465970
N    -4.823225  3.927265  7.321927
H    -3.655475  -0.924523  3.241748
H    -3.197200  0.521719  2.349203
H    -2.092040  1.459572  4.430383
H    -2.613651  0.029976  5.336995
H    -5.020289  0.578792  4.787626
H    -4.469050  2.022674  3.902724
H    -3.647883  1.807505  6.740657
H    -6.650026  4.267389  5.584122
H    -6.510910  2.709375  4.861528
H    -5.532255  4.554123  7.688521
H    -3.922074  3.936751  7.786002
N    -1.347651  -2.668744  4.382016
C    -2.717509  -3.193900  4.321377
H    -0.705650  -3.173488  4.998309
H    -3.377973  -2.649761  5.007887
H    -2.685537  -4.242366  4.633753
H    -3.111056  -3.156460  3.301574
Pb    2.136912  -1.084045  2.470736
