37
Energy: -611340.113406 eV PBE+vdW (tier 2 basis)
C    -1.218792  -3.055882  -0.259640
C    -0.881581  -2.073909  0.804771
O    0.298595  -1.585787  0.862375
H    -1.062731  -2.577713  -1.238881
H    -2.247381  -3.426940  -0.201764
H    -0.519309  -3.902419  -0.211935
N    -1.827494  -1.698271  1.679051
C    -1.681693  -0.641180  2.692606
C    -0.741221  -1.130773  3.823644
O    0.483258  -0.738374  3.786488
H    -2.749851  -2.113961  1.559676
H    -1.114609  0.177439  2.224136
C    -3.069212  -0.080505  3.073372
C    -3.048260  1.085210  4.078619
C    -4.446503  1.716553  4.213703
N    -4.434323  2.841394  5.151771
C    -5.519572  3.343840  5.782490
N    -6.747794  2.909613  5.479616
N    -5.352203  4.260885  6.740186
H    -3.722612  -0.883545  3.441705
H    -3.512447  0.267578  2.127030
H    -2.336886  1.854366  3.736529
H    -2.705736  0.747525  5.068648
H    -5.158057  0.967657  4.591605
H    -4.796522  2.045357  3.220327
H    -3.599550  3.419501  5.179006
H    -7.543811  3.168133  6.054421
H    -6.959683  2.489439  4.582834
H    -6.132307  4.809818  7.086969
H    -4.449517  4.429231  7.169584
N    -1.111619  -1.933545  4.802093
C    -2.406054  -2.567732  5.079508
H    -0.358445  -2.155211  5.458055
H    -2.888015  -2.904030  4.156943
H    -3.066705  -1.888143  5.632084
H    -2.218275  -3.447242  5.703183
Pb    1.964919  -0.717382  2.075191
