37
Energy: -611338.835258 eV PBE+vdW (tier 2 basis)
C    -0.232825  0.702815  -0.706815
C    -0.027545  0.944920  0.744704
O    1.174460  1.326616  1.152946
H    -0.069608  1.638401  -1.262456
H    -1.233770  0.329233  -0.938084
H    0.507723  -0.025258  -1.067032
N    -0.950159  0.813531  1.655741
C    -2.390216  0.522026  1.537153
C    -2.939041  1.251189  2.804911
O    -2.179330  1.323904  3.778553
H    -0.765139  1.025624  2.666983
H    -2.780926  0.956455  0.607027
C    -2.653547  -1.008067  1.584048
C    -4.136106  -1.408096  1.392799
C    -4.929034  -1.782589  2.653497
N    -4.597826  -3.140851  3.109888
C    -5.048707  -3.699762  4.253157
N    -4.652851  -4.933582  4.584944
N    -5.853838  -3.015058  5.073194
H    -2.256801  -1.400525  2.532212
H    -2.052317  -1.463339  0.784837
H    -4.189555  -2.248887  0.684999
H    -4.689736  -0.604345  0.887026
H    -6.003283  -1.718656  2.413733
H    -4.720211  -1.079609  3.473495
H    -4.279830  -3.791530  2.397097
H    -5.111504  -5.454917  5.324401
H    -3.909043  -5.407972  4.086989
H    -6.102486  -3.384644  5.984846
H    -6.392962  -2.223289  4.745781
N    -4.192834  1.717882  2.756729
C    -4.818306  2.445486  3.865930
H    -4.682662  1.708183  1.867013
H    -5.875149  2.166470  3.933601
H    -4.746901  3.528986  3.706037
H    -4.301829  2.187604  4.794439
Pb    3.135692  2.085200  1.363090
