37
Energy: -611338.988982 eV PBE+vdW (tier 2 basis)
C    0.068401  -2.424751  0.763966
C    0.230912  -1.622414  2.004773
O    1.326781  -1.699891  2.664818
H    -0.446700  -3.373857  0.992539
H    1.061414  -2.687747  0.381294
H    -0.503589  -1.898937  -0.006211
N    -0.735172  -0.801413  2.480157
C    -2.154472  -1.173800  2.654054
C    -2.168009  -2.430000  3.585427
O    -1.120948  -2.736478  4.262946
H    -0.389608  -0.190066  3.220359
H    -2.573250  -0.357114  3.263580
C    -2.996578  -1.288932  1.362213
C    -2.957678  -0.066793  0.415422
C    -3.997253  1.025409  0.727516
N    -3.944023  2.086139  -0.281717
C    -4.991402  2.799341  -0.749397
N    -4.843953  3.522753  -1.863137
N    -6.174145  2.768953  -0.123765
H    -4.042953  -1.464295  1.657746
H    -2.696705  -2.184063  0.803949
H    -3.146776  -0.432005  -0.603214
H    -1.946616  0.369793  0.407871
H    -3.843227  1.450060  1.734206
H    -5.004679  0.586381  0.698020
H    -3.027861  2.369661  -0.616382
H    -4.076778  3.365429  -2.507212
H    -5.514116  4.241319  -2.117972
H    -6.999689  3.164617  -0.562757
H    -6.248957  2.551809  0.862392
N    -3.272916  -3.135616  3.697164
C    -3.490276  -4.292950  4.575030
H    -4.069135  -2.851859  3.129342
H    -2.604593  -4.462168  5.188904
H    -3.698643  -5.179028  3.962658
H    -4.355233  -4.092624  5.218907
Pb    1.118847  -2.635736  4.721672
