37
Energy: -611339.280570 eV PBE+vdW (tier 2 basis)
C    -4.428653  -1.268127  1.279981
C    -3.015734  -1.525158  0.910960
O    -2.740559  -2.377049  -0.007798
H    -4.545288  -0.634583  2.163459
H    -4.894027  -2.247470  1.480762
H    -4.986803  -0.847794  0.430193
N    -1.986730  -0.908618  1.536549
C    -1.918892  0.541056  1.740630
C    -1.602263  1.155725  0.338965
O    -1.386909  0.401423  -0.675964
H    -1.079674  -1.332460  1.330903
H    -2.921569  0.891662  2.030168
C    -0.902044  0.913050  2.845975
C    -1.294754  0.342216  4.221188
C    -0.266688  0.532368  5.348270
N    -0.256216  1.897402  5.894954
C    0.693780  2.366863  6.740581
N    1.724570  1.598896  7.104846
N    0.613533  3.627205  7.178845
H    -0.818640  2.008598  2.892993
H    0.095944  0.549266  2.550952
H    -1.447200  -0.742991  4.131828
H    -2.269612  0.747993  4.538445
H    0.743276  0.303963  4.976809
H    -0.504785  -0.191879  6.144142
H    -1.160380  2.356318  5.970288
H    1.687072  0.588755  7.043357
H    2.504153  1.988672  7.625603
H    -0.033844  4.294312  6.775981
H    1.191301  3.958750  7.944487
N    -1.576399  2.464857  0.206786
C    -1.320247  3.185087  -1.050638
H    -1.775779  3.031654  1.028383
H    -1.126005  4.233878  -0.811429
H    -2.196269  3.123048  -1.708817
H    -0.447987  2.757003  -1.554853
Pb    -1.577456  -1.600804  -1.789977
