37
Energy: -611338.772520 eV PBE+vdW (tier 2 basis)
C    -0.346789  -1.528743  1.304879
C    0.196215  -0.163612  1.526570
O    1.505135  -0.014287  1.650292
H    -0.040057  -2.182139  2.135077
H    0.075244  -1.949269  0.380042
H    -1.436967  -1.553269  1.233320
N    -0.540016  0.913897  1.611147
C    -1.992213  1.076508  1.403959
C    -2.122903  2.541080  0.914980
O    -1.320263  3.382648  1.362698
H    -0.097175  1.840748  1.756148
H    -2.308932  0.385683  0.611608
C    -2.854054  0.803017  2.671167
C    -2.383492  1.311876  4.044600
C    -2.337741  2.816972  4.340065
N    -3.644087  3.480190  4.196395
C    -3.823956  4.765265  3.815711
N    -4.890835  5.437340  4.263134
N    -2.971677  5.354113  2.969342
H    -2.968238  -0.287368  2.753855
H    -3.861264  1.183138  2.443712
H    -1.380062  0.920338  4.273411
H    -3.038834  0.828110  4.785229
H    -1.618692  3.325266  3.693148
H    -1.985976  2.947295  5.375248
H    -4.396842  3.091922  4.760364
H    -5.409410  5.134434  5.080365
H    -5.174100  6.318446  3.847534
H    -2.985329  6.360061  2.845082
H    -2.285584  4.818167  2.435472
N    -3.112579  2.792779  0.057773
C    -3.391809  4.112839  -0.512898
H    -3.701528  2.022332  -0.247607
H    -3.643691  3.998160  -1.572296
H    -2.499786  4.738673  -0.419771
H    -4.236327  4.588172  0.002294
Pb    3.586597  -0.447229  1.568492
