37
Energy: -611338.038554 eV PBE+vdW (tier 2 basis)
C    0.505588  -0.639260  -0.162215
C    -0.499139  0.449513  -0.156928
O    -0.457099  1.362337  -1.108516
H    0.580141  -1.068021  -1.170216
H    0.283399  -1.427285  0.562587
H    1.491075  -0.214983  0.089205
N    -1.436421  0.599930  0.756119
C    -1.810939  -0.201526  1.963167
C    -0.590935  -0.735746  2.773167
O    -0.292171  -1.932034  2.755106
H    -2.037462  1.413632  0.605149
H    -2.296562  0.552164  2.601298
C    -2.910408  -1.253815  1.680034
C    -2.755954  -2.361620  0.621895
C    -1.902309  -3.608397  0.932581
N    -2.110925  -4.189817  2.258732
C    -2.772646  -5.324591  2.548284
N    -2.539419  -5.943128  3.712614
N    -3.666467  -5.841559  1.695970
H    -3.811048  -0.681794  1.412879
H    -3.142286  -1.698060  2.659918
H    -2.396132  -1.949627  -0.335023
H    -3.784171  -2.689491  0.406703
H    -0.833399  -3.379399  0.870638
H    -2.100034  -4.376271  0.172586
H    -1.535986  -3.780794  2.992278
H    -3.153411  -6.674380  4.054666
H    -1.706362  -5.753366  4.257233
H    -4.034930  -6.776898  1.829512
H    -4.053433  -5.303175  0.932533
N    0.067530  0.193536  3.492265
C    1.176670  -0.134767  4.390628
H    -0.325564  1.127613  3.566719
H    1.858506  0.720003  4.445187
H    1.703731  -1.011850  4.004444
H    0.806212  -0.358581  5.400285
Pb    0.122472  2.580472  -2.769003
