37
Energy: -611339.182068 eV PBE+vdW (tier 2 basis)
C    -0.422987  -0.624151  2.939127
C    -0.382543  0.435045  1.902267
O    0.554062  1.311169  1.920704
H    -0.371871  -0.119379  3.918419
H    0.474635  -1.258125  2.890073
H    -1.326699  -1.238861  2.907569
N    -1.329287  0.534210  0.940146
C    -1.747537  -0.596966  0.108256
C    -0.591754  -0.827928  -0.919228
O    0.442074  -0.067570  -0.925804
H    -1.293772  1.421286  0.434256
H    -1.783084  -1.491178  0.749796
C    -3.144134  -0.381400  -0.519463
C    -4.261092  -0.318255  0.542991
C    -5.696594  -0.550274  0.035745
N    -6.312368  0.615386  -0.607811
C    -7.640586  0.871887  -0.621205
N    -8.073400  2.057940  -1.063719
N    -8.518000  -0.033958  -0.180560
H    -3.120882  0.520699  -1.152141
H    -3.342145  -1.221757  -1.202065
H    -4.217321  0.626193  1.104102
H    -4.082803  -1.116901  1.279480
H    -6.312154  -0.795178  0.911450
H    -5.721206  -1.422285  -0.639776
H    -5.751318  1.173711  -1.242280
H    -9.053167  2.214125  -1.277212
H    -7.458685  2.860610  -1.129352
H    -9.487501  0.218891  -0.016663
H    -8.293823  -1.020254  -0.127856
N    -0.680347  -1.832786  -1.763921
C    0.339673  -2.201534  -2.758590
H    -1.503085  -2.430280  -1.710485
H    1.173880  -2.721878  -2.270534
H    0.708218  -1.303986  -3.264670
H    -0.121272  -2.871290  -3.489545
Pb    1.868504  1.424665  0.077852
