37
Energy: -611340.251641 eV PBE+vdW (tier 2 basis)
C    -0.895620  0.896372  -0.014441
C    -1.371970  -0.022408  1.055005
O    -2.113160  -1.017840  0.746164
H    -0.340007  0.306584  -0.759299
H    -0.257087  1.705724  0.354807
H    -1.759540  1.325190  -0.541995
N    -0.992971  0.196553  2.322196
C    -1.259083  -0.669069  3.486938
C    -2.710408  -0.429724  3.968598
O    -3.672539  -1.014158  3.355553
H    -0.432916  1.031650  2.485500
H    -1.246673  -1.708346  3.123306
C    -0.151956  -0.508286  4.552543
C    1.214705  -1.058038  4.089778
C    2.413007  -0.750066  5.007760
N    2.512295  -1.628732  6.178540
C    3.668781  -1.968082  6.793123
N    4.814230  -1.353827  6.483731
N    3.661419  -2.945320  7.706330
H    -0.492918  -1.032651  5.457885
H    -0.044639  0.556649  4.824643
H    1.469951  -0.620198  3.113488
H    1.151356  -2.144431  3.926275
H    2.391228  0.308374  5.318671
H    3.325432  -0.900005  4.415484
H    1.662812  -1.887030  6.668986
H    5.703850  -1.723330  6.804707
H    4.834944  -0.434414  6.059199
H    2.908037  -3.620790  7.761238
H    4.449006  -3.088274  8.330384
N    -2.952522  0.370630  4.984461
C    -4.279085  0.712447  5.517063
H    -2.154462  0.805015  5.443944
H    -5.018579  0.001976  5.142353
H    -4.548539  1.730927  5.208317
H    -4.240185  0.668834  6.610899
Pb    -4.013197  -2.021908  1.365864
