37
Energy: -611339.946269 eV PBE+vdW (tier 2 basis)
C    0.354223  -1.088406  1.240157
C    -0.146152  0.009799  2.110497
O    0.385772  1.169006  2.027074
H    0.222417  -0.787088  0.189516
H    -0.153963  -2.044144  1.405769
H    1.434896  -1.216286  1.393043
N    -1.166298  -0.230621  2.947925
C    -1.881942  0.772440  3.756632
C    -1.042450  1.112829  5.011406
O    -0.118079  1.994595  4.911819
H    -1.519663  -1.184783  2.958755
H    -1.865148  1.704504  3.172177
C    -3.384541  0.421254  3.912306
C    -3.805225  -0.899760  4.592073
C    -5.215746  -1.394637  4.215555
N    -6.287404  -0.544929  4.749116
C    -7.576187  -0.590488  4.326751
N    -8.460343  0.268108  4.842140
N    -7.955539  -1.453102  3.379742
H    -3.781558  0.429504  2.885519
H    -3.858049  1.276448  4.414495
H    -3.754829  -0.827470  5.691712
H    -3.133734  -1.730443  4.322630
H    -5.322158  -2.427556  4.585205
H    -5.312080  -1.415886  3.120092
H    -6.158437  -0.183722  5.690610
H    -8.172386  1.074358  5.384636
H    -9.458475  0.144444  4.704318
H    -8.877561  -1.387343  2.958925
H    -7.437313  -2.302521  3.189123
N    -1.249445  0.512442  6.164156
C    -0.473669  0.754924  7.390479
H    -1.983425  -0.189057  6.208580
H    0.466462  0.188736  7.362006
H    -1.067626  0.422854  8.246265
H    -0.254730  1.822815  7.484180
Pb    1.118383  2.895183  3.246616
