37
Energy: -611339.378657 eV PBE+vdW (tier 2 basis)
C    1.964411  -0.188378  0.740630
C    0.796654  -0.670359  1.526088
O    0.792058  -0.536646  2.795865
H    2.098543  0.886431  0.935203
H    1.861936  -0.349050  -0.337725
H    2.877208  -0.685259  1.098954
N    -0.245999  -1.222299  0.882804
C    -1.500835  -1.629154  1.524298
C    -1.267589  -2.925568  2.343933
O    -1.081269  -2.799306  3.609142
H    -0.166610  -1.299626  -0.128110
H    -1.682015  -0.887943  2.313738
C    -2.770481  -1.573519  0.600350
C    -2.587365  -1.461049  -0.925371
C    -3.831832  -0.957253  -1.682394
N    -4.940217  -1.920516  -1.716347
C    -6.214145  -1.592169  -2.052023
N    -7.160435  -2.534968  -2.015586
N    -6.534815  -0.337575  -2.378748
H    -3.330872  -0.689599  0.932566
H    -3.410360  -2.430938  0.848943
H    -2.243818  -2.404815  -1.375919
H    -1.820660  -0.708100  -1.165768
H    -3.517276  -0.700074  -2.706974
H    -4.197359  -0.038473  -1.201373
H    -4.692807  -2.891457  -1.887981
H    -8.073071  -2.384043  -2.433675
H    -7.010604  -3.428065  -1.561091
H    -7.506554  -0.060827  -2.481530
H    -5.843696  0.323756  -2.712265
N    -1.235604  -4.138123  1.827590
C    -1.376063  -4.571416  0.436746
H    -1.080627  -4.879202  2.515736
H    -2.430621  -4.740928  0.185014
H    -0.837341  -5.517483  0.321718
H    -0.931277  -3.843890  -0.247619
Pb    0.152171  -1.326677  4.801027
