37
Energy: -611338.197757 eV PBE+vdW (tier 2 basis)
C    -0.150675  1.122192  0.672806
C    -0.146589  0.214734  1.847970
O    0.943621  0.092454  2.570352
H    0.690236  0.875855  0.009201
H    -0.005321  2.156199  1.023998
H    -1.081372  1.095418  0.098929
N    -1.201117  -0.480467  2.233430
C    -2.522463  -0.544881  1.568288
C    -3.363232  0.767762  1.742695
O    -3.788451  1.273282  0.705233
H    -1.077219  -1.046484  3.076237
H    -2.330590  -0.581043  0.490083
C    -3.279310  -1.828963  1.977930
C    -4.312518  -2.340882  0.951759
C    -5.590271  -1.503297  0.770808
N    -6.574647  -2.265237  -0.001703
C    -7.497725  -1.758635  -0.841420
N    -8.211535  -2.589580  -1.609773
N    -7.692438  -0.437748  -0.933218
H    -3.751244  -1.704244  2.963119
H    -2.534949  -2.632229  2.088910
H    -4.600569  -3.344906  1.300013
H    -3.829992  -2.483758  -0.026450
H    -5.368021  -0.577482  0.224838
H    -6.011705  -1.229368  1.753192
H    -6.662598  -3.254344  0.214187
H    -9.048107  -2.276994  -2.090416
H    -7.947090  -3.559758  -1.736275
H    -8.272982  -0.048580  -1.667964
H    -7.393166  0.196413  -0.204054
N    -3.593913  1.291279  2.966320
C    -3.387695  0.732847  4.300335
H    -4.165785  2.134702  2.921511
H    -3.334116  1.560962  5.015121
H    -2.444001  0.182706  4.374338
H    -4.212070  0.072785  4.604364
Pb    3.012827  0.342685  3.093635
