37
Energy: -611338.217402 eV PBE+vdW (tier 2 basis)
C    1.042924  -0.595421  0.005987
C    0.619877  -0.425091  1.434697
O    1.401766  -0.140990  2.349576
H    0.294435  -1.093524  -0.620452
H    1.988797  -1.148214  -0.031105
H    1.242089  0.398518  -0.422524
N    -0.727983  -0.592652  1.705407
C    -1.258140  -0.217707  3.007262
C    -2.118545  -1.365431  3.540334
O    -1.588517  -2.553849  3.667894
H    -1.366863  -0.632459  0.913532
H    -0.370701  -0.194833  3.668116
C    -1.963084  1.158270  3.026743
C    -1.136566  2.378164  2.559624
C    -0.162793  3.031229  3.558103
N    1.188514  2.469648  3.526916
C    2.308243  3.144758  3.841023
N    3.497193  2.602190  3.540830
N    2.253428  4.340052  4.437481
H    -2.326929  1.361076  4.047568
H    -2.846794  1.109620  2.367820
H    -1.875904  3.152615  2.314928
H    -0.622756  2.171231  1.609549
H    -0.578541  2.982553  4.579449
H    -0.090768  4.095570  3.291584
H    1.313302  1.513462  3.176914
H    3.564794  1.798410  2.927992
H    4.364427  3.001917  3.881025
H    1.403224  4.693046  4.857995
H    3.085592  4.908759  4.551566
N    -3.367579  -1.181602  3.886464
C    -4.288702  -2.184368  4.435830
H    -3.733073  -0.236756  3.759713
H    -4.448634  -2.991869  3.710155
H    -5.246111  -1.696340  4.636816
H    -3.892822  -2.589330  5.375610
Pb    -0.623097  -4.444791  3.802540
