37
Energy: -611338.933172 eV PBE+vdW (tier 2 basis)
C    -0.085704  -0.096663  0.426117
C    -0.567901  -0.481689  1.773464
O    0.242013  -0.996868  2.621420
H    0.770488  0.588860  0.491713
H    -0.866290  0.311655  -0.221512
H    0.307926  -1.014847  -0.044595
N    -1.863709  -0.334373  2.139165
C    -2.622720  0.917168  1.993308
C    -1.832886  1.977544  2.805686
O    -1.115182  1.593205  3.803812
H    -2.103574  -0.851509  2.987682
H    -2.660083  1.198847  0.933290
C    -4.047058  0.658522  2.562305
C    -5.181433  1.661938  2.278658
C    -5.893853  1.466678  0.928984
N    -7.114549  2.278936  0.892369
C    -7.895484  2.485647  -0.190817
N    -8.901016  3.361521  -0.114803
N    -7.644841  1.850208  -1.341924
H    -3.950153  0.554471  3.653852
H    -4.344231  -0.332799  2.186626
H    -4.850096  2.703508  2.391229
H    -5.923397  1.501859  3.075860
H    -6.138988  0.397363  0.807896
H    -5.253420  1.763787  0.083609
H    -7.519325  2.538993  1.787313
H    -8.986310  4.015639  0.655208
H    -9.626419  3.397065  -0.823844
H    -8.152147  2.094991  -2.186547
H    -7.138086  0.973834  -1.363837
N    -1.870238  3.262726  2.512893
C    -2.531564  3.969756  1.412880
H    -1.320325  3.852309  3.143717
H    -3.281738  4.660797  1.816627
H    -3.011331  3.269790  0.725221
H    -1.780294  4.552044  0.865342
Pb    0.426483  0.088132  4.611103
