37
Energy: -611340.392214 eV PBE+vdW (tier 2 basis)
C    1.251249  -0.659814  -0.224449
C    0.812678  0.091816  0.982009
O    0.676494  1.362718  0.916898
H    0.522546  -0.479860  -1.029881
H    1.343763  -1.738257  -0.058712
H    2.211222  -0.259052  -0.579273
N    0.541311  -0.579659  2.109155
C    -0.054194  -0.031322  3.344208
C    1.042177  0.718587  4.137142
O    1.302179  1.937983  3.843565
H    0.684348  -1.588062  2.076001
H    -0.773496  0.744630  3.039947
C    -0.821642  -1.153101  4.075044
C    -1.731085  -0.683716  5.226343
C    -2.542377  -1.857424  5.806963
N    -3.438223  -1.406337  6.874192
C    -4.572388  -2.030987  7.262706
N    -5.399732  -1.413034  8.111098
N    -4.884828  -3.240580  6.785525
H    -0.123268  -1.933189  4.426023
H    -1.443015  -1.642802  3.309217
H    -2.428706  0.084038  4.859512
H    -1.133360  -0.219714  6.027288
H    -1.858580  -2.638533  6.180966
H    -3.160195  -2.302545  5.013565
H    -3.103967  -0.670642  7.489408
H    -6.139112  -1.917818  8.589221
H    -5.337909  -0.417166  8.289687
H    -5.804407  -3.638784  6.948685
H    -4.178934  -3.872378  6.427298
N    1.711046  0.101967  5.088318
C    2.815385  0.675030  5.870723
H    1.468351  -0.867868  5.280297
H    2.728209  1.764036  5.885102
H    3.777091  0.384891  5.427187
H    2.761282  0.283078  6.891268
Pb    1.102088  3.254870  2.013750
