37
Energy: -611339.937706 eV PBE+vdW (tier 2 basis)
C    0.222300  -0.816264  -0.137756
C    -0.296357  -0.841270  1.256421
O    0.523408  -0.815978  2.235765
H    0.897073  -1.670677  -0.291280
H    0.833305  0.089267  -0.270286
H    -0.565682  -0.834580  -0.897939
N    -1.622196  -0.871572  1.465044
C    -2.282373  -0.797437  2.778114
C    -2.073639  -2.127824  3.546473
O    -1.121583  -2.167750  4.411811
H    -2.214293  -0.900256  0.637222
H    -1.713989  -0.069484  3.376738
C    -3.731669  -0.271212  2.661871
C    -3.777097  1.247942  2.400350
C    -5.160619  1.836799  2.080956
N    -6.038233  1.920934  3.257048
C    -7.360899  2.213110  3.195704
N    -8.075833  2.243487  4.324645
N    -7.958511  2.429791  2.020667
H    -4.258048  -0.518202  3.595144
H    -4.265430  -0.803875  1.861228
H    -3.143815  1.495322  1.535168
H    -3.333742  1.791409  3.250664
H    -5.664340  1.220718  1.321232
H    -5.003601  2.839473  1.650749
H    -5.589512  2.146547  4.140758
H    -9.013762  2.630673  4.346679
H    -7.711035  1.885294  5.199396
H    -8.968625  2.513289  1.959200
H    -7.436291  2.701844  1.196527
N    -2.796833  -3.214441  3.365898
C    -3.908958  -3.485642  2.446707
H    -2.522939  -3.992904  3.970986
H    -3.947611  -4.567146  2.282912
H    -3.748035  -3.001629  1.479122
H    -4.863280  -3.165335  2.882266
Pb    1.019749  -1.464425  4.326795
