37
Energy: -611338.904374 eV PBE+vdW (tier 2 basis)
C    -0.537956  -1.744732  0.554279
C    -1.366815  -1.898419  1.775760
O    -1.511491  -3.063472  2.295001
H    -0.574826  -2.650055  -0.060009
H    0.509153  -1.631339  0.887876
H    -0.785911  -0.862196  -0.040915
N    -1.967433  -0.854066  2.390321
C    -2.809936  0.150996  1.699250
C    -3.585940  -0.592861  0.579195
O    -3.865064  -1.837931  0.726740
H    -2.298476  -1.095735  3.325039
H    -3.611889  0.348736  2.432070
C    -2.192466  1.550606  1.454809
C    -0.951614  1.705633  0.563571
C    -0.513297  3.165477  0.335991
N    0.058995  3.786128  1.537694
C    0.237836  5.120614  1.698251
N    0.707405  5.579288  2.862105
N    -0.084977  5.976267  0.724109
H    -1.973236  1.944812  2.457939
H    -3.004800  2.201308  1.088270
H    -1.129162  1.291478  -0.440670
H    -0.104523  1.139838  0.981033
H    -1.377910  3.769092  0.022658
H    0.219537  3.175061  -0.486962
H    0.659273  3.199731  2.111482
H    1.037246  6.534393  2.959033
H    0.746118  4.998179  3.691431
H    -0.138094  5.688299  -0.245654
H    -0.093954  6.977127  0.895971
N    -4.022237  0.079690  -0.464258
C    -4.886123  -0.434657  -1.535262
H    -3.789775  1.069697  -0.507062
H    -4.469290  -0.134700  -2.503162
H    -5.892057  -0.008138  -1.429578
H    -4.938964  -1.522889  -1.474542
Pb    -3.578580  -3.853717  1.813844
