37
Energy: -611338.564659 eV PBE+vdW (tier 2 basis)
C    0.173137  1.702168  0.833894
C    -0.027183  0.471650  1.645879
O    0.881145  -0.472491  1.663180
H    -0.141283  2.602924  1.376358
H    -0.427771  1.643871  -0.088956
H    1.223336  1.811438  0.548428
N    -1.118804  0.277506  2.369023
C    -2.309645  1.149019  2.450614
C    -2.241288  2.270581  3.533633
O    -3.138143  3.114067  3.484766
H    -1.171108  -0.609175  2.877128
H    -2.371542  1.693199  1.499339
C    -3.598398  0.294180  2.646644
C    -4.670457  0.482331  1.557234
C    -5.518900  1.761283  1.610623
N    -6.503385  1.746130  2.703509
C    -6.856648  2.801077  3.473905
N    -8.094385  2.849737  3.980939
N    -5.977648  3.766335  3.749904
H    -4.021996  0.499348  3.639100
H    -3.315648  -0.769139  2.654399
H    -5.341576  -0.389086  1.592874
H    -4.203166  0.439008  0.561292
H    -6.062653  1.854666  0.658031
H    -4.898265  2.657712  1.712011
H    -7.192115  0.998695  2.660086
H    -8.332741  3.490536  4.730360
H    -8.854380  2.305125  3.588675
H    -6.284462  4.632505  4.177752
H    -4.974148  3.621920  3.628090
N    -1.249129  2.270132  4.432059
C    -1.155145  3.268767  5.505756
H    -0.605188  1.487841  4.459149
H    -0.123371  3.301171  5.867081
H    -1.822786  3.011550  6.337821
H    -1.433735  4.250849  5.111860
Pb    2.624318  -1.613133  1.104588
