37
Energy: -611338.745340 eV PBE+vdW (tier 2 basis)
C    -1.263959  -1.759463  0.637851
C    -0.324268  -0.893390  1.395964
O    0.824924  -1.399503  1.801185
H    -0.843013  -1.976917  -0.356201
H    -2.251768  -1.310563  0.505947
H    -1.384398  -2.717012  1.162520
N    -0.560011  0.363849  1.689645
C    -1.725606  1.207332  1.343509
C    -1.124049  2.625007  1.122245
O    -0.555840  3.145053  2.096459
H    0.141881  0.866878  2.248223
H    -2.194445  0.806534  0.439326
C    -2.713228  1.267212  2.530595
C    -3.820592  2.338210  2.355647
C    -4.044177  3.224004  3.584990
N    -2.908817  4.123373  3.821541
C    -2.939631  5.202786  4.621536
N    -1.879737  6.023320  4.657794
N    -4.013777  5.471253  5.370939
H    -2.121288  1.471119  3.434438
H    -3.158037  0.272299  2.667640
H    -4.775000  1.845982  2.131627
H    -3.616287  2.991069  1.493662
H    -4.226940  2.595324  4.473293
H    -4.946143  3.829659  3.411540
H    -2.015050  3.893963  3.380144
H    -1.819813  6.782685  5.326364
H    -1.124127  5.937699  3.989463
H    -4.093634  6.342380  5.883769
H    -4.765796  4.804682  5.489829
N    -1.262041  3.209734  -0.072733
C    -1.915253  2.697851  -1.283067
H    -0.847687  4.139799  -0.127429
H    -1.409842  1.803728  -1.669708
H    -2.978738  2.487175  -1.113766
H    -1.850156  3.472217  -2.052620
Pb    2.440049  -2.761367  2.099899
