37
Energy: -611339.609935 eV PBE+vdW (tier 2 basis)
C    -1.956234  -0.902867  -0.046457
C    -1.755478  -0.712973  1.417816
O    -1.237499  -1.661137  2.101933
H    -2.553637  -1.812370  -0.206512
H    -0.982494  -1.084490  -0.524657
H    -2.445638  -0.056108  -0.539015
N    -2.138721  0.446009  1.971003
C    -2.154547  0.879191  3.389147
C    -0.731887  0.966496  3.969364
O    -0.090927  -0.080432  4.349867
H    -2.526102  1.119157  1.313197
H    -2.533816  1.907269  3.339611
C    -3.125817  0.083003  4.296682
C    -4.595664  0.263288  3.868254
C    -5.643919  -0.526454  4.675928
N    -6.030586  0.114459  5.937578
C    -7.262383  0.054844  6.493311
N    -7.559972  0.867975  7.512734
N    -8.185588  -0.790349  6.025214
H    -2.960901  0.441427  5.325093
H    -2.863175  -0.984778  4.294704
H    -4.704472  -0.072224  2.826634
H    -4.870003  1.329555  3.876465
H    -5.293938  -1.556592  4.857329
H    -6.549700  -0.592035  4.059350
H    -5.305322  0.519755  6.519719
H    -8.383490  0.713497  8.085667
H    -7.021227  1.704360  7.705598
H    -9.156377  -0.708647  6.311331
H    -7.938484  -1.619051  5.498167
N    -0.160059  2.143836  4.129062
C    -0.663996  3.487021  3.797168
H    0.769438  2.104276  4.554838
H    -1.474863  3.781634  4.475000
H    -0.993549  3.539464  2.753443
H    0.162634  4.191693  3.926216
Pb    0.249393  -2.185702  3.675217
