37
Energy: -611339.534414 eV PBE+vdW (tier 2 basis)
C    0.769749  1.205036  1.508901
C    0.337689  -0.154862  1.935717
O    1.224490  -1.054380  2.131924
H    1.323646  1.115759  0.562095
H    1.478149  1.609517  2.245988
H    -0.057688  1.909766  1.375825
N    -0.972570  -0.394463  2.088702
C    -1.682365  -1.664423  2.380365
C    -1.282952  -2.188314  3.777379
O    -0.243794  -2.922165  3.942588
H    -1.574784  0.404427  1.901028
H    -2.736515  -1.367145  2.442153
C    -1.542511  -2.713824  1.255903
C    -2.583989  -3.859775  1.283597
C    -3.816063  -3.594576  0.398402
N    -4.709289  -4.755808  0.388189
C    -5.508370  -5.136623  -0.632882
N    -6.063023  -6.352088  -0.610161
N    -5.728449  -4.320381  -1.669660
H    -0.535457  -3.148948  1.276605
H    -1.603858  -2.169817  0.302394
H    -2.901747  -4.072872  2.317890
H    -2.099002  -4.776867  0.923918
H    -3.483077  -3.417390  -0.634308
H    -4.360007  -2.694840  0.734641
H    -4.807420  -5.282944  1.250562
H    -6.829467  -6.593855  -1.230229
H    -5.719303  -7.087418  -0.002595
H    -6.190706  -4.661539  -2.506773
H    -5.627140  -3.316174  -1.589359
N    -2.030409  -1.899082  4.825611
C    -3.251590  -1.081047  4.899964
H    -1.690927  -2.289116  5.708068
H    -3.564106  -1.044403  5.947434
H    -4.065671  -1.529163  4.317500
H    -3.059006  -0.054607  4.566002
Pb    1.907528  -2.827594  3.282623
