37
Energy: -611338.603840 eV PBE+vdW (tier 2 basis)
C    0.654414  0.371921  0.737791
C    0.578320  -1.083063  1.031483
O    1.670516  -1.814514  0.932571
H    -0.326680  0.836070  0.606526
H    1.239939  0.533368  -0.176691
H    1.175871  0.885880  1.560806
N    -0.522175  -1.698357  1.400850
C    -1.874539  -1.142065  1.638351
C    -2.433098  -1.930236  2.862238
O    -2.682150  -3.133834  2.704531
H    -0.466897  -2.713130  1.547970
H    -1.776821  -0.072282  1.859294
C    -2.780778  -1.395583  0.416666
C    -4.261878  -1.019868  0.675094
C    -5.272830  -2.061726  0.188026
N    -5.209882  -3.289961  0.988533
C    -6.135527  -4.263453  0.971715
N    -6.032526  -5.283317  1.836317
N    -7.157395  -4.223241  0.110524
H    -2.691867  -2.461631  0.162201
H    -2.384744  -0.835631  -0.441380
H    -4.496040  -0.075584  0.168166
H    -4.446508  -0.833090  1.744031
H    -5.094999  -2.290163  -0.876793
H    -6.280845  -1.628999  0.275059
H    -4.391344  -3.427844  1.586882
H    -6.654020  -6.082499  1.790269
H    -5.359159  -5.266888  2.592001
H    -7.916011  -4.894118  0.160697
H    -7.200337  -3.546595  -0.640553
N    -2.606621  -1.238615  3.993636
C    -3.156235  -1.815880  5.223254
H    -2.400743  -0.243794  3.996551
H    -2.622301  -1.400583  6.084254
H    -3.023983  -2.900766  5.195849
H    -4.223555  -1.577799  5.319251
Pb    3.714558  -2.348602  0.611116
