37
Energy: -611338.645187 eV PBE+vdW (tier 2 basis)
C    0.856057  0.717305  -0.692589
C    0.653361  0.530696  0.768682
O    1.574046  -0.065584  1.490198
H    0.323792  1.589882  -1.085983
H    0.488551  -0.173694  -1.229179
H    1.923169  0.825114  -0.915938
N    -0.437686  0.930950  1.394596
C    -1.634173  1.554652  0.792589
C    -1.546189  3.095848  0.538778
O    -2.041666  3.479780  -0.526196
H    -0.466927  0.756462  2.402067
H    -1.730663  1.141999  -0.216910
C    -2.887725  1.185592  1.624325
C    -4.181800  1.914634  1.217534
C    -4.730034  1.543973  -0.174415
N    -5.916173  2.315954  -0.535424
C    -5.939124  3.415414  -1.314074
N    -7.118943  3.894907  -1.727529
N    -4.805941  4.024313  -1.677947
H    -2.698329  1.414067  2.684668
H    -3.028906  0.095866  1.558331
H    -4.041920  3.003347  1.283437
H    -4.940082  1.666150  1.973364
H    -5.011404  0.481944  -0.201958
H    -3.981591  1.690759  -0.964035
H    -6.808593  1.996564  -0.171261
H    -7.194344  4.801590  -2.174633
H    -7.972535  3.353774  -1.650005
H    -4.821721  4.744171  -2.391243
H    -3.900911  3.808379  -1.261453
N    -1.017469  3.933401  1.445589
C    -0.501840  3.669204  2.786953
H    -1.036312  4.908084  1.146692
H    -0.486123  4.616136  3.335798
H    0.526517  3.282461  2.767293
H    -1.155076  2.990888  3.349528
Pb    3.342018  -1.195782  1.958578
