37
Energy: -611340.214602 eV PBE+vdW (tier 2 basis)
C    0.590633  -0.307692  0.005473
C    0.204479  0.024659  1.403197
O    0.940521  0.815906  2.088280
H    -0.105654  -0.991875  -0.490596
H    1.600254  -0.742215  -0.003497
H    0.650321  0.628257  -0.570885
N    -0.923588  -0.490446  1.911049
C    -1.538738  -0.159195  3.211417
C    -0.767292  -0.900249  4.331040
O    0.294589  -0.370520  4.813759
H    -1.442152  -1.122353  1.302911
H    -1.353999  0.910749  3.393359
C    -3.063817  -0.389731  3.137041
C    -3.850961  0.168135  4.337760
C    -5.349934  -0.198923  4.355336
N    -6.190541  0.481721  3.361573
C    -7.193073  1.349467  3.637827
N    -8.187493  1.501734  2.758632
N    -7.192008  2.064398  4.767226
H    -3.281340  -1.464615  3.002929
H    -3.404628  0.098943  2.211165
H    -3.737255  1.262128  4.377336
H    -3.432892  -0.221150  5.279068
H    -5.758846  0.016882  5.350121
H    -5.477954  -1.282695  4.212619
H    -6.226083  0.074085  2.432515
H    -8.392665  0.801726  2.053861
H    -8.833572  2.282346  2.822733
H    -8.019268  2.572467  5.063437
H    -6.358477  2.186561  5.327330
N    -1.187778  -2.068891  4.766005
C    -0.519870  -2.900596  5.777052
H    -2.037578  -2.446792  4.352138
H    0.100778  -3.660683  5.284183
H    -1.285152  -3.400944  6.378949
H    0.103468  -2.271150  6.416489
Pb    1.868567  1.085551  4.099166
