37
Energy: -611338.853918 eV PBE+vdW (tier 2 basis)
C    -0.492800  -1.085429  0.515655
C    -0.206534  0.105123  1.363772
O    1.035519  0.285178  1.780296
H    0.140898  -1.081912  -0.378298
H    -1.534942  -1.147045  0.193530
H    -0.266558  -1.984854  1.111209
N    -1.146167  0.811806  1.999891
C    -2.355200  1.220444  1.288613
C    -1.798034  1.868756  -0.049744
O    -0.645354  1.560128  -0.389437
H    -0.780147  1.493631  2.667282
H    -2.898775  0.315490  0.976851
C    -3.271782  2.079662  2.190445
C    -4.778527  1.884736  1.929838
C    -5.637332  2.740919  2.873725
N    -7.064921  2.506889  2.635610
C    -8.061124  2.789643  3.499465
N    -9.297934  2.350167  3.242412
N    -7.817319  3.481183  4.618298
H    -2.993395  3.141037  2.102023
H    -3.071690  1.791320  3.233059
H    -5.039275  0.824399  2.067151
H    -5.036567  2.135135  0.886911
H    -5.393725  3.808314  2.737454
H    -5.416171  2.473148  3.917692
H    -7.348216  2.237999  1.698393
H    -9.476136  1.625450  2.556698
H    -10.101321  2.709655  3.746867
H    -8.524468  3.563479  5.341301
H    -7.004165  4.077093  4.710792
N    -2.607435  2.658420  -0.751039
C    -2.236331  3.272212  -2.032197
H    -3.522873  2.878546  -0.375632
H    -1.844183  4.285248  -1.877303
H    -3.122779  3.321084  -2.672279
H    -1.471847  2.657640  -2.514733
Pb    3.127336  0.155449  1.499393
