37
Energy: -611340.207562 eV PBE+vdW (tier 2 basis)
C    -1.280524  0.476045  0.427100
C    -0.914678  -0.003249  1.788812
O    -0.402047  -1.169955  1.919816
H    -0.396017  0.440455  -0.224509
H    -1.702274  1.486466  0.413437
H    -2.011801  -0.225075  -0.003557
N    -1.150949  0.795560  2.835718
C    -1.042662  0.544038  4.295339
C    0.425518  0.351226  4.727032
O    1.065430  -0.735088  4.499604
H    -1.554830  1.698458  2.593295
H    -1.377566  1.492084  4.738468
C    -2.010268  -0.553385  4.800395
C    -2.319493  -0.446811  6.306625
C    -3.496654  -1.350627  6.714778
N    -3.833109  -1.160905  8.128561
C    -4.566070  -2.011255  8.880846
N    -4.658458  -1.806266  10.198022
N    -5.168089  -3.068350  8.323936
H    -1.625842  -1.553563  4.554073
H    -2.940167  -0.430158  4.225954
H    -2.581907  0.598183  6.542007
H    -1.436386  -0.701767  6.911671
H    -3.232782  -2.407969  6.564660
H    -4.368066  -1.123162  6.077029
H    -3.678623  -0.238726  8.525327
H    -4.032731  -1.176875  10.687983
H    -5.356689  -2.283556  10.759026
H    -5.594231  -3.784460  8.903799
H    -5.406944  -3.087147  7.339983
N    1.005349  1.341032  5.377817
C    2.388145  1.355722  5.870499
H    0.460819  2.187795  5.534486
H    2.756160  0.331890  5.967075
H    2.406177  1.853344  6.845878
H    3.024061  1.918394  5.173902
Pb    1.216198  -2.313339  2.905112
