37
Energy: -611340.067169 eV PBE+vdW (tier 2 basis)
C    -0.284632  -0.086506  -0.126700
C    -0.260859  -0.322182  1.342293
O    0.848718  -0.262568  1.972355
H    -1.286068  -0.154693  -0.564318
H    0.379014  -0.809640  -0.622193
H    0.134526  0.909987  -0.331108
N    -1.410215  -0.577238  1.986584
C    -1.554822  -0.744455  3.440954
C    -0.924604  -2.092171  3.882558
O    0.272978  -2.059420  4.354665
H    -2.253942  -0.621075  1.418435
H    -0.905077  0.006988  3.914210
C    -3.001180  -0.483513  3.914720
C    -3.381400  1.009537  3.977210
C    -4.853794  1.191659  4.399628
N    -5.284343  2.593670  4.388476
C    -5.902143  3.263203  5.387715
N    -6.678028  4.308828  5.089027
N    -5.740116  2.904456  6.666644
H    -3.106087  -0.931033  4.914650
H    -3.711246  -1.021178  3.269048
H    -3.230684  1.482826  2.993994
H    -2.725353  1.539884  4.683624
H    -5.026827  0.780676  5.402156
H    -5.512430  0.626445  3.721110
H    -5.346962  3.035436  3.475338
H    -7.054560  4.449846  4.157830
H    -6.960068  4.977090  5.799402
H    -6.330642  3.295320  7.393441
H    -4.950079  2.351339  6.971593
N    -1.528894  -3.260347  3.804976
C    -2.856553  -3.629136  3.297927
H    -0.963892  -4.035291  4.162171
H    -3.617721  -3.521424  4.080498
H    -2.815448  -4.680642  2.996882
H    -3.123550  -3.034503  2.419655
Pb    2.139989  -1.023176  3.645555
