37
Energy: -611340.375444 eV PBE+vdW (tier 2 basis)
C    -4.579550  1.950385  4.904817
C    -3.588145  1.251769  4.043437
O    -3.462410  1.599643  2.818244
H    -4.617604  1.564916  5.929063
H    -5.577242  1.882423  4.449068
H    -4.322134  3.020555  4.932107
N    -2.823668  0.288488  4.575090
C    -1.684424  -0.395581  3.931136
C    -2.230920  -1.466150  2.957178
O    -2.564101  -1.118815  1.770179
H    -2.996406  0.069101  5.555161
H    -1.179271  0.345926  3.293083
C    -0.696960  -0.859700  5.022530
C    0.673396  -1.343139  4.511493
C    1.622071  -1.651102  5.685533
N    2.933950  -2.093372  5.208304
C    4.092203  -1.997784  5.898932
N    4.094750  -1.615569  7.180521
N    5.246009  -2.261765  5.278246
H    -1.164119  -1.628775  5.662703
H    -0.543371  0.010590  5.679404
H    1.130078  -0.568092  3.877944
H    0.558230  -2.243316  3.886628
H    1.171896  -2.415887  6.341408
H    1.770123  -0.739969  6.283203
H    2.960172  -2.676426  4.377064
H    4.965602  -1.388258  7.650388
H    3.280195  -1.724465  7.772424
H    5.314166  -2.299226  4.267536
H    6.103976  -2.410045  5.799817
N    -2.369328  -2.713607  3.353738
C    -2.934535  -3.810632  2.555927
H    -2.092901  -2.936419  4.307855
H    -2.834044  -3.580505  1.492665
H    -3.994467  -3.947716  2.808120
H    -2.390815  -4.731118  2.791102
Pb    -3.240404  0.787634  0.754953
