37
Energy: -611339.928313 eV PBE+vdW (tier 2 basis)
C    -1.125563  -0.579474  -0.373065
C    -1.286785  -0.556656  1.107345
O    -0.824762  -1.530777  1.796409
H    -1.558069  0.290501  -0.877987
H    -1.597540  -1.494468  -0.761770
H    -0.057175  -0.651439  -0.622349
N    -1.924975  0.478621  1.667830
C    -2.351130  0.708621  3.070908
C    -1.130262  0.845059  4.000772
O    -0.506063  -0.185417  4.446110
H    -2.242647  1.185605  1.007697
H    -2.830367  1.694357  3.032341
C    -3.416847  -0.296442  3.566482
C    -4.229033  0.222529  4.769529
C    -5.362477  -0.748771  5.158073
N    -6.127465  -0.299774  6.325742
C    -7.464889  -0.116659  6.403321
N    -8.064294  -0.189528  7.594944
N    -8.193514  0.143790  5.311617
H    -2.955719  -1.266124  3.803682
H    -4.089711  -0.477709  2.715328
H    -4.663121  1.205768  4.530723
H    -3.572130  0.372810  5.641147
H    -4.948784  -1.743832  5.384762
H    -6.057157  -0.893358  4.320958
H    -5.645560  -0.331555  7.219786
H    -9.002375  0.171877  7.737298
H    -7.627637  -0.644973  8.389032
H    -9.207350  0.112748  5.345356
H    -7.778966  0.514819  4.466886
N    -0.725303  2.041541  4.380076
C    -1.262481  3.366267  4.026892
H    0.085102  2.034439  5.004086
H    -1.244934  3.522995  2.942017
H    -0.617210  4.119029  4.488543
H    -2.277795  3.498591  4.419800
Pb    0.250984  -2.141011  3.634680
