37
Energy: -611340.150637 eV PBE+vdW (tier 2 basis)
C    -1.648962  -0.970705  -0.489798
C    -1.067726  -0.727778  0.858304
O    0.160588  -0.393983  0.965102
H    -1.085630  -1.772322  -0.989083
H    -1.511536  -0.067396  -1.102487
H    -2.711337  -1.235115  -0.466987
N    -1.848681  -0.847618  1.943574
C    -1.435362  -0.558467  3.325185
C    -0.446874  -1.648077  3.820585
O    0.810067  -1.374105  3.768001
H    -2.814823  -1.126802  1.784828
H    -0.813642  0.348705  3.288417
C    -2.638312  -0.263271  4.247181
C    -3.244943  1.139910  4.045329
C    -4.418250  1.388497  5.011117
N    -4.983436  2.726886  4.821952
C    -5.672018  3.428043  5.749708
N    -6.036017  2.860800  6.905043
N    -5.963193  4.711228  5.514817
H    -2.286350  -0.362053  5.285166
H    -3.415061  -1.030541  4.115501
H    -3.597302  1.254477  3.007331
H    -2.475378  1.908686  4.211321
H    -4.061261  1.316013  6.048847
H    -5.194587  0.618213  4.864775
H    -5.017763  3.092241  3.874925
H    -6.409712  3.424454  7.662249
H    -6.140948  1.857826  6.997298
H    -6.649268  5.207611  6.074196
H    -5.496323  5.242531  4.788689
N    -0.806445  -2.827726  4.283993
C    -2.132229  -3.438135  4.442881
H    -0.016524  -3.406166  4.582243
H    -2.573537  -3.165608  5.409473
H    -2.002498  -4.524676  4.414448
H    -2.798456  -3.154050  3.623468
Pb    2.075729  -0.475530  2.139409
