37
Energy: -611338.319561 eV PBE+vdW (tier 2 basis)
C    -0.310287  1.074549  1.296934
C    -0.288752  -0.091113  2.219333
O    0.831761  -0.316555  2.885199
H    0.512846  1.000562  0.577569
H    -0.171914  1.986410  1.900682
H    -1.243913  1.161068  0.741464
N    -1.348184  -0.781607  2.634257
C    -2.463893  -1.200015  1.775679
C    -1.761947  -1.881967  0.541182
O    -0.622755  -1.508337  0.237631
H    -1.146673  -1.422740  3.402126
H    -2.977785  -1.972336  2.358902
C    -3.510434  -0.079664  1.433761
C    -3.796036  0.196982  -0.052832
C    -4.771751  1.356365  -0.310666
N    -6.161090  1.008772  0.022682
C    -7.174884  1.898369  0.112293
N    -8.387850  1.475809  0.485622
N    -6.967126  3.196113  -0.133129
H    -3.174713  0.847003  1.919239
H    -4.442600  -0.348399  1.947917
H    -4.173496  -0.703619  -0.560663
H    -2.867461  0.451073  -0.585564
H    -4.696198  1.634832  -1.374285
H    -4.487054  2.232906  0.290509
H    -6.439947  0.044714  -0.135456
H    -8.532788  0.559805  0.893373
H    -9.207854  2.063897  0.380597
H    -6.182302  3.513831  -0.688699
H    -7.685683  3.884008  0.068161
N    -2.435782  -2.835332  -0.113407
C    -3.692767  -3.484964  0.263756
H    -1.920989  -3.244493  -0.892399
H    -4.095166  -3.991968  -0.618614
H    -4.440165  -2.756305  0.598156
H    -3.539805  -4.236189  1.050643
Pb    2.913757  -0.434631  3.244552
