37
Energy: -611338.813553 eV PBE+vdW (tier 2 basis)
C    -0.244217  -1.200858  1.164064
C    0.230173  -0.042544  1.964083
O    1.394852  -0.126801  2.580038
H    -1.281166  -1.100870  0.833335
H    -0.157571  -2.118817  1.761335
H    0.396407  -1.320856  0.276557
N    -0.434907  1.080894  2.098518
C    -1.738698  1.483515  1.523979
C    -1.591443  3.001217  1.217468
O    -1.413565  3.769865  2.171805
H    -0.026411  1.804901  2.703335
H    -1.910753  0.905873  0.608066
C    -2.865285  1.259105  2.562827
C    -4.141554  2.093695  2.296539
C    -4.494346  2.969002  3.517409
N    -5.456097  4.028822  3.230496
C    -5.153487  5.323475  3.027173
N    -6.134421  6.234308  3.026244
N    -3.887788  5.711674  2.814348
H    -2.458154  1.523290  3.549846
H    -3.091101  0.185192  2.599509
H    -4.983365  1.433297  2.052955
H    -4.014461  2.744849  1.419920
H    -3.588016  3.432859  3.928429
H    -4.915190  2.349886  4.321371
H    -6.441964  3.784872  3.237936
H    -5.973549  7.186398  2.717833
H    -7.060292  6.021243  3.380062
H    -3.639128  6.690800  2.896675
H    -3.120875  5.053217  2.692077
N    -1.680026  3.361289  -0.069556
C    -1.593722  4.749612  -0.526815
H    -1.862785  2.648075  -0.769202
H    -1.081119  4.777036  -1.493705
H    -1.025720  5.330895  0.205278
H    -2.594737  5.185177  -0.645382
Pb    3.266421  -0.875265  3.273257
