37
Energy: -611340.125590 eV PBE+vdW (tier 2 basis)
C    -0.033114  0.580104  0.716194
C    -0.545286  0.110667  2.034407
O    -0.663500  -1.145550  2.240705
H    -0.680753  0.176193  -0.076187
H    0.966921  0.156967  0.543190
H    0.015653  1.670081  0.623403
N    -0.879981  1.026732  2.954403
C    -1.501266  0.866385  4.292551
C    -0.551371  0.151235  5.276178
O    -0.332807  -1.109205  5.212072
H    -0.702745  1.988441  2.673512
H    -1.609491  1.897645  4.655480
C    -2.904244  0.213451  4.264438
C    -4.015388  1.029630  3.564831
C    -4.751954  2.026132  4.478816
N    -5.843403  2.677969  3.750391
C    -7.015937  3.098345  4.273153
N    -8.016626  3.428068  3.451378
N    -7.190538  3.163979  5.598256
H    -3.190106  -0.000780  5.305746
H    -2.835317  -0.762441  3.767131
H    -4.756524  0.319560  3.173587
H    -3.605887  1.553667  2.686079
H    -4.060561  2.784233  4.885662
H    -5.190656  1.482444  5.327682
H    -5.680949  2.915133  2.776233
H    -8.025897  3.146679  2.477288
H    -8.820847  3.951525  3.782429
H    -8.113654  3.323413  5.989662
H    -6.409056  3.263370  6.234231
N    0.004402  0.871764  6.230073
C    0.904931  0.368203  7.275245
H    -0.188579  1.871634  6.244909
H    0.762054  -0.707749  7.397787
H    0.672624  0.884491  8.212662
H    1.947182  0.578675  7.000813
Pb    -0.281329  -2.774092  3.712609
