37
Energy: -611338.717926 eV PBE+vdW (tier 2 basis)
C    -1.005306  -0.789589  0.085002
C    -0.578149  0.045048  1.243737
O    0.686009  0.403927  1.362255
H    -0.772499  -0.269540  -0.856121
H    -2.077658  -1.010159  0.099573
H    -0.461258  -1.746341  0.095309
N    -1.448447  0.419269  2.144742
C    -1.284569  1.182521  3.389246
C    -2.411560  0.621399  4.289914
O    -3.452819  0.238660  3.718189
H    -2.427898  0.082808  2.076500
H    -0.286746  0.981782  3.800916
C    -1.440272  2.714961  3.167126
C    -2.769291  3.272513  2.610035
C    -3.881661  3.663242  3.613379
N    -4.951598  2.672158  3.739641
C    -6.238090  2.954436  4.010544
N    -7.153536  1.978901  3.915592
N    -6.621681  4.187385  4.361201
H    -0.630449  3.010785  2.484847
H    -1.203064  3.197622  4.127273
H    -3.192204  2.626050  1.827155
H    -2.498465  4.201110  2.090517
H    -4.339806  4.593526  3.252428
H    -3.440442  3.883685  4.600628
H    -4.678658  1.684292  3.712317
H    -8.096757  2.103529  4.266213
H    -6.954306  1.113420  3.428980
H    -7.604096  4.436984  4.402503
H    -5.963548  4.882190  4.690550
N    -2.209651  0.632451  5.606099
C    -3.183673  0.157861  6.593470
H    -1.312171  0.956065  5.957734
H    -3.588567  1.001298  7.166683
H    -2.692044  -0.536540  7.283727
H    -3.991965  -0.360863  6.071873
Pb    2.690306  0.214093  0.608558
