37
Energy: -611338.787872 eV PBE+vdW (tier 2 basis)
C    -0.759253  -1.713594  0.593629
C    -0.274337  -0.440019  1.185290
O    1.038040  -0.262149  1.283517
H    -0.324846  -2.562953  1.139235
H    -0.417707  -1.788445  -0.449474
H    -1.849173  -1.796980  0.613552
N    -1.034847  0.522360  1.615969
C    -2.492714  0.738094  1.551017
C    -2.516548  2.305161  1.455506
O    -1.558397  2.887928  1.991627
H    -0.644216  1.442587  1.972927
H    -2.908078  0.251516  0.660978
C    -3.167366  0.230004  2.859531
C    -4.647637  0.626576  3.011246
C    -5.267286  0.341980  4.391228
N    -5.729600  -1.041006  4.564936
C    -6.721736  -1.420032  5.396260
N    -7.221868  -2.659265  5.304889
N    -7.218296  -0.567563  6.298081
H    -2.595986  0.645044  3.703820
H    -3.037287  -0.863341  2.894136
H    -5.270361  0.166982  2.229388
H    -4.734403  1.713150  2.876833
H    -6.146867  0.990352  4.501689
H    -4.552459  0.612025  5.186513
H    -5.212802  -1.788585  4.115267
H    -7.822237  -3.038172  6.029494
H    -7.103617  -3.220840  4.470107
H    -8.076952  -0.778170  6.796175
H    -6.706670  0.251946  6.601522
N    -3.512748  2.944354  0.836180
C    -4.641209  2.426340  0.065514
H    -3.407392  3.960052  0.858011
H    -5.591174  2.694276  0.545157
H    -4.588785  1.338454  -0.029411
H    -4.625766  2.860214  -0.941572
Pb    3.130682  -0.040413  1.164531
