37
Energy: -611338.829133 eV PBE+vdW (tier 2 basis)
C    -2.053730  -1.683259  0.937675
C    -0.700054  -1.172907  1.281210
O    0.276826  -2.045383  1.474315
H    -2.347625  -2.461339  1.655925
H    -2.028072  -2.145944  -0.061475
H    -2.821670  -0.905633  0.937476
N    -0.405150  0.095629  1.399930
C    -1.250562  1.269253  1.104742
C    -0.214869  2.362594  0.734250
O    0.887912  2.323888  1.315937
H    0.562505  0.400380  1.621021
H    -1.885306  1.017178  0.246364
C    -2.156607  1.731137  2.293842
C    -1.624147  2.822080  3.237774
C    -0.548201  2.393211  4.251134
N    -0.062582  3.512280  5.056352
C    1.014337  4.274210  4.788314
N    1.400872  5.194585  5.680442
N    1.706415  4.117373  3.652921
H    -2.466532  0.841211  2.862858
H    -3.074951  2.119368  1.832628
H    -2.490285  3.202627  3.798821
H    -1.260975  3.680687  2.653397
H    0.317121  1.927537  3.762077
H    -0.956439  1.648591  4.948607
H    -0.625911  3.785474  5.855813
H    2.111191  5.882882  5.458674
H    1.004136  5.237281  6.612214
H    2.596801  4.586807  3.535398
H    1.391144  3.528113  2.881885
N    -0.599627  3.281753  -0.147956
C    0.229115  4.411406  -0.578261
H    -1.525257  3.202388  -0.561763
H    0.166788  4.508556  -1.667401
H    1.266011  4.222390  -0.288865
H    -0.123359  5.343179  -0.117723
Pb    1.305146  -3.906791  1.401258
