37
Energy: -611338.431726 eV PBE+vdW (tier 2 basis)
C    2.483778  1.402897  1.111184
C    1.433458  1.212917  2.140647
O    1.660634  1.669288  3.320801
H    2.647684  2.479843  0.959460
H    2.247968  0.927934  0.153825
H    3.432347  1.001650  1.497846
N    0.288546  0.591855  1.828699
C    -0.779497  0.073217  2.720864
C    -1.437441  1.175148  3.569337
O    -2.761541  1.207618  3.567297
H    0.187370  0.349006  0.846667
H    -1.556610  -0.296947  2.041310
C    -0.286193  -1.074708  3.647614
C    0.353093  -2.304176  2.971184
C    -0.625886  -3.363667  2.438924
N    0.120055  -4.525745  1.942550
C    -0.294321  -5.808801  1.949597
N    -1.578785  -6.110072  2.178393
N    0.594086  -6.786812  1.746681
H    -1.143690  -1.384035  4.265103
H    0.446845  -0.654594  4.349801
H    0.992842  -2.785094  3.724434
H    1.030749  -1.982075  2.164054
H    -1.267572  -2.955268  1.639564
H    -1.278780  -3.704369  3.255511
H    1.026535  -4.352126  1.518617
H    -1.862445  -7.070927  2.340289
H    -2.319399  -5.443753  1.999570
H    1.591816  -6.631284  1.837150
H    0.297937  -7.730516  1.519884
N    -0.688397  1.970446  4.259783
C    -1.266037  2.995794  5.076867
H    0.760624  1.783967  3.875758
H    -0.496372  3.592218  5.585256
H    -1.893476  2.571306  5.901297
H    -1.845458  3.739705  4.469469
Pb    -4.175589  2.536262  4.533538
