37
Energy: -611340.173962 eV PBE+vdW (tier 2 basis)
C    -1.895276  2.004059  0.524584
C    -1.967511  0.727140  1.284262
O    -2.607170  -0.264280  0.790058
H    -1.327655  2.787230  1.037837
H    -2.911785  2.365343  0.314253
H    -1.429127  1.801509  -0.451949
N    -1.336773  0.629946  2.463279
C    -1.163777  -0.593087  3.270157
C    -2.477797  -0.885612  4.032711
O    -3.410862  -1.532038  3.440097
H    -0.857717  1.469151  2.785966
H    -1.052821  -1.430799  2.564380
C    0.141422  -0.493698  4.091633
C    0.526323  -1.800511  4.819196
C    2.028568  -1.997258  5.099116
N    2.557730  -1.191875  6.205272
C    3.597757  -1.559018  6.992621
N    4.316708  -2.650138  6.716625
N    3.886851  -0.826528  8.073335
H    0.091445  0.361145  4.788561
H    0.927882  -0.238730  3.364029
H    0.243795  -2.652929  4.182488
H    -0.037758  -1.922344  5.755129
H    2.606062  -1.814807  4.176949
H    2.167880  -3.051156  5.373349
H    2.312501  -0.207953  6.245705
H    4.970281  -3.026693  7.396560
H    4.357227  -3.047361  5.785716
H    3.220026  -0.177539  8.474451
H    4.764959  -0.943348  8.569003
N    -2.638559  -0.459536  5.267682
C    -3.852076  -0.621810  6.080619
H    -1.867373  0.050782  5.692324
H    -4.449335  0.298976  6.047588
H    -3.556875  -0.819647  7.116079
H    -4.440077  -1.458589  5.696717
Pb    -4.042096  -1.895992  1.296623
