37
Energy: -611337.836014 eV PBE+vdW (tier 2 basis)
C    -2.456576  2.734271  2.208601
C    -1.756083  1.907845  3.219228
O    -1.678252  2.313438  4.434701
H    -1.963686  3.722106  2.210707
H    -3.497839  2.926026  2.503587
H    -2.408181  2.329240  1.193917
N    -1.148374  0.741529  2.899408
C    -1.814384  -0.327422  2.151386
C    -2.702047  -1.083856  3.191336
O    -2.772143  -0.685397  4.408531
H    -0.524322  0.406834  3.634668
H    -2.520046  0.153635  1.456821
C    -0.838635  -1.169573  1.292489
C    0.265117  -1.936707  2.040166
C    1.432254  -2.413796  1.155685
N    1.067379  -3.495098  0.230635
C    1.794547  -3.837157  -0.862618
N    2.922436  -3.189151  -1.166558
N    1.349666  -4.811455  -1.662148
H    -0.385303  -0.457475  0.586942
H    -1.429699  -1.854837  0.666344
H    -0.152798  -2.788006  2.601294
H    0.742303  -1.289243  2.792207
H    2.252095  -2.738010  1.816755
H    1.797388  -1.566770  0.557202
H    0.493760  -4.242873  0.611897
H    3.381882  -3.338841  -2.059725
H    3.452874  -2.680232  -0.469704
H    0.403426  -5.168013  -1.597791
H    1.945325  -5.225668  -2.372002
N    -3.412980  -2.113871  2.780711
C    -4.363805  -2.884975  3.594736
H    -3.351115  -2.363613  1.795302
H    -5.373603  -2.466584  3.489090
H    -4.058582  -2.857771  4.643410
H    -4.368676  -3.919828  3.238709
Pb    -2.516053  0.939761  6.024659
