37
Energy: -611340.159531 eV PBE+vdW (tier 2 basis)
C    -0.955386  -0.246992  0.407784
C    -0.593917  -0.262250  1.851306
O    0.536585  0.208794  2.219948
H    -0.187699  -0.778046  -0.171923
H    -0.940625  0.797173  0.058933
H    -1.938196  -0.681642  0.197854
N    -1.473812  -0.743337  2.741004
C    -1.372482  -0.669192  4.207996
C    -0.485529  -1.821726  4.734397
O    0.772223  -1.788174  4.493258
H    -2.339173  -1.114449  2.355913
H    -0.777828  0.231695  4.428550
C    -2.752069  -0.423860  4.870488
C    -3.969027  -1.294137  4.485807
C    -5.206745  -0.848114  5.291232
N    -6.406493  -1.592211  4.903473
C    -7.678962  -1.160494  5.068476
N    -8.678344  -1.851992  4.513559
N    -7.938130  -0.040699  5.751150
H    -3.002044  0.624176  4.648956
H    -2.592660  -0.454290  5.959632
H    -3.789891  -2.368252  4.661694
H    -4.207384  -1.192344  3.415272
H    -5.393990  0.218424  5.099489
H    -5.007084  -0.965799  6.369941
H    -6.300910  -2.578970  4.686825
H    -8.515441  -2.542342  3.789187
H    -9.644168  -1.690643  4.781274
H    -8.866916  0.369667  5.737673
H    -7.296246  0.325687  6.443740
N    -0.999624  -2.807427  5.439041
C    -0.257383  -3.938249  6.012143
H    -2.001003  -2.784418  5.612847
H    -0.491328  -4.853829  5.453917
H    -0.559566  -4.065613  7.057669
H    0.814214  -3.737816  5.956644
Pb    2.268032  -0.424310  3.481854
