37
Energy: -611340.054017 eV PBE+vdW (tier 2 basis)
C    -1.479722  -1.045861  -0.453260
C    -1.486596  -0.780489  1.012188
O    -0.866031  -1.584274  1.790711
H    -0.441117  -1.087000  -0.811479
H    -2.036689  -0.306744  -1.038428
H    -1.909115  -2.043681  -0.629729
N    -2.155864  0.285982  1.468341
C    -2.449548  0.721373  2.856146
C    -1.152753  1.078656  3.607240
O    -0.429572  0.175615  4.165759
H    -2.608162  0.841932  0.745076
H    -3.001977  1.658870  2.718050
C    -3.384057  -0.246956  3.616889
C    -4.063884  0.396743  4.841599
C    -5.173672  -0.503542  5.415528
N    -5.828524  0.128149  6.563488
C    -7.105434  -0.077801  6.955563
N    -7.636878  0.714159  7.891825
N    -7.845831  -1.042967  6.399099
H    -2.846168  -1.160411  3.908383
H    -4.150745  -0.559293  2.892538
H    -4.511427  1.360802  4.554796
H    -3.318169  0.606647  5.625523
H    -4.758210  -1.484604  5.701358
H    -5.937794  -0.673374  4.643586
H    -5.241092  0.638608  7.216213
H    -8.500700  0.467179  8.364039
H    -7.214894  1.599836  8.147140
H    -8.844865  -1.092667  6.572770
H    -7.425228  -1.851046  5.957181
N    -0.784067  2.340440  3.713282
C    -1.428654  3.550513  3.175680
H    0.082299  2.484839  4.237431
H    -1.509352  3.501897  2.083418
H    -0.795496  4.404666  3.431876
H    -2.415052  3.708044  3.628319
Pb    0.409039  -1.828243  3.586862
