37
Energy: -611340.297852 eV PBE+vdW (tier 2 basis)
C    -1.347069  -0.071222  0.440535
C    -0.778149  0.043223  1.811339
O    0.119950  0.922522  2.048333
H    -1.775817  0.902228  0.158260
H    -2.115673  -0.845681  0.348204
H    -0.539190  -0.272748  -0.277125
N    -1.238521  -0.761659  2.778814
C    -0.891556  -0.714499  4.211929
C    0.482757  -1.397861  4.422076
O    1.551879  -0.748319  4.140512
H    -1.926472  -1.457253  2.495421
H    -0.727588  0.343715  4.468643
C    -2.044862  -1.263894  5.075974
C    -3.311120  -0.382713  5.096061
C    -4.421624  -1.017010  5.959275
N    -5.678013  -0.261583  5.920913
C    -6.396589  0.178250  6.978694
N    -7.710440  0.373703  6.837286
N    -5.813287  0.430871  8.156146
H    -1.664272  -1.366807  6.103501
H    -2.313466  -2.280396  4.737015
H    -3.694252  -0.237767  4.073979
H    -3.067122  0.618289  5.482045
H    -4.101438  -1.110064  7.004641
H    -4.629362  -2.041642  5.611956
H    -6.181352  -0.274350  5.038119
H    -8.238332  0.921249  7.509829
H    -8.239560  -0.055162  6.085639
H    -6.372701  0.594492  8.986876
H    -4.820316  0.606604  8.235194
N    0.551080  -2.629852  4.877447
C    1.780631  -3.402963  5.099416
H    -0.324418  -3.100543  5.098407
H    2.640688  -2.730480  5.110834
H    1.897825  -4.146304  4.300004
H    1.698836  -3.921744  6.060737
Pb    2.138917  1.100368  2.997069
