37
Energy: -611339.003379 eV PBE+vdW (tier 2 basis)
C    -0.534788  0.158678  -0.424972
C    -0.248999  0.218376  1.033063
O    0.934305  0.542905  1.414009
H    0.127773  0.873797  -0.929420
H    -1.575585  0.383402  -0.667796
H    -0.278872  -0.838030  -0.820953
N    -1.173737  -0.017921  1.990538
C    -2.063040  -1.193859  2.074900
C    -1.134944  -2.415894  2.347972
O    0.133695  -2.317481  2.153951
H    -0.847158  0.286294  2.909928
H    -2.653023  -1.030704  2.990335
C    -3.065852  -1.398251  0.915743
C    -4.089737  -0.253360  0.795237
C    -5.170751  -0.554007  -0.257750
N    -6.159040  0.526743  -0.308467
C    -6.989256  0.785167  -1.342680
N    -7.717296  1.905801  -1.332693
N    -7.062262  -0.051202  -2.384557
H    -3.600127  -2.336643  1.118094
H    -2.536857  -1.565122  -0.031540
H    -3.590994  0.694692  0.545263
H    -4.573128  -0.102703  1.774509
H    -5.661208  -1.514070  -0.022360
H    -4.712675  -0.644803  -1.253805
H    -6.370407  1.006736  0.561581
H    -8.496336  2.035057  -1.970208
H    -7.515516  2.670501  -0.698399
H    -7.567948  0.212652  -3.224372
H    -6.807601  -1.027838  -2.302168
N    -1.620314  -3.554994  2.800317
C    -2.989441  -3.915743  3.185148
H    -0.920194  -4.291717  2.917775
H    -3.473405  -4.490579  2.384870
H    -3.580793  -3.027094  3.423633
H    -2.934928  -4.545320  4.080364
Pb    2.111958  -1.159429  2.312508
