37
Energy: -611338.917441 eV PBE+vdW (tier 2 basis)
C    -0.968077  -0.060776  -0.656494
C    -0.323209  -0.164478  0.679876
O    0.918832  0.144216  0.789534
H    -0.436565  0.705816  -1.234068
H    -2.029333  0.189899  -0.595549
H    -0.853914  -1.010081  -1.205280
N    -0.979718  -0.544864  1.796766
C    -1.835436  -1.740995  1.932273
C    -0.895517  -2.968125  1.733428
O    0.280121  -2.805897  1.235404
H    -0.435851  -0.353076  2.640389
H    -2.132365  -1.744574  2.992966
C    -3.148608  -1.762271  1.109577
C    -4.077303  -0.587347  1.483423
C    -5.573005  -0.769671  1.179529
N    -5.910567  -0.647494  -0.246588
C    -7.128772  -0.955109  -0.758378
N    -7.338754  -0.820230  -2.071610
N    -8.100880  -1.425432  0.027562
H    -3.653927  -2.707567  1.349019
H    -2.942536  -1.806733  0.032994
H    -3.719881  0.356259  1.041807
H    -4.023719  -0.424397  2.570662
H    -6.120777  -0.012272  1.764180
H    -5.902873  -1.761242  1.523158
H    -5.390201  0.046948  -0.775497
H    -8.273046  -0.866875  -2.465286
H    -6.577209  -0.676205  -2.723891
H    -8.962661  -1.785463  -0.370942
H    -8.098785  -1.277175  1.029560
N    -1.267602  -4.179936  2.096143
C    -2.490198  -4.635030  2.768244
H    -0.575413  -4.906765  1.899071
H    -3.200041  -5.045966  2.038877
H    -2.954872  -3.823065  3.335311
H    -2.213481  -5.430229  3.469260
Pb    2.262153  -1.640165  1.104423
