37
Energy: -611339.581766 eV PBE+vdW (tier 2 basis)
C    -1.173362  -0.404945  -0.262065
C    -0.723086  -0.469604  1.154713
O    0.524454  -0.423477  1.422947
H    -0.718950  -1.231736  -0.826686
H    -0.792336  0.524082  -0.711656
H    -2.261666  -0.443052  -0.376765
N    -1.638519  -0.557929  2.133220
C    -1.343024  -0.535167  3.573127
C    -0.667465  -1.865850  3.999013
O    0.616007  -1.873082  4.093571
H    -2.614378  -0.597222  1.846577
H    -0.543300  0.206791  3.717978
C    -2.547621  -0.067664  4.421496
C    -2.776387  1.456683  4.350701
C    -3.705334  2.029096  5.442364
N    -5.145797  1.808157  5.253363
C    -6.071153  2.778990  5.064909
N    -5.736041  3.951511  4.517715
N    -7.341054  2.550701  5.413309
H    -2.333087  -0.351237  5.463587
H    -3.457341  -0.614343  4.133862
H    -3.144816  1.752081  3.356640
H    -1.808452  1.964112  4.486757
H    -3.538493  3.110536  5.519475
H    -3.429230  1.618690  6.425335
H    -5.521176  0.921520  5.575015
H    -6.372659  4.741499  4.545706
H    -4.866443  4.085249  4.018606
H    -8.091168  3.159654  5.101325
H    -7.592534  1.829110  6.080098
N    -1.315653  -2.981360  4.266323
C    -2.748660  -3.292592  4.226638
H    -0.704228  -3.751169  4.551156
H    -3.224991  -3.053794  5.185595
H    -2.850896  -4.367532  4.046664
H    -3.244983  -2.762475  3.408941
Pb    2.227819  -1.058234  2.748447
