37
Energy: -611340.290684 eV PBE+vdW (tier 2 basis)
C    -0.613010  0.247596  -0.616102
C    -1.063613  1.187839  0.445044
O    -1.282543  2.413671  0.148798
H    0.311045  0.626524  -1.075175
H    -1.372257  0.232162  -1.413121
H    -0.450010  -0.773532  -0.255705
N    -1.258082  0.727446  1.688032
C    -1.845419  1.464692  2.825025
C    -0.772764  2.413655  3.410276
O    -0.607027  3.570207  2.885227
H    -1.051866  -0.259243  1.837992
H    -2.625040  2.125628  2.415785
C    -2.506676  0.459183  3.790886
C    -3.400778  1.080316  4.880852
C    -4.040541  -0.012150  5.762697
N    -4.852648  0.539045  6.852656
C    -6.109479  0.173154  7.195518
N    -6.513665  0.339985  8.457682
N    -6.954453  -0.336940  6.292508
H    -1.741807  -0.194232  4.247148
H    -3.117726  -0.208830  3.163937
H    -4.192701  1.687766  4.417815
H    -2.817463  1.761883  5.519896
H    -3.256983  -0.649393  6.203446
H    -4.669294  -0.679032  5.159922
H    -4.349341  1.054340  7.569619
H    -5.856764  0.448994  9.222777
H    -7.498186  0.313092  8.704630
H    -7.827855  -0.764155  6.583379
H    -6.826394  -0.196829  5.298899
N    -0.026651  2.025441  4.422796
C    1.067157  2.797980  5.028348
H    -0.196480  1.095687  4.801063
H    0.913654  3.862552  4.836640
H    2.028581  2.478290  4.604965
H    1.073369  2.610576  6.106791
Pb    -0.948292  4.501625  0.852059
