37
Energy: -611338.682353 eV PBE+vdW (tier 2 basis)
C    -1.089388  -1.551176  0.348533
C    -0.774571  -0.256116  1.018261
O    0.145120  0.537019  0.517584
H    -0.188792  -2.183502  0.321878
H    -1.415190  -1.365676  -0.686154
H    -1.879755  -2.113352  0.857314
N    -1.415627  0.091523  2.110798
C    -1.296023  1.286405  2.968297
C    -1.385814  0.734046  4.423365
O    -2.455171  0.204004  4.761414
H    -2.128774  -0.564575  2.447616
H    -0.336234  1.773891  2.756954
C    -2.499355  2.225624  2.712288
C    -2.663192  3.338022  3.779228
C    -4.092341  3.498537  4.308593
N    -4.510831  2.334489  5.095086
C    -5.632890  2.266782  5.833077
N    -5.864997  1.169883  6.568164
N    -6.509649  3.275185  5.843909
H    -3.399452  1.594809  2.684170
H    -2.397802  2.661545  1.709856
H    -2.365356  4.304992  3.355562
H    -1.992111  3.174255  4.635908
H    -4.788924  3.658057  3.467281
H    -4.124566  4.397124  4.944311
H    -3.913623  1.501614  5.065601
H    -6.724937  1.052211  7.091955
H    -5.172987  0.435180  6.650649
H    -7.320729  3.263423  6.452537
H    -6.408455  4.081520  5.241171
N    -0.306426  0.871483  5.198399
C    -0.241788  0.421295  6.592191
H    0.506192  1.352055  4.824367
H    0.734610  -0.038920  6.776788
H    -1.031635  -0.314849  6.762990
H    -0.372395  1.268199  7.277975
Pb    1.573609  0.770449  -1.091597
