37
Energy: -611337.833275 eV PBE+vdW (tier 2 basis)
C    0.038843  -0.449966  0.317806
C    -0.182904  -0.302467  1.777542
O    0.876746  -0.302843  2.564123
H    -0.882298  -0.510282  -0.260582
H    0.633143  -1.357944  0.139106
H    0.626970  0.404410  -0.049717
N    -1.347154  -0.180249  2.385383
C    -2.778194  -0.047255  1.975149
C    -3.669597  -1.244191  2.451220
O    -4.745829  -0.931672  2.966402
H    -1.252053  -0.107882  3.402117
H    -3.124487  0.763686  2.630098
C    -3.094161  0.381204  0.528697
C    -4.526737  0.959556  0.386394
C    -5.606060  -0.058216  -0.039444
N    -6.948872  0.515403  -0.041882
C    -7.851486  0.428397  0.955802
N    -9.102447  0.853579  0.737868
N    -7.514291  -0.072631  2.147354
H    -2.955912  -0.447346  -0.181067
H    -2.385582  1.173171  0.249447
H    -4.489901  1.754467  -0.370588
H    -4.828602  1.450214  1.322951
H    -5.616652  -0.947462  0.602398
H    -5.405931  -0.414522  -1.059329
H    -7.229662  1.038806  -0.865198
H    -9.771124  0.939394  1.494894
H    -9.444312  1.053989  -0.194971
H    -6.552433  -0.287540  2.408482
H    -8.230808  -0.280909  2.833382
N    -3.300205  -2.523836  2.258939
C    -2.162303  -3.084065  1.536975
H    -3.977922  -3.189097  2.630465
H    -2.399867  -4.121793  1.282929
H    -1.248225  -3.094161  2.147166
H    -1.983739  -2.556929  0.592935
Pb    2.898671  -0.143673  3.260451
