37
Energy: -611340.081516 eV PBE+vdW (tier 2 basis)
C    -1.201638  -2.879134  -0.204712
C    -0.887890  -1.967522  0.927213
O    0.287417  -1.475955  1.034825
H    -0.503913  -3.728590  -0.194358
H    -1.022847  -2.340857  -1.148040
H    -2.231291  -3.251545  -0.193223
N    -1.848577  -1.657767  1.811154
C    -1.720463  -0.671492  2.895710
C    -0.784050  -1.228684  3.998426
O    0.433096  -0.812177  4.007755
H    -2.766419  -2.069967  1.651604
H    -1.158305  0.182535  2.488560
C    -3.114322  -0.150251  3.307694
C    -3.099545  0.968439  4.365192
C    -4.516335  1.526636  4.594410
N    -4.509658  2.608388  5.581839
C    -5.449069  3.574348  5.690379
N    -6.575430  3.516072  4.971976
N    -5.229606  4.610502  6.505738
H    -3.754386  -0.978407  3.642078
H    -3.568226  0.235987  2.381504
H    -2.440806  1.788570  4.041945
H    -2.697619  0.587832  5.318633
H    -5.190679  0.714207  4.915245
H    -4.905117  1.934031  3.649742
H    -3.855334  2.536805  6.355210
H    -7.203428  4.312695  4.928790
H    -6.933407  2.641438  4.608057
H    -5.980868  5.237195  6.775886
H    -4.305340  4.826521  6.861493
N    -1.150833  -2.110638  4.907725
C    -2.435000  -2.790138  5.118515
H    -0.401368  -2.367801  5.554995
H    -2.907713  -3.048033  4.166539
H    -3.109727  -2.175986  5.727835
H    -2.233969  -3.720112  5.659571
Pb    1.930665  -0.664146  2.317095
