37
Energy: -611338.108691 eV PBE+vdW (tier 2 basis)
C    -1.060654  -0.652531  -0.832324
C    -1.745926  -0.507108  0.484874
O    -2.670541  -1.336284  0.800790
H    -0.313537  0.122733  -1.031822
H    -1.801089  -0.662500  -1.643443
H    -0.567064  -1.636819  -0.851257
N    -1.349231  0.480548  1.297015
C    -1.618287  0.788018  2.715186
C    -2.992111  0.365883  3.225675
O    -4.045905  0.454063  2.494423
H    -0.590771  1.040527  0.912764
H    -0.858460  0.254818  3.308843
C    -1.459944  2.318898  2.970194
C    -0.022379  2.855695  2.825006
C    0.064883  4.336934  3.240401
N    1.440903  4.828921  3.140685
C    1.804643  6.122492  2.991673
N    3.083569  6.415249  2.738092
N    0.896107  7.101345  3.064606
H    -1.808287  2.514487  3.995007
H    -2.151926  2.852129  2.301466
H    0.342584  2.770444  1.788916
H    0.656170  2.259706  3.456620
H    -0.313798  4.454458  4.269953
H    -0.564712  4.946470  2.576287
H    2.185246  4.187015  3.398007
H    3.745124  5.709709  2.434349
H    3.436684  7.362194  2.831306
H    0.021743  6.981974  3.561170
H    1.137116  8.051233  2.799511
N    -3.107760  -0.002212  4.491057
C    -2.072874  -0.153064  5.524709
H    -4.071658  -0.136155  4.802554
H    -2.502716  -0.732420  6.346949
H    -1.760304  0.823744  5.914851
H    -1.206717  -0.700849  5.137484
Pb    -4.870604  -1.107337  1.089791
