37
Energy: -611340.039093 eV PBE+vdW (tier 2 basis)
C    1.331816  -2.674233  4.279267
C    0.559205  -1.445606  3.951361
O    0.980218  -0.663296  3.030149
H    1.406859  -3.291923  3.371111
H    0.887028  -3.269745  5.083397
H    2.360571  -2.400076  4.552721
N    -0.580715  -1.195103  4.609670
C    -1.554392  -0.120409  4.331528
C    -1.006962  1.211931  4.902126
O    -0.167180  1.890165  4.210983
H    -0.831591  -1.860162  5.339933
H    -1.580509  0.021428  3.239706
C    -2.950600  -0.558342  4.822655
C    -4.116421  0.377135  4.414918
C    -4.946612  -0.077925  3.195738
N    -5.869948  -1.189133  3.455660
C    -7.126226  -1.083024  3.949440
N    -7.834322  -2.192330  4.175277
N    -7.646865  0.113108  4.247736
H    -2.932946  -0.690237  5.916928
H    -3.124686  -1.570894  4.427882
H    -3.740853  1.387878  4.193327
H    -4.791884  0.502242  5.271743
H    -4.297563  -0.407376  2.373484
H    -5.499032  0.781598  2.788554
H    -5.643627  -2.082429  3.032019
H    -7.426174  -3.116943  4.096569
H    -8.825017  -2.154142  4.393136
H    -8.572463  0.184586  4.658827
H    -7.272261  0.966052  3.851143
N    -1.390630  1.631664  6.088651
C    -0.915167  2.843426  6.770523
H    -2.064955  1.059567  6.593357
H    -1.766742  3.326499  7.261177
H    -0.470514  3.523935  6.041236
H    -0.171270  2.572649  7.531385
Pb    1.350429  1.491468  2.586681
