37
Energy: -611339.717603 eV PBE+vdW (tier 2 basis)
C    0.128211  0.018212  0.033002
C    -0.249601  -0.276633  1.443518
O    0.575099  -0.914034  2.185572
H    -0.642089  0.558646  -0.526946
H    0.346607  -0.932148  -0.476939
H    1.061884  0.598727  0.019508
N    -1.449475  0.125311  1.883224
C    -2.141507  -0.128403  3.171501
C    -1.401259  0.550659  4.346497
O    -0.344298  0.046207  4.863126
H    -2.000876  0.633728  1.194848
H    -3.099269  0.398841  3.058463
C    -2.450724  -1.623501  3.415609
C    -3.451171  -1.880227  4.567135
C    -4.943154  -1.938318  4.196817
N    -5.293559  -3.214516  3.557362
C    -6.508831  -3.504590  3.033180
N    -6.698563  -4.684881  2.436865
N    -7.498596  -2.606374  3.071790
H    -1.515969  -2.163024  3.617029
H    -2.832408  -2.035345  2.470248
H    -3.342661  -1.114674  5.350033
H    -3.181037  -2.819414  5.072046
H    -5.216489  -1.122314  3.509362
H    -5.524865  -1.803180  5.123375
H    -4.729901  -4.019145  3.817690
H    -5.926473  -5.300347  2.208166
H    -7.628995  -5.015618  2.201681
H    -8.368606  -2.773505  2.575286
H    -7.512271  -1.859167  3.755588
N    -1.914303  1.663211  4.835188
C    -1.361989  2.451707  5.944423
H    -2.754981  2.031322  4.393299
H    -0.783664  3.297125  5.548222
H    -0.721686  1.818906  6.563193
H    -2.192462  2.840441  6.543069
Pb    1.501784  -1.051339  4.197292
