37
Energy: -611340.066504 eV PBE+vdW (tier 2 basis)
C    0.537704  0.459293  0.301642
C    -0.116384  -0.158970  1.486699
O    0.563075  -0.357490  2.549918
H    0.940742  1.440715  0.593282
H    -0.135089  0.584310  -0.553234
H    1.399802  -0.152765  0.000226
N    -1.417581  -0.481850  1.425754
C    -2.219410  -1.011432  2.539676
C    -1.803847  -2.476443  2.837908
O    -0.967092  -2.670375  3.797366
H    -1.891872  -0.306831  0.542088
H    -1.904713  -0.469184  3.443940
C    -3.729359  -0.758268  2.339945
C    -4.160422  0.697755  2.608137
C    -5.666160  0.893513  2.337503
N    -6.093072  2.289938  2.478570
C    -7.148760  2.751927  3.186425
N    -7.721564  3.903111  2.823936
N    -7.618248  2.085109  4.247027
H    -4.269232  -1.433304  3.021122
H    -4.029639  -1.053391  1.323728
H    -3.589900  1.387529  1.966077
H    -3.932191  0.977242  3.647566
H    -6.268254  0.272557  3.012379
H    -5.911897  0.560768  1.316352
H    -5.722357  2.941280  1.792168
H    -8.342460  4.404813  3.451219
H    -7.599880  4.294676  1.896270
H    -8.503838  2.342525  4.670359
H    -7.056892  1.406712  4.744836
N    -2.244129  -3.527842  2.177330
C    -3.163160  -3.637694  1.037214
H    -1.873135  -4.414102  2.529748
H    -3.019544  -2.813321  0.332950
H    -4.205281  -3.675074  1.377657
H    -2.934412  -4.573107  0.516976
Pb    0.956453  -1.642335  4.350238
