37
Energy: -611340.247932 eV PBE+vdW (tier 2 basis)
C    -1.085317  0.187729  -0.363699
C    -1.540749  -0.431171  0.910355
O    -2.458055  -1.322496  0.884815
H    -0.298154  0.937007  -0.229458
H    -1.942865  0.645528  -0.876816
H    -0.716445  -0.609834  -1.026577
N    -0.961321  -0.061815  2.061132
C    -1.180482  -0.663799  3.390419
C    -2.524374  -0.144390  3.958892
O    -3.610820  -0.742027  3.637599
H    -0.248032  0.662544  1.993434
H    -1.333838  -1.742925  3.234829
C    0.076536  -0.468851  4.265659
C    0.052179  -1.272358  5.579269
C    1.260082  -1.061219  6.508106
N    2.486216  -1.701837  6.012579
C    3.725084  -1.455242  6.506166
N    3.902824  -0.582744  7.502396
N    4.779447  -2.065535  5.956946
H    0.238062  0.603107  4.475957
H    0.937198  -0.778036  3.653593
H    -0.056883  -2.347187  5.361071
H    -0.833432  -1.005183  6.174531
H    0.993934  -1.461799  7.499694
H    1.461157  0.014192  6.623507
H    2.373864  -2.610258  5.569910
H    4.836294  -0.289871  7.774669
H    3.153734  -0.337051  8.138488
H    4.713437  -2.560402  5.075155
H    5.688094  -2.059546  6.409300
N    -2.549040  0.909343  4.746950
C    -3.755570  1.536570  5.305157
H    -1.658820  1.348382  4.972872
H    -4.565344  0.804157  5.343284
H    -4.054318  2.390354  4.682612
H    -3.528790  1.893430  6.314871
Pb    -4.332493  -1.990767  1.897336
