37
Energy: -611338.073100 eV PBE+vdW (tier 2 basis)
C    2.136169  2.297943  0.221025
C    1.423697  1.632574  1.366429
O    1.951478  1.432362  2.463493
H    2.878570  1.597005  -0.188212
H    2.687646  3.166018  0.600796
H    1.477920  2.613777  -0.596131
N    0.120049  1.242795  1.101700
C    -0.774955  0.415698  1.903731
C    -1.953478  1.231113  2.476605
O    -3.166640  0.754406  2.288192
H    -0.191576  1.412227  0.149476
H    -1.254293  -0.286430  1.204529
C    -0.144453  -0.426946  3.047920
C    0.967569  -1.385473  2.578263
C    1.950377  -1.675153  3.734284
N    3.213162  -2.264085  3.301109
C    4.376491  -1.597482  3.152262
N    4.399580  -0.261902  3.086407
N    5.517501  -2.292543  3.068903
H    -0.963229  -0.998770  3.510787
H    0.246869  0.243940  3.820387
H    1.529876  -0.945323  1.746786
H    0.536038  -2.323015  2.201024
H    1.499601  -2.359996  4.465165
H    2.179503  -0.747344  4.274788
H    3.247968  -3.271642  3.179618
H    5.279181  0.233613  3.180099
H    3.565394  0.304603  2.923465
H    5.575452  -3.260873  3.364218
H    6.384310  -1.852479  2.780304
N    -1.834757  2.351045  3.143640
C    -0.630382  3.097731  3.531986
H    -2.715176  2.780685  3.436724
H    -0.787533  3.473170  4.549647
H    -0.505034  3.954430  2.855848
H    0.260391  2.465816  3.503452
Pb    -5.166065  0.077961  1.947914
