37
Energy: -611338.493903 eV PBE+vdW (tier 2 basis)
C    -0.354494  0.490664  0.994109
C    -0.495380  -0.577658  2.053195
O    0.700352  -1.026734  2.538328
H    0.248906  0.129521  0.153740
H    0.121151  1.369990  1.446918
H    -1.332088  0.801563  0.611538
N    -1.441349  -0.360774  3.089573
C    -2.760074  -0.898806  2.726752
C    -2.390715  -1.937431  1.663071
O    -1.169834  -1.842076  1.248218
H    -1.102461  -0.749573  3.968842
H    -3.179163  -1.413936  3.604605
C    -3.780807  0.189569  2.287895
C    -5.240908  -0.299315  2.233895
C    -6.315422  0.781401  2.433682
N    -6.443623  1.697938  1.292116
C    -7.152030  2.849959  1.325512
N    -7.780629  3.232201  2.440899
N    -7.191284  3.629194  0.238600
H    -3.475953  0.640853  1.333835
H    -3.681951  0.977121  3.048311
H    -5.416394  -1.019320  3.049410
H    -5.447867  -0.843755  1.297961
H    -6.068026  1.377480  3.324334
H    -7.275971  0.273752  2.620495
H    -6.302600  1.300032  0.367987
H    -8.193323  4.156346  2.515943
H    -8.005306  2.577105  3.179715
H    -6.571052  3.481291  -0.548280
H    -7.847772  4.399034  0.164362
N    -3.200243  -2.853688  1.195506
C    -2.869406  -3.864155  0.178533
H    -4.126282  -2.911157  1.614097
H    -2.734761  -4.840777  0.660161
H    -1.952770  -3.574584  -0.339875
H    -3.695094  -3.928230  -0.538185
Pb    2.738515  -1.388278  2.717055
