37
Energy: -611338.849052 eV PBE+vdW (tier 2 basis)
C    -0.461411  1.356286  0.293386
C    -0.053857  0.538357  1.464953
O    1.159212  0.702729  1.964524
H    -0.518719  2.416054  0.586316
H    -1.426420  1.059086  -0.124867
H    0.299625  1.271347  -0.494996
N    -0.825834  -0.343348  2.049952
C    -2.230631  -0.707732  1.757811
C    -2.802796  -1.094755  3.144392
O    -2.154106  -1.923216  3.806296
H    -0.451521  -0.886505  2.842491
H    -2.741144  0.162950  1.327555
C    -2.282321  -1.918134  0.793052
C    -3.698129  -2.447357  0.496918
C    -4.292931  -3.474965  1.473132
N    -3.585725  -4.763848  1.469603
C    -3.182627  -5.454343  2.557484
N    -3.093916  -6.788298  2.484217
N    -2.851128  -4.825009  3.690152
H    -1.650252  -2.719611  1.204459
H    -1.813243  -1.603980  -0.150270
H    -3.679802  -2.897912  -0.506118
H    -4.415731  -1.616303  0.414364
H    -5.337654  -3.658558  1.181121
H    -4.326053  -3.110442  2.504802
H    -3.675416  -5.312457  0.617949
H    -2.591136  -7.324261  3.183155
H    -3.587547  -7.316706  1.773148
H    -2.626683  -3.827569  3.721862
H    -2.736084  -5.353631  4.547377
N    -3.957688  -0.531345  3.506375
C    -4.652204  -0.819491  4.764672
H    -4.386875  0.145635  2.881508
H    -4.925451  0.122278  5.253290
H    -3.982744  -1.387570  5.415790
H    -5.565748  -1.397467  4.574953
Pb    3.104185  1.495040  2.307264
