37
Energy: -611340.116898 eV PBE+vdW (tier 2 basis)
C    -2.081407  0.410767  0.043243
C    -1.792905  0.048135  1.459865
O    -1.450574  -1.152825  1.735419
H    -1.186808  0.223150  -0.568228
H    -2.397004  1.450555  -0.091687
H    -2.864017  -0.260293  -0.340257
N    -1.917769  0.995071  2.399818
C    -1.798480  0.915127  3.875195
C    -0.366250  0.573283  4.321270
O    0.117946  -0.611641  4.205752
H    -2.180915  1.910526  2.041542
H    -1.986455  1.944047  4.204694
C    -2.855455  0.019654  4.567377
C    -4.279660  0.602178  4.488121
C    -5.280361  -0.177809  5.358972
N    -6.604733  0.447974  5.305971
C    -7.770044  -0.145769  5.644809
N    -8.922753  0.474583  5.376373
N    -7.777932  -1.356520  6.214339
H    -2.552535  -0.073561  5.622199
H    -2.832213  -0.995178  4.145573
H    -4.636762  0.611404  3.447735
H    -4.255685  1.649794  4.831506
H    -4.912479  -0.215004  6.398695
H    -5.375355  -1.211345  4.994462
H    -6.640177  1.455106  5.179069
H    -9.795409  0.172323  5.797346
H    -8.973137  1.259754  4.737071
H    -8.648228  -1.865431  6.333596
H    -6.978210  -1.708372  6.726215
N    0.381986  1.498205  4.889556
C    0.084947  2.912965  5.168533
H    1.300555  1.164049  5.192287
H    1.017189  3.390537  5.483861
H    -0.642499  3.007510  5.984360
H    -0.270862  3.428163  4.269225
Pb    0.025452  -2.389113  2.858124
