37
Energy: -611338.652370 eV PBE+vdW (tier 2 basis)
C    1.119812  0.724482  1.288690
C    0.497310  -0.090175  2.365032
O    1.313632  -0.627831  3.258422
H    0.399506  1.123972  0.576791
H    1.850249  0.121352  0.736954
H    1.643720  1.568484  1.766967
N    -0.795268  -0.136344  2.686337
C    -1.904322  -0.249742  1.725480
C    -1.493504  -1.478038  0.827147
O    -0.282484  -1.639342  0.624160
H    -0.973190  -0.605641  3.575178
H    -2.781649  -0.476743  2.343611
C    -2.200473  1.031431  0.900250
C    -3.636087  1.124668  0.351878
C    -3.863654  2.470181  -0.365504
N    -5.153061  2.549847  -1.060135
C    -6.162262  3.408332  -0.810082
N    -7.053684  3.668756  -1.772073
N    -6.289450  3.998722  0.384678
H    -1.501187  1.104861  0.056441
H    -2.004174  1.889905  1.560256
H    -4.371109  1.007062  1.162944
H    -3.820644  0.313015  -0.365979
H    -3.076035  2.631825  -1.117030
H    -3.792623  3.312674  0.334740
H    -5.229419  2.031016  -1.930295
H    -7.942065  4.112053  -1.562907
H    -6.859181  3.477025  -2.748541
H    -6.934303  4.770449  0.516434
H    -5.840719  3.630864  1.212637
N    -2.435299  -2.275981  0.310393
C    -3.871665  -2.358839  0.571363
H    -2.050754  -3.001848  -0.295298
H    -4.167014  -1.692949  1.386394
H    -4.125101  -3.385340  0.862517
H    -4.447102  -2.102402  -0.327009
Pb    3.151308  -1.446769  3.919495
