37
Energy: -611340.269161 eV PBE+vdW (tier 2 basis)
C    1.333739  1.555094  1.633968
C    0.836872  0.260406  2.179955
O    1.681405  -0.582244  2.643337
H    0.545654  2.189747  1.215461
H    2.085069  1.346260  0.858440
H    1.855939  2.107146  2.429139
N    -0.479553  0.017329  2.154098
C    -1.246706  -1.195660  2.529655
C    -1.176963  -1.484547  4.042703
O    -0.117406  -1.933854  4.607398
H    -1.041819  0.779293  1.780970
H    -2.287896  -0.914732  2.318951
C    -0.937442  -2.448086  1.673576
C    -1.414428  -2.313098  0.214093
C    -1.266205  -3.628508  -0.571702
N    -1.742897  -3.470571  -1.948128
C    -2.251506  -4.450010  -2.727125
N    -2.846416  -4.125931  -3.879196
N    -2.189725  -5.730583  -2.344265
H    -1.453028  -3.294492  2.153703
H    0.137276  -2.677142  1.705822
H    -0.844247  -1.518687  -0.293162
H    -2.473419  -2.012838  0.195792
H    -1.871339  -4.411974  -0.093288
H    -0.214280  -3.960402  -0.564749
H    -1.543715  -2.590614  -2.414693
H    -3.042361  -4.826092  -4.587356
H    -3.144958  -3.178110  -4.079917
H    -2.709490  -6.444513  -2.845036
H    -1.487312  -6.058742  -1.692977
N    -2.276362  -1.303946  4.747057
C    -2.435036  -1.559387  6.184121
H    -3.097984  -0.946480  4.261999
H    -1.625716  -2.202084  6.536567
H    -3.400607  -2.051043  6.346089
H    -2.424269  -0.607244  6.731039
Pb    2.107132  -1.890664  4.392658
