37
Energy: -611340.138197 eV PBE+vdW (tier 2 basis)
C    -1.460339  0.608804  0.165370
C    -0.928257  0.224209  1.502073
O    -0.124705  -0.769648  1.587644
H    -1.983842  -0.259001  -0.263923
H    -0.623286  0.831769  -0.511528
H    -2.143820  1.463811  0.191593
N    -1.321527  0.920548  2.574698
C    -1.086690  0.690243  4.023203
C    0.397083  0.898932  4.390104
O    1.296507  0.032231  4.105783
H    -1.953924  1.691323  2.367644
H    -1.646329  1.506115  4.501242
C    -1.691083  -0.636616  4.541792
C    -1.955291  -0.632275  6.060257
C    -2.678051  -1.914822  6.521114
N    -2.907748  -1.957122  7.968346
C    -4.095021  -2.083362  8.602103
N    -4.121784  -2.575543  9.843683
N    -5.238521  -1.718183  8.010820
H    -1.050231  -1.486686  4.265685
H    -2.638055  -0.779900  4.000800
H    -2.566707  0.242900  6.330018
H    -1.009036  -0.535496  6.615835
H    -2.088225  -2.803018  6.246547
H    -3.644280  -2.024401  6.012213
H    -2.089550  -2.107101  8.551767
H    -3.350706  -3.112643  10.225204
H    -4.938658  -2.468197  10.436905
H    -6.134606  -1.969800  8.415363
H    -5.257257  -1.071286  7.233667
N    0.715623  1.999267  5.043390
C    2.063672  2.385652  5.477337
H    -0.031216  2.661018  5.248914
H    1.992669  2.848218  6.467463
H    2.484123  3.116783  4.773901
H    2.704240  1.502184  5.523237
Pb    1.780831  -1.449904  2.483732
