37
Energy: -611338.839433 eV PBE+vdW (tier 2 basis)
C    -0.145126  -0.134236  -0.325089
C    -0.123005  -0.079867  1.160272
O    1.046625  -0.130649  1.777276
H    0.391884  0.735841  -0.732392
H    -1.154809  -0.145242  -0.742891
H    0.380971  -1.037518  -0.666426
N    -1.190166  0.020382  1.908898
C    -2.599560  0.193828  1.501589
C    -3.221206  0.933358  2.711633
O    -2.769458  0.651720  3.840195
H    -1.110118  0.066628  2.942378
H    -2.627349  0.806569  0.593227
C    -3.319434  -1.159865  1.233006
C    -3.607845  -2.062320  2.450325
C    -4.982913  -1.797255  3.096661
N    -5.213466  -2.568264  4.316610
C    -5.118164  -2.102225  5.575381
N    -5.648070  -2.814402  6.577568
N    -4.504709  -0.940096  5.834283
H    -2.710622  -1.709592  0.501635
H    -4.255558  -0.921760  0.705536
H    -2.818064  -1.974095  3.210000
H    -3.583765  -3.106840  2.110984
H    -5.780309  -2.062531  2.388350
H    -5.131319  -0.737332  3.337510
H    -5.547551  -3.521172  4.208759
H    -5.442705  -2.599337  7.546693
H    -6.319660  -3.554828  6.407987
H    -4.595359  -0.512996  6.748900
H    -3.903471  -0.466050  5.160073
N    -4.228495  1.782730  2.496529
C    -4.792392  2.226168  1.215350
H    -4.574882  2.241875  3.338374
H    -5.710629  2.782372  1.424639
H    -5.059988  1.376489  0.576862
H    -4.104569  2.896325  0.683128
Pb    3.153596  -0.094606  2.058912
