37
Energy: -611339.592940 eV PBE+vdW (tier 2 basis)
C    1.426375  -0.507635  0.736330
C    1.042819  -0.452430  2.174669
O    1.965740  -0.454717  3.063379
H    0.572523  -0.495616  0.050934
H    2.011524  -1.424329  0.566822
H    2.093677  0.333859  0.502136
N    -0.256706  -0.418309  2.489628
C    -0.953868  -0.510433  3.797203
C    -0.648596  0.697697  4.705851
O    0.475231  0.838356  5.306004
H    -0.881249  -0.410688  1.685253
H    -2.013733  -0.424764  3.519921
C    -0.793850  -1.891138  4.482730
C    -1.807844  -2.098365  5.633249
C    -2.404228  -3.508404  5.773995
N    -1.458224  -4.506864  6.291250
C    -1.696421  -5.842485  6.280060
N    -0.768994  -6.675570  6.762530
N    -2.824414  -6.331724  5.758467
H    0.239834  -2.036119  4.824043
H    -0.962350  -2.637716  3.693037
H    -2.681833  -1.447781  5.473512
H    -1.383048  -1.772579  6.594957
H    -2.758379  -3.853549  4.791402
H    -3.279449  -3.433955  6.440382
H    -0.822848  -4.192133  7.019562
H    -0.977374  -7.653082  6.939076
H    0.173564  -6.366987  6.968361
H    -2.941956  -7.330635  5.618890
H    -3.656425  -5.763944  5.651620
N    -1.613834  1.577370  4.888982
C    -1.539386  2.781368  5.725264
H    -2.490246  1.429748  4.390661
H    -2.495404  2.904115  6.245518
H    -1.365282  3.661845  5.092219
H    -0.730467  2.677407  6.451666
Pb    2.663483  0.534115  4.916245
