37
Energy: -611340.144504 eV PBE+vdW (tier 2 basis)
C    0.447422  0.327972  0.363782
C    0.196357  0.454714  1.824433
O    1.099538  0.959837  2.576747
H    0.641414  1.332265  -0.043615
H    -0.383403  -0.127378  -0.185246
H    1.362822  -0.256856  0.196658
N    -0.984298  0.062370  2.323189
C    -1.465445  0.261084  3.704181
C    -0.809479  -0.797730  4.620504
O    0.353507  -0.569705  5.105243
H    -1.643402  -0.335705  1.656098
H    -1.062812  1.226164  4.048585
C    -3.006663  0.362566  3.708124
C    -3.611377  0.812834  5.053920
C    -5.021969  1.430267  4.956220
N    -6.123524  0.491371  4.698913
C    -7.187853  0.285277  5.512064
N    -8.339964  -0.141092  4.986213
N    -7.094487  0.478594  6.831116
H    -3.460342  -0.582321  3.361745
H    -3.252962  1.111264  2.938477
H    -2.974550  1.602630  5.482407
H    -3.613986  -0.010623  5.783309
H    -5.040948  2.197332  4.167111
H    -5.241954  1.963051  5.889217
H    -6.273745  0.219061  3.732244
H    -8.555612  -0.025639  4.001879
H    -9.084642  -0.505353  5.572519
H    -7.924595  0.508212  7.414417
H    -6.203531  0.559632  7.303253
N    -1.432863  -1.927715  4.880235
C    -0.894101  -3.038194  5.678117
H    -2.353909  -2.061095  4.468402
H    -0.156681  -2.655396  6.387892
H    -0.423932  -3.779773  5.018752
H    -1.718687  -3.513198  6.218550
Pb    2.133149  0.712529  4.536947
