37
Energy: -611340.252411 eV PBE+vdW (tier 2 basis)
C    0.103213  1.861575  1.317198
C    0.420014  1.673070  2.759008
O    1.048195  2.590262  3.391257
H    -0.489200  2.782651  1.207463
H    -0.446640  1.023746  0.875791
H    1.033722  2.023878  0.754778
N    0.017005  0.553146  3.376050
C    0.128266  0.247332  4.815039
C    1.576668  -0.204324  5.121416
O    2.485736  0.686127  5.275364
H    -0.444813  -0.140906  2.790606
H    0.005398  1.198802  5.355510
C    -0.994269  -0.717719  5.257315
C    -2.396989  -0.074124  5.207734
C    -3.586377  -1.029230  5.423395
N    -3.842417  -1.359035  6.829770
C    -5.056178  -1.667095  7.341571
N    -5.209592  -1.729311  8.668760
N    -6.100927  -1.888543  6.538773
H    -0.756371  -1.047534  6.279784
H    -0.983814  -1.621303  4.622431
H    -2.554890  0.375515  4.216338
H    -2.460164  0.754845  5.928718
H    -3.447337  -1.948461  4.829148
H    -4.484408  -0.524572  5.043063
H    -3.052778  -1.518006  7.446147
H    -6.033504  -2.152132  9.084171
H    -4.550370  -1.295543  9.304500
H    -7.042374  -1.940743  6.915507
H    -5.987579  -2.160753  5.569785
N    1.871591  -1.483473  5.210727
C    3.206682  -2.045761  5.458884
H    1.113872  -2.152472  5.088370
H    3.863710  -1.268948  5.855226
H    3.619642  -2.442869  4.522347
H    3.114209  -2.861957  6.183415
Pb    2.784073  2.865866  4.774642
