37
Energy: -611339.627053 eV PBE+vdW (tier 2 basis)
C    0.202682  0.961388  0.857877
C    -0.086670  -0.415347  1.349225
O    0.764383  -1.344699  1.130084
H    1.130473  1.324405  1.324009
H    -0.601510  1.678546  1.053010
H    0.396926  0.917372  -0.223834
N    -1.239782  -0.634660  1.995282
C    -1.838902  -1.892552  2.505651
C    -0.988816  -2.506998  3.631562
O    0.085041  -3.168570  3.384815
H    -1.821120  0.192803  2.110622
H    -2.775067  -1.559133  2.970013
C    -2.219266  -2.920919  1.412337
C    -3.272475  -2.367138  0.433871
C    -3.760770  -3.334563  -0.657061
N    -4.729780  -4.319121  -0.153482
C    -5.185556  -5.372166  -0.875386
N    -6.059263  -6.217096  -0.319742
N    -4.739389  -5.593162  -2.115653
H    -2.599940  -3.815048  1.929705
H    -1.325334  -3.239906  0.857354
H    -2.857959  -1.498036  -0.096407
H    -4.143953  -1.982459  0.989776
H    -2.909346  -3.879760  -1.091204
H    -4.216517  -2.729928  -1.458053
H    -5.356993  -3.997862  0.579235
H    -6.558354  -6.903560  -0.876348
H    -6.264221  -6.201230  0.672477
H    -4.980204  -6.447743  -2.608330
H    -4.326902  -4.855720  -2.674106
N    -1.382746  -2.398911  4.885367
C    -2.559854  -1.716471  5.447396
H    -0.773518  -2.871456  5.557962
H    -2.435595  -1.682741  6.533767
H    -3.479752  -2.271339  5.224088
H    -2.631682  -0.685467  5.083522
Pb    1.857730  -3.064759  2.025598
