37
Energy: -611338.942227 eV PBE+vdW (tier 2 basis)
C    0.979291  1.736551  0.364648
C    0.438867  0.736290  1.314407
O    1.234746  0.072762  2.069426
H    1.687453  1.201084  -0.292008
H    1.580710  2.494844  0.885605
H    0.217226  2.205289  -0.264003
N    -0.885590  0.465651  1.395293
C    -1.918904  1.496644  1.561382
C    -1.638295  2.139073  2.947511
O    -1.006592  1.454563  3.840482
H    -1.088410  -0.393738  1.909182
H    -1.790852  2.254796  0.776844
C    -3.315070  0.828242  1.405963
C    -4.499933  1.784514  1.172341
C    -5.739638  1.143917  0.516946
N    -6.587668  0.379054  1.437486
C    -7.913629  0.172394  1.263863
N    -8.626836  -0.367830  2.258444
N    -8.516697  0.521162  0.124155
H    -3.492102  0.173299  2.274533
H    -3.211876  0.171753  0.528294
H    -4.187098  2.569585  0.468621
H    -4.801298  2.293127  2.099238
H    -5.424826  0.516363  -0.334165
H    -6.355355  1.959979  0.115646
H    -6.143726  -0.193207  2.147575
H    -9.566074  -0.719024  2.101763
H    -8.291396  -0.373860  3.214509
H    -9.529685  0.535195  0.055865
H    -8.005275  0.635243  -0.742897
N    -2.007775  3.369674  3.242572
C    -2.651623  4.399398  2.420023
H    -1.772592  3.656974  4.196299
H    -2.117226  5.343991  2.573986
H    -3.695189  4.533952  2.729280
H    -2.612132  4.141185  1.359363
Pb    0.848161  0.173222  4.303387
