37
Energy: -611338.944298 eV PBE+vdW (tier 2 basis)
C    0.336052  -1.761883  -0.292731
C    0.609148  -1.687911  1.165998
O    1.741546  -2.113192  1.598974
H    -0.377018  -1.012602  -0.640965
H    -0.031069  -2.765933  -0.562283
H    1.292640  -1.635863  -0.817907
N    -0.244846  -1.155700  2.072331
C    -1.669140  -1.502256  2.256062
C    -1.681869  -2.950010  2.834519
O    -0.629482  -3.685112  2.751918
H    0.223430  -0.986646  2.964946
H    -2.023443  -0.827037  3.050293
C    -2.585135  -1.326781  1.022597
C    -2.660200  0.116156  0.460059
C    -3.909885  0.896724  0.909247
N    -3.929423  2.234965  0.314332
C    -5.021502  2.910840  -0.105376
N    -4.864359  3.995918  -0.869133
N    -6.252004  2.492895  0.214660
H    -3.589236  -1.664242  1.312827
H    -2.278499  -2.022802  0.233500
H    -2.672064  0.063110  -0.637193
H    -1.754409  0.678721  0.735838
H    -3.955327  0.969366  2.009552
H    -4.809022  0.364704  0.568213
H    -3.054108  2.750192  0.293569
H    -3.993805  4.192197  -1.350503
H    -5.623620  4.654309  -1.012340
H    -7.067078  2.897754  -0.235467
H    -6.425527  1.933183  1.040250
N    -2.753437  -3.444866  3.422237
C    -4.046995  -2.818819  3.711838
H    -2.652493  -4.415027  3.731107
H    -4.371879  -3.151482  4.704083
H    -4.797557  -3.134393  2.975308
H    -3.962342  -1.728518  3.723348
Pb    1.644404  -3.994675  2.840523
