37
Energy: -611339.950030 eV PBE+vdW (tier 2 basis)
C    -1.677468  1.650734  0.774646
C    -1.903436  0.296815  1.348891
O    -2.665704  -0.525977  0.736033
H    -1.230865  1.534091  -0.224875
H    -1.026099  2.282962  1.387039
H    -2.643092  2.153807  0.626098
N    -1.279663  -0.044917  2.486428
C    -1.259668  -1.384180  3.100506
C    -2.578400  -1.615555  3.875656
O    -3.615458  -1.993893  3.225187
H    -0.702799  0.676702  2.913004
H    -1.315873  -2.102936  2.269070
C    0.096265  -1.674422  3.796964
C    0.580191  -0.774211  4.956236
C    2.110031  -0.761595  5.168408
N    2.641693  -1.990692  5.763257
C    3.721559  -2.049327  6.581326
N    4.488834  -0.975252  6.785917
N    3.998458  -3.196445  7.208433
H    0.839239  -1.634291  2.985079
H    0.058024  -2.726711  4.115099
H    0.115747  -1.053723  5.915306
H    0.311568  0.279973  4.781615
H    2.337880  0.059829  5.859938
H    2.614004  -0.542980  4.211708
H    2.350365  -2.879977  5.369600
H    5.180649  -0.967323  7.529520
H    4.537323  -0.213631  6.119640
H    3.310959  -3.935140  7.303354
H    4.897784  -3.349559  7.653983
N    -2.654009  -1.426465  5.175736
C    -3.871025  -1.596408  5.984005
H    -1.813810  -1.119330  5.658699
H    -4.474406  -0.679592  5.955782
H    -3.574708  -1.800447  7.016722
H    -4.458226  -2.433190  5.595145
Pb    -4.303859  -2.010744  1.070845
