37
Energy: -611340.297237 eV PBE+vdW (tier 2 basis)
C    -0.586294  -0.537096  -0.258346
C    -0.619263  -0.878767  1.190129
O    -0.019907  -1.930817  1.602166
H    0.464539  -0.448106  -0.572664
H    -1.117023  0.389095  -0.502374
H    -1.013899  -1.365614  -0.840722
N    -1.256309  -0.061178  2.039655
C    -1.295856  -0.166611  3.510570
C    -2.328001  -1.249850  3.912043
O    -1.993911  -2.485846  3.841446
H    -1.736861  0.734370  1.622952
H    -0.321405  -0.566893  3.831158
C    -1.501687  1.218742  4.156196
C    -0.301136  2.177609  4.015980
C    -0.599503  3.548457  4.657902
N    0.482576  4.518938  4.462430
C    1.099234  5.253841  5.415581
N    1.659787  6.418602  5.078735
N    1.166705  4.829253  6.682742
H    -1.706471  1.055756  5.225154
H    -2.402980  1.697345  3.733208
H    -0.052462  2.328581  2.953956
H    0.590349  1.734789  4.484721
H    -0.786388  3.445599  5.734228
H    -1.520514  3.973300  4.227905
H    0.620481  4.850356  3.511629
H    1.404718  6.912114  4.230067
H    2.329537  6.878101  5.687930
H    1.475602  5.452015  7.422063
H    1.054150  3.854296  6.927525
N    -3.532431  -0.906053  4.313387
C    -4.611501  -1.826626  4.697053
H    -3.746922  0.088058  4.365260
H    -5.361444  -1.869116  3.896369
H    -5.084674  -1.450037  5.610457
H    -4.199494  -2.822080  4.874085
Pb    -0.385341  -3.732529  2.878423
