37
Energy: -611337.607107 eV PBE+vdW (tier 2 basis)
C    1.267107  -0.527136  0.762211
C    0.767893  0.329170  1.890568
O    1.513131  1.001199  2.611651
H    0.478456  -0.920475  0.111351
H    1.823284  -1.377988  1.182699
H    1.979129  0.052437  0.161968
N    -0.599425  0.318259  2.090348
C    -1.366443  0.872903  3.198679
C    -2.116323  2.173077  2.820524
O    -3.415464  2.193575  3.051701
H    -1.123811  -0.277854  1.456386
H    -2.189239  0.162238  3.367227
C    -0.662624  1.047429  4.577065
C    -0.278046  -0.290279  5.258840
C    1.199361  -0.711417  5.264572
N    2.054220  0.166512  6.076683
C    3.314184  0.555653  5.767218
N    3.692859  0.702131  4.496144
N    4.170959  0.823204  6.760507
H    -1.393811  1.563117  5.217417
H    0.199939  1.715549  4.492032
H    -0.837496  -1.124863  4.809597
H    -0.624284  -0.249589  6.301819
H    1.616646  -0.760828  4.256543
H    1.253530  -1.729946  5.679991
H    1.829332  0.201309  7.068062
H    4.672726  0.827790  4.268124
H    3.012120  0.777443  3.735077
H    4.028293  0.468579  7.699624
H    5.042369  1.313088  6.587562
N    -1.580455  3.248691  2.304931
C    -0.183900  3.546452  1.966532
H    -2.237814  4.005153  2.099878
H    0.036846  4.559028  2.324618
H    -0.071689  3.528784  0.873771
H    0.497927  2.825384  2.424437
Pb    -5.532992  2.252368  3.323198
