37
Energy: -611338.322831 eV PBE+vdW (tier 2 basis)
C    0.118721  1.254265  -0.621586
C    0.091191  0.319025  0.529647
O    1.229804  -0.153467  0.994550
H    0.529442  2.220952  -0.293148
H    -0.870751  1.431798  -1.051192
H    0.772109  0.845555  -1.404752
N    -1.013046  -0.126540  1.091251
C    -2.355310  0.487454  1.000627
C    -2.165658  2.029144  1.250165
O    -1.226416  2.390133  1.956848
H    -0.872996  -0.756497  1.883813
H    -2.758588  0.289826  -0.002220
C    -3.219356  -0.179317  2.103844
C    -4.661983  0.329888  2.281878
C    -5.731969  -0.211682  1.310179
N    -6.289571  -1.522639  1.667623
C    -7.456371  -1.733000  2.312386
N    -8.034008  -2.937988  2.251213
N    -8.041988  -0.753560  3.010474
H    -2.692335  -0.012270  3.056210
H    -3.221501  -1.267434  1.927375
H    -4.677051  1.427439  2.245066
H    -4.963706  0.076104  3.308120
H    -5.344213  -0.302702  0.286208
H    -6.567784  0.497964  1.246640
H    -5.841354  -2.349178  1.287550
H    -8.790213  -3.192474  2.878125
H    -7.797572  -3.608478  1.528593
H    -7.540739  0.074510  3.304277
H    -8.995747  -0.850510  3.342916
N    -3.034240  2.887230  0.676971
C    -4.123834  2.664290  -0.268746
H    -2.866414  3.854996  0.953679
H    -4.100510  3.452865  -1.029763
H    -5.105007  2.698979  0.224121
H    -4.015927  1.705391  -0.785791
Pb    3.317435  -0.168517  1.411285
