37
Energy: -611338.676948 eV PBE+vdW (tier 2 basis)
C    0.056697  0.877109  -0.200219
C    0.142453  0.870283  1.280094
O    1.129727  1.489058  1.827851
H    -0.087072  1.911487  -0.546664
H    -0.744355  0.243789  -0.593959
H    1.022587  0.549832  -0.611799
N    -0.790323  0.244230  2.006372
C    -0.786502  -0.102002  3.451713
C    -0.705074  1.140056  4.352750
O    -1.628154  1.235447  5.299350
H    -1.557489  -0.153829  1.469789
H    -1.774555  -0.543551  3.632486
C    0.305578  -1.147941  3.815392
C    0.171880  -2.454557  3.013285
C    1.302531  -3.478405  3.202074
N    1.187775  -4.240521  4.454299
C    2.144888  -5.078820  4.916845
N    3.302806  -5.218659  4.265091
N    1.939915  -5.742343  6.060090
H    0.222810  -1.340322  4.895737
H    1.299700  -0.704938  3.654105
H    0.167426  -2.222600  1.938772
H    -0.799782  -2.935573  3.213713
H    2.275587  -2.964906  3.198822
H    1.279855  -4.166821  2.341560
H    0.243547  -4.447168  4.768726
H    4.070050  -5.743603  4.672470
H    3.405213  -4.954694  3.292941
H    1.159344  -5.529741  6.669488
H    2.547410  -6.502995  6.345816
N    0.238587  2.002066  4.164234
C    0.327413  3.178248  4.979272
H    0.937319  1.709767  2.847694
H    1.166891  3.818370  4.676677
H    0.516619  2.932171  6.053300
H    -0.578934  3.830060  4.870597
Pb    -2.092534  2.771570  6.748364
