37
Energy: -611338.761369 eV PBE+vdW (tier 2 basis)
C    -0.131622  -1.108529  -0.088440
C    -0.141889  -0.348452  1.189374
O    0.955322  -0.212501  1.892117
H    -0.816427  -0.680697  -0.830086
H    -0.450890  -2.147966  0.098134
H    0.877224  -1.135766  -0.511944
N    -1.244265  0.202326  1.670813
C    -2.612244  0.086456  1.118010
C    -2.945089  1.095855  -0.023670
O    -3.851898  0.773613  -0.795090
H    -1.150774  0.684033  2.568961
H    -2.693962  -0.901375  0.647565
C    -3.629255  0.168226  2.284015
C    -5.083012  -0.197715  1.904871
C    -5.989262  1.010282  1.589643
N    -7.326943  0.614862  1.156593
C    -7.730909  0.457758  -0.119141
N    -9.029718  0.247813  -0.369300
N    -6.854652  0.509794  -1.126808
H    -3.589363  1.172515  2.738020
H    -3.288039  -0.539201  3.053182
H    -5.522959  -0.743587  2.750246
H    -5.088828  -0.898062  1.057661
H    -5.557312  1.660850  0.819188
H    -6.114304  1.630784  2.487489
H    -8.013086  0.423212  1.879957
H    -9.356349  -0.006363  -1.294664
H    -9.739711  0.383731  0.341198
H    -5.846579  0.544335  -0.980457
H    -7.181578  0.544670  -2.085385
N    -2.260608  2.246715  -0.095617
C    -2.549653  3.282199  -1.095363
H    -1.586473  2.468520  0.628936
H    -1.649645  3.883875  -1.252464
H    -3.364989  3.936096  -0.760041
H    -2.837865  2.803434  -2.036036
Pb    2.981927  -0.542787  2.549248
