37
Energy: -611340.058570 eV PBE+vdW (tier 2 basis)
C    -1.270619  0.510232  0.612560
C    -0.770772  0.135645  1.964843
O    -0.024710  -0.897898  2.086695
H    -0.416658  0.665846  -0.062185
H    -1.903489  1.403788  0.607572
H    -1.839320  -0.337939  0.202265
N    -1.132463  0.886217  3.012468
C    -0.909179  0.700507  4.467903
C    0.585649  0.814513  4.834561
O    1.422319  -0.123874  4.586952
H    -1.716810  1.685359  2.774246
H    -1.404599  1.574319  4.913610
C    -1.608748  -0.553299  5.047526
C    -1.669736  -0.529148  6.587179
C    -2.404922  -1.710416  7.251836
N    -3.865364  -1.573789  7.253011
C    -4.687227  -2.008062  8.236395
N    -5.966168  -1.617469  8.238490
N    -4.232279  -2.801594  9.210768
H    -1.109104  -1.469464  4.700458
H    -2.616939  -0.569473  4.607048
H    -2.125139  0.410105  6.938099
H    -0.646178  -0.542202  6.991627
H    -2.085175  -1.747167  8.301052
H    -2.107313  -2.662776  6.782089
H    -4.325576  -1.273066  6.400152
H    -6.280533  -0.809961  7.712879
H    -6.657366  -2.081893  8.818981
H    -4.790950  -2.975052  10.040756
H    -3.407722  -3.377888  9.093791
N    0.978179  1.908781  5.456806
C    2.346108  2.208897  5.897211
H    0.278964  2.627724  5.636752
H    2.921746  1.283625  5.970553
H    2.298021  2.698179  6.875956
H    2.823639  2.892369  5.182346
Pb    1.839434  -1.664676  3.005752
