37
Energy: -611339.499355 eV PBE+vdW (tier 2 basis)
C    1.918061  2.966793  2.395242
C    1.094958  1.854412  2.946959
O    1.661117  0.962204  3.666082
H    2.725645  2.536485  1.784199
H    2.406420  3.501924  3.222405
H    1.348771  3.679400  1.789349
N    -0.214349  1.821607  2.659805
C    -1.237935  0.794242  2.969136
C    -1.425147  0.652335  4.495636
O    -0.660229  -0.104643  5.194993
H    -0.539037  2.592511  2.079890
H    -2.168068  1.224220  2.576831
C    -0.996402  -0.551501  2.249966
C    -2.200106  -1.522670  2.317426
C    -3.203962  -1.470736  1.153004
N    -2.680761  -2.144622  -0.044071
C    -3.299139  -2.163845  -1.249425
N    -2.705996  -2.774817  -2.278732
N    -4.470776  -1.543494  -1.423470
H    -0.106128  -1.039514  2.667323
H    -0.744091  -0.318871  1.205351
H    -2.773182  -1.364427  3.243465
H    -1.825769  -2.552841  2.409130
H    -3.448207  -0.431019  0.883974
H    -4.134459  -1.957238  1.488508
H    -2.019468  -2.899449  0.116353
H    -1.738342  -3.073736  -2.239913
H    -3.209241  -2.973902  -3.137515
H    -4.875716  -1.453291  -2.350379
H    -5.089050  -1.346531  -0.645843
N    -2.408091  1.291044  5.100615
C    -3.418189  2.200712  4.536500
H    -2.465556  1.120671  6.107703
H    -3.955105  2.659852  5.371724
H    -4.144443  1.651739  3.923989
H    -2.948562  3.001676  3.954770
Pb    1.554917  -0.425494  5.399375
