24
Energy: -169214.861024 eV PBE+vdW (tier 2 basis)
N    -0.378902  -0.949671  2.771933
C    1.062938  -0.582764  3.057045
C    1.759678  -0.089939  1.784770
O    1.181113  -0.230327  0.666815
H    -0.536797  -0.948621  1.751137
H    -1.028753  -0.270162  3.188069
H    1.071685  0.225258  3.799358
C    1.691652  -1.870858  3.630455
C    0.516579  -2.552932  4.357433
C    0.228023  -1.994668  5.720573
C    -0.660937  -2.385711  3.390894
C    -1.043882  -1.790045  6.156367
C    -2.022891  -2.413097  3.998769
C    -2.175959  -2.103325  5.314276
H    2.535973  -1.635635  4.286880
H    2.063008  -2.515276  2.821757
H    1.073854  -1.831448  6.390998
H    -0.576329  -3.069566  2.538233
H    -1.224282  -1.440368  7.172523
H    -2.876185  -2.668326  3.371158
H    -3.173381  -2.097326  5.754888
O    2.913517  0.417483  1.928256
H    0.741692  -3.628658  4.476541
Cd    3.064585  0.780979  -0.278130
