24
Energy: -169216.132546 eV PBE+vdW (tier 2 basis)
N    -0.924903  -0.499736  0.169211
C    -0.835083  -0.146089  1.611042
C    0.382093  0.780236  1.784714
O    1.395868  0.657619  1.077383
H    -1.187450  0.315223  -0.396659
H    -1.652486  -1.205877  0.017273
H    -1.750927  0.370966  1.937290
C    -0.664570  -1.433277  2.499076
C    0.663751  -2.146466  2.341656
C    1.709540  -1.924531  3.240974
C    0.912099  -3.035529  1.242676
C    2.972080  -2.510914  3.056049
C    2.211712  -3.594382  1.040985
C    3.240012  -3.311336  1.944767
H    -1.507709  -2.100234  2.262815
H    -0.798324  -1.133929  3.546592
H    1.546578  -1.289915  4.113244
H    0.070200  -3.453757  0.679525
H    3.754513  -2.330772  3.793367
H    2.366046  -4.305185  0.227896
H    4.226618  -3.750789  1.803809
O    0.398931  1.677439  2.735963
H    -0.452243  1.779139  3.208589
Cd    1.275654  -1.204906  -0.161237
