24
Energy: -169214.994357 eV PBE+vdW (tier 2 basis)
N    -0.669351  -1.295840  1.122186
C    0.278294  -0.715628  1.991410
C    1.560245  -0.173805  1.139942
O    1.541184  1.046606  0.835760
H    -0.417322  -2.162974  0.651829
H    -1.220918  -0.668026  0.542090
H    -0.140114  0.196779  2.434389
C    0.799914  -1.677580  3.074134
C    -0.157546  -2.032859  4.180221
C    0.435027  -2.508812  5.452575
C    -1.533312  -1.968492  4.086677
C    -0.466248  -2.949773  6.525091
C    -2.344907  -2.379907  5.163947
C    -1.827062  -2.879091  6.375886
H    1.715990  -1.260905  3.518033
H    1.129283  -2.615527  2.590059
H    1.075526  -1.701211  5.877485
H    -2.012061  -1.623238  3.172050
H    -0.016552  -3.317111  7.449103
H    -3.428611  -2.313307  5.046789
H    -2.500864  -3.194230  7.171124
O    2.441724  -0.999273  0.794761
H    1.206548  -3.285954  5.267261
Cd    3.446133  0.731160  -0.385806
