24
Energy: -169214.98815 eV PBE+vdW (tier 2 basis)
N    0.755219  -2.541880  1.457401
C    0.912204  -1.289562  2.077385
C    2.158827  -0.468166  1.435646
O    1.858084  0.557825  0.770510
H    1.538967  -3.190852  1.487515
H    0.238260  -2.572994  0.582759
H    0.037811  -0.664319  1.863456
C    1.179533  -1.369816  3.611816
C    -0.036082  -1.797332  4.385402
C    -0.803680  -0.782924  5.137845
C    -0.459964  -3.110460  4.431878
C    -1.999069  -1.212805  5.873785
C    -1.608849  -3.465534  5.166745
C    -2.382849  -2.529418  5.883234
H    1.519961  -0.384989  3.958714
H    2.004667  -2.077561  3.780936
H    -1.053178  0.087251  4.492865
H    0.089594  -3.890476  3.907023
H    -2.560460  -0.456661  6.424980
H    -1.909064  -4.515331  5.183794
H    -3.262409  -2.856977  6.435478
O    3.319762  -0.914596  1.604060
H    -0.122833  -0.283936  5.867299
Cd    4.065548  0.801515  0.233471
