24
Energy: -169215.683685 eV PBE+vdW (tier 2 basis)
N    -0.437109  -0.476017  0.055761
C    -0.023649  -0.004559  1.439754
C    1.515485  -0.004086  1.524319
O    2.163048  -0.572735  0.593571
H    -1.399509  -0.866490  0.111776
H    0.218079  -1.202663  -0.277128
H    -0.379877  1.027883  1.552103
C    -0.654165  -0.913862  2.524953
C    -2.150594  -0.938081  2.365640
C    -2.934131  0.150521  2.828418
C    -2.782792  -2.020473  1.727146
C    -4.314848  0.141385  2.672580
C    -4.168085  -2.025078  1.568051
C    -4.936019  -0.940509  2.037691
H    -0.352589  -0.493609  3.494888
H    -0.229770  -1.926086  2.456544
H    -2.454151  0.986256  3.340935
H    -2.203036  -2.893163  1.417473
H    -4.912577  0.968867  3.051952
H    -4.661672  -2.876914  1.101677
H    -6.018438  -0.952991  1.914350
O    2.044461  0.542464  2.532513
H    -0.429968  0.283050  -0.638894
Cd    4.098905  -0.050111  1.784924
