21
Energy: -175946.8915360  eV PBE+vdW (tier 2 basis)
N    0.119768  -0.577850  0.086701
C    -0.158431  0.084937  1.431950
C    1.194148  0.594134  1.976364
O    1.227890  1.013316  3.167706
H    0.307048  -1.586108  0.181529
H    -0.666105  -0.465185  -0.568801
H    -0.732280  0.995115  1.199110
C    -0.994020  -0.795277  2.369097
C    -0.253537  -1.996388  2.992480
S    -1.328237  -3.177228  3.856798
C    -1.876150  -2.267666  5.304049
H    -1.883798  -1.135626  1.818112
H    -1.361110  -0.133620  3.164333
H    0.516501  -1.652855  3.699692
H    0.243203  -2.627536  2.238820
H    -2.450917  -2.983878  5.903429
H    -2.529635  -1.427688  5.030376
H    -1.016372  -1.907416  5.885556
O    2.176771  0.618742  1.175990
H    0.975656  -0.146273  -0.312787
Cd    3.392741  1.722324  2.878665
