21
Energy: -175946.8425246  eV PBE+vdW (tier 2 basis)
N    -0.148184  -0.305540  -0.001236
C    -0.160939  -0.284200  1.485867
C    1.132942  -0.913935  2.024824
O    1.866464  -1.679594  1.387228
H    -1.093796  -0.444782  -0.370374
H    0.179426  0.591188  -0.376082
H    -0.169166  0.760948  1.834277
C    -1.419547  -1.015137  2.026867
C    -1.714576  -0.763401  3.513598
S    -3.317600  -1.506294  3.936376
C    -3.620079  -0.856415  5.578263
H    -1.340903  -2.095524  1.828193
H    -2.271228  -0.640126  1.437932
H    -1.765953  0.313274  3.740052
H    -0.951853  -1.204651  4.172154
H    -3.706121  0.239562  5.549355
H    -2.814941  -1.151598  6.265920
H    -4.570381  -1.293185  5.906701
O    1.378278  -0.567474  3.267052
H    2.203813  -0.990136  3.595839
Cd    1.332899  -1.977279  -0.815950
