21
Energy: -175946.4417844  eV PBE+vdW (tier 2 basis)
N    0.564193  -0.202108  0.019471
C    -0.066739  0.166992  1.315584
C    1.017834  0.474644  2.373163
O    2.221096  0.582384  2.105284
H    -0.004207  0.134791  -0.763963
H    0.627637  -1.220943  -0.083344
H    -0.571883  1.134537  1.153665
C    -1.149510  -0.843140  1.783329
C    -0.645235  -2.231288  2.204185
S    -2.086410  -3.235887  2.684933
C    -1.331847  -4.655110  3.478514
H    -1.878212  -0.933025  0.963853
H    -1.725103  -0.391678  2.608468
H    0.041958  -2.186689  3.062725
H    -0.125940  -2.763346  1.387949
H    -0.767506  -4.349890  4.371076
H    -0.672603  -5.186048  2.777146
H    -2.161198  -5.309492  3.772368
O    0.656301  0.671799  3.618096
H    -0.307488  0.609627  3.769650
Cd    2.799924  0.596458  -0.065678
