21
Energy: -175946.7796586  eV PBE+vdW (tier 2 basis)
N    0.284503  -0.515838  -0.081875
C    0.126652  -0.215010  1.278471
C    1.439805  0.622581  1.801966
O    1.431414  1.852915  1.549946
H    0.141157  0.220442  -0.767221
H    0.932814  -1.245486  -0.365845
H    -0.693492  0.505122  1.400477
C    -0.107082  -1.490181  2.116897
C    -0.444048  -1.202520  3.577878
S    -0.879081  -2.649221  4.618664
C    -2.286771  -3.467364  3.827310
H    0.779846  -2.137150  2.050521
H    -0.940970  -2.007569  1.623537
H    -1.313561  -0.538884  3.699941
H    0.393843  -0.759330  4.135382
H    -3.144162  -2.794745  3.948367
H    -2.458376  -4.383044  4.408004
H    -2.092558  -3.700184  2.777200
O    2.378575  -0.008134  2.347284
H    0.112689  -3.496742  4.225629
Cd    3.582025  2.014597  2.301817
