21
Energy: -175946.8897457  eV PBE+vdW (tier 2 basis)
N    0.621835  0.577198  0.248355
C    0.455097  0.061893  1.673459
C    1.837035  -0.468091  2.126106
O    1.891673  -1.110762  3.211234
H    -0.015128  1.359178  0.042095
H    0.455797  -0.159933  -0.451332
H    0.278054  0.954487  2.293258
C    -0.725224  -0.897130  1.846333
C    -0.610022  -2.240994  1.096771
S    -1.772815  -3.508410  1.681298
C    -3.349262  -2.982181  1.003390
H    -1.649116  -0.373262  1.560771
H    -0.799797  -1.084380  2.926402
H    0.372467  -2.704754  1.267680
H    -0.755364  -2.136113  0.009624
H    -3.669396  -2.019932  1.426926
H    -4.070875  -3.755706  1.292229
H    -3.299975  -2.919922  -0.092678
O    2.841084  -0.171835  1.411638
H    1.606768  0.885066  0.132376
Cd    4.177439  -1.176234  3.094961
