21
Energy: -175946.5946762  eV PBE+vdW (tier 2 basis)
N    0.073924  0.886824  0.910821
C    0.104620  -0.243330  1.903763
C    1.552862  -0.735075  2.188953
O    2.545026  0.112790  2.151629
H    0.093941  0.547011  -0.057412
H    -0.789279  1.432358  1.007661
H    -0.207380  0.209341  2.860093
C    -0.928566  -1.361891  1.608216
C    -0.641914  -2.377051  0.490027
S    0.237987  -3.923058  0.963785
C    -0.886229  -4.785022  2.089502
H    -1.882019  -0.867860  1.368658
H    -1.121508  -1.877215  2.558609
H    -0.026761  -1.980449  -0.330883
H    -1.575956  -2.726915  0.031546
H    -1.225478  -4.143141  2.907440
H    -0.311392  -5.633117  2.482949
H    -1.723268  -5.159192  1.489433
O    1.754167  -1.898891  2.534467
H    1.064787  -3.261568  1.879519
Cd    2.052641  1.997469  1.370335
