21
Energy: -175946.6345744  eV PBE+vdW (tier 2 basis)
N    0.122328  -0.560005  -0.326792
C    -0.073617  -0.150106  1.044034
C    1.166350  0.649745  1.542835
O    1.523251  0.552689  2.755772
H    0.506943  0.179868  -0.917014
H    -0.739313  -0.910257  -0.748951
H    -0.843844  0.645682  1.159803
C    -0.495594  -1.324589  1.933185
C    0.443537  -2.533258  1.985666
S    0.461355  -3.532835  0.436616
C    1.305947  -5.059905  0.925632
H    -1.499676  -1.644404  1.614306
H    -0.612690  -0.973150  2.967652
H    0.072617  -3.251144  2.730529
H    1.480031  -2.281398  2.240852
H    2.231004  -4.844220  1.468823
H    1.505940  -5.612434  -0.000778
H    0.596998  -5.624654  1.542316
O    1.714171  1.440587  0.714478
H    1.464757  -2.904809  -0.227760
Cd    2.974734  2.255791  2.389628
