21
Energy: -175946.7651772  eV PBE+vdW (tier 2 basis)
N    -1.086771  0.311608  0.444326
C    -0.469781  -0.099414  1.641321
C    1.145934  -0.161845  1.453434
O    1.773291  0.848590  1.863915
H    -0.968942  -0.241923  -0.399802
H    -1.140930  1.310574  0.263687
H    -0.608366  0.682358  2.396406
C    -1.005681  -1.425607  2.240805
C    -1.091128  -2.594320  1.263359
S    -1.759256  -4.167818  1.925714
C    -3.397520  -3.803764  2.606285
H    -2.004698  -1.174012  2.623620
H    -0.380491  -1.691062  3.105680
H    -0.110207  -2.892199  0.864375
H    -1.755877  -2.395623  0.409415
H    -4.044428  -3.574398  1.751222
H    -3.371013  -2.986065  3.331038
H    -3.734195  -4.736489  3.076998
O    1.662473  -1.155854  0.882370
H    -1.053449  -4.227305  3.089383
Cd    3.710356  0.008128  1.045862
