21
Energy: -175946.5217315  eV PBE+vdW (tier 2 basis)
N    0.519796  -0.054945  0.111066
C    0.177601  -0.143879  1.550438
C    1.456323  -0.326756  2.411611
O    2.594063  -0.398869  1.935335
H    0.001860  0.697930  -0.350549
H    0.288228  -0.923854  -0.380744
H    -0.225787  0.839287  1.846798
C    -0.872367  -1.250636  1.854144
C    -2.260059  -0.928191  1.263475
S    -3.564611  -1.974159  1.954058
C    -3.345895  -3.553718  1.129407
H    -0.971519  -1.372024  2.943705
H    -0.500748  -2.217256  1.479742
H    -2.277280  -1.010702  0.165439
H    -2.570703  0.092190  1.531977
H    -3.426773  -3.432220  0.040240
H    -4.162904  -4.191086  1.488746
H    -2.387837  -4.022375  1.393225
O    1.344394  -0.381765  3.715559
H    0.432331  -0.287137  4.053952
Cd    2.886132  0.190353  -0.211001
