21
Energy: -175946.9009150  eV PBE+vdW (tier 2 basis)
N    -0.356267  0.433710  0.137987
C    -0.057901  0.060216  1.586002
C    1.473095  -0.106321  1.708738
O    2.187120  0.340034  0.760679
H    -1.186361  1.037500  0.058073
H    -0.512193  -0.396589  -0.450870
H    -0.290852  0.962015  2.173832
C    -0.924517  -1.089346  2.109154
C    -0.682353  -2.473380  1.490235
S    -1.808699  -3.661692  2.289501
C    -1.423915  -5.191943  1.437094
H    -1.981117  -0.799398  1.997408
H    -0.739256  -1.134391  3.191799
H    0.350259  -2.817959  1.654470
H    -0.885638  -2.510290  0.406367
H    -2.074584  -5.954108  1.881766
H    -0.372265  -5.470337  1.591636
H    -1.639892  -5.106192  0.362994
O    1.927011  -0.611165  2.773253
H    0.474416  0.925743  -0.243663
Cd    4.073323  -0.160824  2.103245
