21
Energy: -175946.8698301  eV PBE+vdW (tier 2 basis)
N    -0.481467  0.678894  1.845686
C    0.841370  0.180618  1.886578
C    1.688790  0.632583  0.578925
O    1.438147  0.074380  -0.519204
H    -0.610355  1.669660  2.037197
H    -1.082358  0.346337  1.092956
H    1.380938  0.661187  2.713135
C    0.908399  -1.356868  1.970538
C    0.105445  -1.985303  3.113020
S    0.798926  -1.645255  4.786805
C    -0.230969  -2.654032  5.886537
H    1.958479  -1.678449  2.010883
H    0.494152  -1.782267  1.043084
H    0.158000  -3.080929  3.043502
H    -0.946440  -1.676665  3.123142
H    -1.293632  -2.510794  5.668158
H    0.015889  -2.344398  6.909570
H    0.080578  -3.693460  5.730505
O    2.526925  1.557757  0.749127
H    0.213684  -0.437005  5.012231
Cd    2.962940  1.512066  -1.487752
