21
Energy: -175946.9142505  eV PBE+vdW (tier 2 basis)
N    -1.410014  0.311878  0.546415
C    -1.539779  -0.356148  1.903406
C    -0.167693  -0.257466  2.604680
O    0.035282  -0.995230  3.612488
H    -0.872128  1.189259  0.632961
H    -0.872159  -0.316111  -0.087479
H    -2.196164  0.292420  2.505305
C    -2.164970  -1.763240  1.831178
C    -1.794121  -2.649132  0.633562
S    -0.008446  -2.648345  0.277571
C    0.098603  -3.763243  -1.135579
H    -3.258911  -1.657341  1.837077
H    -1.900323  -2.259334  2.773952
H    -2.324848  -2.343994  -0.282897
H    -2.113501  -3.680404  0.842598
H    1.150418  -3.775313  -1.442008
H    -0.529054  -3.407401  -1.962347
H    -0.208985  -4.771845  -0.830124
O    0.652768  0.616909  2.187374
H    -2.327304  0.516325  0.126091
Cd    2.026330  0.012756  3.956780
