21
Energy: -175946.2609588  eV PBE+vdW (tier 2 basis)
N    -0.469906  0.207555  0.598131
C    0.033803  -0.085269  1.892402
C    1.598556  -0.372658  1.930222
O    2.109853  -0.922185  2.872825
H    -0.237707  1.109523  0.184905
H    -0.511511  -0.545381  -0.088197
H    -0.053550  0.822951  2.514799
C    -0.724809  -1.249741  2.546597
C    -2.199923  -0.865919  2.704032
S    -3.202979  -2.264377  3.275312
C    -4.806207  -1.497127  3.635047
H    -0.255855  -1.470873  3.513839
H    -0.625594  -2.151709  1.922497
H    -2.628710  -0.601965  1.716177
H    -2.351878  -0.005818  3.371224
H    -5.214241  -1.167522  2.669244
H    -4.713819  -0.648947  4.321274
H    -5.453156  -2.278410  4.051216
O    2.198327  0.099828  0.844409
H    3.169369  -0.038561  0.909433
Cd    -2.397309  -3.013694  5.722174
