21
Energy: -175946.4298399  eV PBE+vdW (tier 2 basis)
N    0.207734  0.100444  -0.058355
C    -0.127196  0.209828  1.296672
C    1.099524  0.578768  2.219375
O    1.210741  0.153327  3.346906
H    0.891736  -0.578424  -0.383169
H    -0.107646  0.783831  -0.740198
H    -0.832450  1.048615  1.407987
C    -0.773076  -1.118290  1.860634
C    -1.681129  -0.812784  3.076584
S    -1.952328  -2.411903  3.906941
C    -0.548143  -2.499858  5.052093
H    0.044298  -1.803297  2.121563
H    -1.367354  -1.578960  1.063351
H    -2.660104  -0.437930  2.754040
H    -1.231311  -0.120600  3.795817
H    -0.576962  -3.485996  5.529129
H    -0.574288  -1.691337  5.789356
H    0.362480  -2.415498  4.442851
O    1.918318  1.415491  1.596496
H    2.652823  1.675258  2.194970
Cd    -4.039305  -2.361054  5.575561
