21
Energy: -175946.4601681  eV PBE+vdW (tier 2 basis)
N    -2.537954  -0.452043  1.308741
C    -1.248503  -0.301145  1.857372
C    -0.071289  -0.577694  0.865374
O    1.086833  -0.358288  1.197639
H    -2.979456  -1.367618  1.287761
H    -2.854193  0.191478  0.588501
H    -1.086349  0.767484  2.097536
C    -1.093528  -1.146057  3.152393
C    0.317218  -1.325978  3.718675
S    1.260604  0.268343  3.701224
C    2.984134  -0.266967  3.515735
H    -1.476879  -2.161231  2.963052
H    -1.760884  -0.699586  3.900936
H    0.934710  -2.002322  3.115278
H    0.286608  -1.721754  4.740415
H    3.086739  -0.604749  2.476842
H    3.229995  -1.073687  4.213965
H    3.616946  0.612217  3.684062
O    -0.454941  -1.025544  -0.308993
H    0.312110  -1.152280  -0.911510
Cd    1.342562  1.020439  6.271175
