21
Energy: -175946.7156185  eV PBE+vdW (tier 2 basis)
N    1.334079  -0.375467  0.241234
C    0.465629  -0.253346  1.446463
C    1.180798  -0.900758  2.638127
O    1.960809  -1.862375  2.528107
H    2.110821  0.295602  0.276437
H    0.802867  -0.156016  -0.607209
H    0.302542  0.806005  1.693628
C    -0.924678  -0.915451  1.211274
C    -0.956206  -2.449676  1.146567
S    -2.516928  -3.235221  0.758932
C    -3.134605  -2.399422  -0.707392
H    -1.335144  -0.472006  0.292869
H    -1.586782  -0.594308  2.027164
H    -0.680054  -2.905270  2.108328
H    -0.200799  -2.865766  0.382761
H    -4.038535  -2.955511  -0.986568
H    -2.410351  -2.468585  -1.531779
H    -3.404391  -1.355171  -0.506793
O    0.847419  -0.365565  3.781611
H    1.286640  -0.813262  4.540707
Cd    2.080737  -2.575194  0.365118
