21
Energy: -175946.9510991  eV PBE+vdW (tier 2 basis)
N    0.110295  1.163867  1.662256
C    -0.264866  0.080900  2.671196
C    0.965089  -0.104832  3.596085
O    0.802223  -0.786702  4.644688
H    -0.351151  1.032189  0.752209
H    -0.129180  2.107018  1.999833
H    -1.088424  0.475168  3.281830
C    -0.674228  -1.236103  1.997890
C    -2.037730  -1.165277  1.264247
S    -2.669778  -2.809045  0.830268
C    -1.833904  -3.190458  -0.713156
H    -0.741651  -1.977482  2.805992
H    0.121251  -1.579317  1.319024
H    -2.007037  -0.556849  0.347533
H    -2.807401  -0.744656  1.927042
H    -2.214994  -4.170494  -1.024431
H    -0.745818  -3.259968  -0.576934
H    -2.077180  -2.442534  -1.480168
O    2.053790  0.432167  3.240249
H    1.142548  1.139570  1.545924
Cd    2.993282  -0.522155  5.223391
