21
Energy: -175946.0457115  eV PBE+vdW (tier 2 basis)
N    0.204109  0.519181  -0.144024
C    0.262345  0.241060  1.254440
C    0.957949  -1.156743  1.596783
O    0.429078  -2.139848  2.155624
H    1.075816  0.843108  -0.558260
H    -0.247669  -0.174396  -0.737496
H    0.880546  1.005544  1.749491
C    -1.083901  0.081006  1.939361
C    -2.277281  1.015597  2.145837
S    -3.403196  0.022424  3.243749
C    -4.866826  -0.304032  2.226025
H    -0.780896  -0.178553  2.971046
H    -1.537512  -0.786144  1.411367
H    -2.811250  1.274922  1.224912
H    -2.027092  1.921034  2.714036
H    -4.610140  -0.695547  1.236595
H    -5.400218  0.653049  2.140113
H    -5.488787  -1.012282  2.786827
O    2.189516  -1.188911  1.158981
H    2.617250  -2.059299  1.324477
Cd    -1.768081  -2.173821  3.126706
