21
Energy: -175947.1453614  eV PBE+vdW (tier 2 basis)
N    -0.815978  0.007506  -0.002945
C    -0.038772  0.178552  1.281840
C    1.412190  0.493258  0.835264
O    1.639752  0.766007  -0.324193
H    -0.325420  0.603314  -0.702190
H    -0.699536  -0.948246  -0.365432
H    -0.394374  1.108936  1.758913
C    -0.164780  -0.983271  2.280824
C    -1.561606  -1.543366  2.609885
S    -2.870752  -0.274212  2.969825
C    -4.313059  -1.298110  3.391987
H    0.324814  -0.649257  3.204527
H    0.421952  -1.846110  1.927176
H    -1.506493  -2.127785  3.540664
H    -1.948450  -2.218029  1.834321
H    -4.092504  -1.730782  4.377355
H    -4.495206  -2.082492  2.651238
H    -5.168724  -0.617981  3.476437
O    2.266213  0.457537  1.847124
H    3.166256  0.701517  1.538119
Cd    -2.926982  0.432034  0.552252
