21
Energy: -175947.7336779  eV PBE+vdW (tier 2 basis)
N    1.079297  -0.387411  -0.025217
C    0.782719  0.183834  1.316656
C    2.064554  0.098778  2.173957
O    2.917201  -0.784217  2.003534
H    0.221785  -0.484638  -0.577246
H    1.684330  0.246235  -0.560032
H    0.525594  1.250303  1.214016
C    -0.418716  -0.527047  2.034044
C    -0.809145  -1.963581  1.647361
S    0.395361  -3.297881  2.100730
C    -0.416872  -4.787243  1.448923
H    -1.317491  0.071319  1.824768
H    -0.271210  -0.460224  3.121208
H    -1.057772  -2.071713  0.583539
H    -1.715212  -2.225040  2.213406
H    -0.678407  -4.685448  0.391535
H    -1.310317  -4.950527  2.065127
H    0.286070  -5.614247  1.603846
O    2.251049  0.957179  3.142392
H    1.584277  1.672137  3.189496
Cd    2.182904  -2.361569  0.595958
