21
Energy: -175946.6788698  eV PBE+vdW (tier 2 basis)
N    0.151570  0.536609  0.116343
C    -0.636249  0.689700  1.373549
C    0.183841  1.394234  2.484628
O    1.418639  1.475899  2.479032
H    -0.128089  1.248055  -0.570792
H    -0.073935  -0.386629  -0.324567
H    -1.499123  1.342645  1.161649
C    -1.127711  -0.678709  1.904134
C    -2.234314  -1.319234  1.041327
S    -1.728499  -1.857916  -0.623473
C    -1.012901  -3.486126  -0.315732
H    -1.530561  -0.545789  2.919442
H    -0.271746  -1.362722  2.014148
H    -3.065953  -0.619140  0.880241
H    -2.641454  -2.193807  1.567406
H    -0.234038  -3.462856  0.456132
H    -0.590463  -3.826550  -1.268080
H    -1.818220  -4.169515  -0.012162
O    -0.451230  1.898431  3.510186
H    -1.427207  1.853301  3.453326
Cd    2.408229  0.888015  0.567523
