21
Energy: -175946.6952341  eV PBE+vdW (tier 2 basis)
N    0.414960  -0.166600  -0.003143
C    0.292928  -0.040011  1.387474
C    1.738918  -0.410175  2.085206
O    1.966181  -1.608969  2.378003
H    0.424549  -1.092671  -0.423452
H    0.918598  0.545607  -0.523838
H    0.160149  1.020280  1.641630
C    -0.819494  -0.944287  1.949307
C    -1.275413  -0.665006  3.384270
S    -2.558824  0.659303  3.468833
C    -3.012849  0.730895  5.221797
H    -0.477446  -1.988873  1.920716
H    -1.674912  -0.881006  1.261046
H    -0.469691  -0.412104  4.085034
H    -1.815330  -1.534971  3.783464
H    -3.600903  -0.172344  5.423151
H    -3.649993  1.616882  5.336416
H    -2.125795  0.789674  5.859502
O    2.551928  0.540787  2.198741
H    -1.758353  1.759127  3.419416
Cd    4.163204  -0.977471  2.837528
