21
Energy: -175947.2727697  eV PBE+vdW (tier 2 basis)
N    0.078689  -0.100994  0.224829
C    0.155010  -0.105684  1.740113
C    1.697704  -0.256550  1.995617
O    2.212638  0.132328  3.127374
H    -0.720924  -0.615676  -0.166023
H    0.076093  0.847674  -0.173369
H    -0.204078  0.870563  2.092136
C    -0.733337  -1.262992  2.261764
C    -0.565637  -1.821797  3.680713
S    -0.873650  -0.802149  5.198481
C    -2.376298  0.159577  4.857046
H    -0.544661  -2.144071  1.624279
H    -1.785804  -0.987270  2.098539
H    0.434986  -2.244661  3.853523
H    -1.276051  -2.653153  3.802107
H    -2.291453  0.794996  3.971400
H    -2.558766  0.766289  5.752306
H    -3.190506  -0.568872  4.746588
O    2.356731  -0.725363  1.078716
H    1.001806  -0.563851  -0.039469
Cd    1.173007  0.601560  4.863932
