21
Energy: -175946.2006011  eV PBE+vdW (tier 2 basis)
N    0.189381  0.446354  0.046126
C    -0.206169  -0.035945  1.332141
C    1.007108  -0.210044  2.289394
O    2.086303  -0.646272  2.111668
H    0.551639  1.397568  0.021506
H    0.781789  -0.181374  -0.496965
H    -0.858154  0.730457  1.780934
C    -0.982189  -1.361930  1.167124
C    -1.500689  -2.109592  2.393202
S    -2.761354  -1.325897  3.508706
C    -3.947580  -0.491267  2.416904
H    -0.329090  -2.083833  0.648559
H    -1.798660  -1.149479  0.463908
H    -0.711240  -2.433264  3.088576
H    -2.019699  -3.027432  2.075264
H    -4.442654  -1.296600  1.855268
H    -3.481153  0.227358  1.737655
H    -4.682319  -0.004737  3.069567
O    0.708771  0.362051  3.653793
H    1.555956  0.337882  4.157549
Cd    -1.283355  0.362520  4.633821
