21
Energy: -175946.9768926  eV PBE+vdW (tier 2 basis)
N    -0.031512  0.342090  0.393146
C    -0.104779  0.319974  1.917672
C    1.337125  0.554072  2.427477
O    1.546431  0.443516  3.667430
H    -0.825094  0.830716  -0.041029
H    0.013799  -0.608530  -0.000785
H    -0.677988  1.212910  2.211520
C    -0.755122  -0.950749  2.471757
C    -2.262633  -1.058713  2.199257
S    -2.904708  -2.561968  3.002062
C    -4.656008  -2.472651  2.625606
H    -0.576726  -0.933310  3.556236
H    -0.222194  -1.836983  2.089632
H    -2.502978  -1.128539  1.125307
H    -2.805572  -0.193104  2.610926
H    -5.098908  -1.564127  3.057235
H    -5.108385  -3.358258  3.086985
H    -4.823676  -2.496543  1.539732
O    2.213858  0.883162  1.573992
H    0.858827  0.822758  0.142977
Cd    3.728962  1.056454  3.411083
