21
Energy: -175946.3845549  eV PBE+vdW (tier 2 basis)
N    -0.039875  0.163103  0.016784
C    -0.448106  0.062810  1.445939
C    0.772315  0.181143  2.381176
O    1.945244  0.047994  2.007326
H    -0.345992  1.056494  -0.382112
H    -0.487015  -0.565674  -0.547402
H    -1.103073  0.919855  1.670500
C    -1.251515  -1.239992  1.750162
C    -0.442198  -2.546998  1.693310
S    -1.490583  -4.029424  1.841238
C    -1.739088  -4.200639  3.609973
H    -2.093059  -1.273195  1.042368
H    -1.711163  -1.129185  2.742790
H    0.331421  -2.591587  2.474811
H    0.054442  -2.683148  0.720303
H    -2.346932  -5.104836  3.736773
H    -2.281674  -3.342521  4.029857
H    -0.775720  -4.331751  4.123146
O    0.566971  0.392597  3.658903
H    -0.366338  0.562746  3.897108
Cd    2.320126  0.027316  -0.199482
