21
Energy: -175946.7354153  eV PBE+vdW (tier 2 basis)
N    -0.492710  0.086227  0.453606
C    0.057765  0.005709  1.796936
C    1.568055  -0.398523  1.829839
O    2.250388  -0.158265  2.785466
H    -0.150402  -0.648243  -0.175767
H    -0.400437  0.998811  -0.001769
H    -0.006592  0.994236  2.270242
C    -0.773169  -1.018531  2.579541
C    -2.252979  -0.609173  2.543150
S    -2.840265  -0.250562  0.839518
C    -2.917395  -1.891303  0.050013
H    -0.453302  -1.055681  3.630463
H    -0.635810  -2.028972  2.167887
H    -2.433895  0.326670  3.091401
H    -2.886024  -1.397523  2.967192
H    -3.509931  -2.580648  0.659647
H    -1.903192  -2.286550  -0.066804
H    -3.377976  -1.746005  -0.934223
O    1.917761  -1.046031  0.709117
H    2.862220  -1.311597  0.759707
Cd    -5.575690  0.013416  1.330330
