21
Energy: -175946.6023027  eV PBE+vdW (tier 2 basis)
N    0.199383  1.092209  0.780006
C    0.153567  -0.033455  1.779746
C    1.541449  -0.713528  1.961516
O    2.635556  -0.008744  1.822912
H    0.108059  0.748692  -0.182945
H    -0.579786  1.742248  0.929777
H    -0.034918  0.454535  2.750254
C    -1.023436  -1.016378  1.548339
C    -0.833594  -2.164457  0.532112
S    -0.598771  -3.754546  1.425436
C    0.062751  -4.899284  0.190677
H    -1.901236  -0.427683  1.248100
H    -1.298365  -1.423711  2.532417
H    0.020330  -2.033399  -0.145044
H    -1.735903  -2.313085  -0.072452
H    -0.749092  -5.123931  -0.510467
H    0.330733  -5.810036  0.741110
H    0.935258  -4.475476  -0.315313
O    1.607253  -1.890267  2.304147
H    0.565886  -3.320975  2.032619
Cd    2.330231  1.933037  1.093178
