21
Energy: -175947.7187851  eV PBE+vdW (tier 2 basis)
N    1.202717  -0.400815  0.859463
C    0.126769  0.167311  1.716236
C    0.749951  1.233809  2.639912
O    1.912700  1.146833  3.062518
H    1.488066  0.277201  0.143543
H    0.865865  -1.220891  0.345875
H    -0.623354  0.666678  1.083100
C    -0.616199  -0.913908  2.583941
C    0.020346  -2.289169  2.841488
S    1.575650  -2.510561  3.823963
C    1.234240  -1.706069  5.419701
H    -1.562482  -1.141968  2.070854
H    -0.913960  -0.456449  3.537570
H    0.235889  -2.845339  1.917865
H    -0.713559  -2.900397  3.387995
H    0.409204  -2.263635  5.881446
H    0.992297  -0.643732  5.323815
H    2.139401  -1.839253  6.024618
O    0.021229  2.239231  3.050299
H    -0.862251  2.299987  2.633010
Cd    2.835487  -0.804865  2.478787
