21
Energy: -175946.2745219  eV PBE+vdW (tier 2 basis)
N    0.802560  0.658880  0.175674
C    0.331036  0.182004  1.398866
C    1.515920  -0.285827  2.258991
O    2.525614  -0.780164  1.874576
H    0.159505  0.785164  -0.600845
H    1.658091  1.205798  0.127921
H    -0.176999  1.050149  2.021907
C    -0.735139  -0.928200  1.172380
C    -1.361575  -1.645222  2.374406
S    -2.568122  -0.611267  3.337765
C    -3.063391  -1.729350  4.680342
H    -0.240065  -1.707907  0.572922
H    -1.524941  -0.503744  0.534822
H    -0.625427  -2.067708  3.070427
H    -1.981796  -2.475390  2.006152
H    -3.648598  -2.528712  4.204064
H    -3.713204  -1.153448  5.349530
H    -2.203104  -2.143236  5.215106
O    1.262209  -0.075897  3.632834
H    2.041244  -0.387430  4.146263
Cd    -0.789371  1.023387  4.082515
