21
Energy: -175947.3979942  eV PBE+vdW (tier 2 basis)
N    -0.371424  0.275726  0.047875
C    -0.184242  0.351533  1.548195
C    1.298595  0.883560  1.665364
O    1.799006  1.191309  2.826637
H    -1.065893  0.939744  -0.315586
H    -0.603305  -0.660379  -0.304855
H    -0.860303  1.137668  1.913003
C    -0.478961  -1.002881  2.259288
C    -1.516081  -0.972234  3.402662
S    -0.987073  -0.697756  5.161759
C    -0.233879  -2.291921  5.630117
H    0.457531  -1.483411  2.580496
H    -0.892548  -1.701855  1.516846
H    -2.037669  -1.937702  3.468069
H    -2.287097  -0.204772  3.247130
H    0.173217  -2.160058  6.639881
H    0.545201  -2.615807  4.933493
H    -1.058540  -3.015421  5.664885
O    1.916597  1.010368  0.616726
H    0.615399  0.561351  -0.288552
Cd    0.936558  0.781268  4.648330
