21
Energy: -175946.9635047  eV PBE+vdW (tier 2 basis)
N    0.296654  0.330658  -0.102892
C    -0.054705  0.195582  1.376374
C    1.273303  0.336135  2.169785
O    1.242254  0.125139  3.411071
H    0.463917  -0.587056  -0.539684
H    -0.434409  0.812856  -0.642791
H    -0.640746  1.093103  1.630335
C    -0.847525  -1.071089  1.695851
C    -2.276474  -1.082218  1.098144
S    -3.317741  -2.373533  1.833135
C    -2.887504  -3.845470  0.898876
H    -0.909039  -1.119042  2.791978
H    -0.283063  -1.962025  1.379153
H    -2.284458  -1.207342  0.005513
H    -2.800512  -0.146075  1.340283
H    -3.522804  -4.647144  1.294090
H    -1.834258  -4.122485  1.046064
H    -3.099741  -3.701746  -0.169427
O    2.296266  0.707011  1.522072
H    1.187453  0.862785  -0.164666
Cd    3.460150  0.674548  3.598955
