21
Energy: -175946.7181030  eV PBE+vdW (tier 2 basis)
N    0.167879  1.291473  1.728528
C    0.269591  0.061752  2.565096
C    1.722478  -0.475992  2.605917
O    2.575396  -0.203180  1.752302
H    0.182930  2.131263  2.320722
H    -0.750101  1.305209  1.224365
H    -0.004029  0.324476  3.601078
C    -0.658894  -1.066166  2.047713
C    -2.157012  -0.775478  2.216441
S    -2.744531  0.420511  0.973813
C    -4.234735  1.102815  1.720554
H    -0.432501  -1.988467  2.602019
H    -0.421621  -1.292286  0.995505
H    -2.396760  -0.399960  3.222012
H    -2.719160  -1.710196  2.069753
H    -4.966885  0.295337  1.857540
H    -4.628607  1.835632  1.007037
H    -4.015427  1.585460  2.680977
O    2.062557  -1.302132  3.561081
H    1.371819  -1.456026  4.236747
Cd    2.021353  1.424065  0.321578
