21
Energy: -175947.1488496  eV PBE+vdW (tier 2 basis)
N    -0.518323  1.895598  1.363512
C    -0.420392  1.155658  2.676407
C    0.935093  1.484977  3.349912
O    1.052018  1.185975  4.574241
H    -0.830250  2.869371  1.478371
H    -1.201006  1.379968  0.722030
H    -1.219524  1.534075  3.328090
C    -0.572701  -0.362796  2.470895
C    -1.942721  -0.793633  1.922649
S    -2.101256  -0.462971  0.132633
C    -3.882789  -0.538352  -0.136820
H    -0.439345  -0.827547  3.457521
H    0.239902  -0.745871  1.833282
H    -2.775242  -0.309013  2.455134
H    -2.050620  -1.878901  2.069287
H    -4.240241  -1.549316  0.097776
H    -4.038778  -0.334296  -1.202290
H    -4.410279  0.205818  0.472353
O    1.851647  2.003754  2.651096
H    0.404690  1.921841  0.900499
Cd    3.179426  1.934430  4.575721
