21
Energy: -175946.3169203  eV PBE+vdW (tier 2 basis)
N    -0.014732  -0.213016  -0.078641
C    -0.016547  -0.101594  1.336366
C    1.352292  -0.330590  2.025334
O    2.381693  -0.751583  1.651445
H    0.418495  0.557508  -0.583564
H    0.296884  -1.109223  -0.451479
H    -0.267411  0.947018  1.582680
C    -1.079625  -1.067449  1.961062
C    -2.488048  -0.499836  2.083591
S    -2.638968  0.963744  3.228930
C    -4.117795  0.600443  4.222292
H    -0.753565  -1.467512  2.939240
H    -1.140574  -1.953514  1.310994
H    -3.189118  -1.259121  2.450528
H    -2.858774  -0.105900  1.125475
H    -4.055405  -0.374448  4.714384
H    -4.957808  0.633197  3.514125
H    -4.223300  1.417176  4.946150
O    1.275850  0.134717  3.480639
H    2.173917  0.017054  3.865730
Cd    -0.551488  0.633459  4.579460
