21
Energy: -175946.5541874  eV PBE+vdW (tier 2 basis)
N    0.320582  0.219862  0.250714
C    0.045282  0.057568  1.702369
C    1.349594  0.165893  2.531301
O    2.482026  0.070922  2.045607
H    -0.016219  1.122883  -0.097180
H    -0.149751  -0.503260  -0.300862
H    -0.598199  0.893105  2.026175
C    -0.652828  -1.291705  2.007002
C    -2.121380  -1.315498  1.553500
S    -2.820999  -2.953446  1.898901
C    -4.587072  -2.656309  1.798427
H    -0.606529  -1.493376  3.086868
H    -0.081032  -2.104833  1.530124
H    -2.228274  -1.117184  0.471783
H    -2.719177  -0.558577  2.084114
H    -4.905058  -1.945881  2.574626
H    -5.064612  -3.628158  1.970349
H    -4.860801  -2.278051  0.803650
O    1.259671  0.341200  3.826512
H    0.348304  0.453965  4.162550
Cd    2.675778  0.092563  -0.185762
