21
Energy: -175946.9536661  eV PBE+vdW (tier 2 basis)
N    0.134045  -2.386055  0.521316
C    0.117817  -1.092494  1.330344
C    1.559206  -0.845075  1.813814
O    2.475212  -1.594050  1.354607
H    -0.494473  -2.350923  -0.292377
H    -0.131907  -3.199707  1.095017
H    -0.116369  -0.285484  0.615709
C    -0.920748  -1.109626  2.455333
C    -2.388613  -1.169934  1.990781
S    -2.930793  0.205094  0.929832
C    -3.259201  1.521572  2.109588
H    -0.747895  -0.203522  3.051187
H    -0.726152  -1.956636  3.134680
H    -3.041255  -1.208977  2.873883
H    -2.606984  -2.077816  1.407824
H    -2.363615  1.782811  2.688738
H    -4.070253  1.219372  2.786946
H    -3.578755  2.387665  1.518709
O    1.757602  0.114230  2.612611
H    1.109972  -2.544365  0.200765
Cd    3.998158  -0.290083  2.589689
