21
Energy: -175947.0162147  eV PBE+vdW (tier 2 basis)
N    -1.292961  0.279740  0.632246
C    -1.619726  -0.374875  1.965373
C    -0.431920  -0.136301  2.921146
O    -0.439322  -0.744671  4.030933
H    -2.135699  0.655661  0.176762
H    -0.611851  1.044565  0.777846
H    -2.445479  0.206005  2.405706
C    -2.072463  -1.834412  1.820545
C    -1.064846  -2.828707  1.227990
S    -0.901197  -2.601284  -0.577195
C    0.495272  -3.652960  -1.003745
H    -3.010976  -1.852483  1.244845
H    -2.340839  -2.172300  2.831210
H    -1.424888  -3.852967  1.403571
H    -0.069920  -2.751829  1.692450
H    1.405206  -3.336374  -0.478597
H    0.632823  -3.556966  -2.086787
H    0.253101  -4.694895  -0.755319
O    0.453939  0.706988  2.581275
H    -0.871245  -0.431500  -0.020616
Cd    1.387989  0.410566  4.696361
