21
Energy: -175947.3838352  eV PBE+vdW (tier 2 basis)
N    0.196726  -2.108105  0.077706
C    -0.174336  -0.964865  1.002975
C    0.653659  -1.290611  2.295834
O    0.928848  -0.347656  3.154268
H    -0.583790  -2.472728  -0.483565
H    0.966682  -1.869644  -0.561649
H    0.175078  -0.034844  0.534651
C    -1.713874  -0.965803  1.177988
C    -2.361488  -0.157423  2.309839
S    -2.145661  1.687410  2.197062
C    -3.335690  2.287104  3.439467
H    -2.032562  -2.003097  1.376725
H    -2.167156  -0.671254  0.219562
H    -2.056551  -0.501209  3.306554
H    -3.450941  -0.287968  2.237129
H    -4.333287  2.105594  3.019234
H    -3.170449  3.366694  3.534392
H    -3.214670  1.780578  4.401749
O    1.023729  -2.447910  2.429493
H    0.554483  -2.840409  0.761317
Cd    0.139247  1.573143  3.229268
