21
Energy: -175946.9772794  eV PBE+vdW (tier 2 basis)
N    0.709807  -0.559138  0.273629
C    0.330533  -0.532882  1.668823
C    1.212924  -1.573232  2.367176
O    0.947584  -2.795019  2.579465
H    0.619065  -1.449309  -0.212104
H    1.581603  -0.087518  0.042155
H    0.618855  0.445491  2.079920
C    -1.197815  -0.699918  1.782351
C    -1.814902  -0.565038  3.193407
S    -2.888223  -2.020912  3.578432
C    -3.176395  -1.931232  5.369086
H    -1.511380  -1.641570  1.286563
H    -1.619749  0.071232  1.125410
H    -2.500717  0.291918  3.246840
H    -1.075383  -0.451198  3.997505
H    -3.838837  -1.067356  5.519645
H    -2.248467  -1.816725  5.937133
H    -3.710541  -2.847339  5.648955
O    2.413924  -1.123296  2.625266
H    3.021805  -1.835100  2.926516
Cd    -0.993175  -3.549264  3.067419
