21
Energy: -175946.7911818  eV PBE+vdW (tier 2 basis)
N    0.666485  -0.645530  -0.227782
C    -0.092330  -0.156245  0.842618
C    0.925640  0.462275  1.981082
O    1.358048  1.616934  1.745251
H    1.075411  0.011196  -0.886175
H    1.152927  -1.533917  -0.142988
H    -0.662989  0.723787  0.516874
C    -1.009778  -1.247801  1.428160
C    -1.992865  -0.733758  2.485590
S    -3.290966  -2.000664  2.783771
C    -4.268042  -1.349023  4.162724
H    -0.393527  -2.059211  1.841547
H    -1.564074  -1.652949  0.568784
H    -2.568715  0.133362  2.129638
H    -1.525298  -0.490710  3.447268
H    -4.942865  -2.160140  4.464731
H    -4.855725  -0.515954  3.759733
H    -3.625788  -1.034085  4.990377
O    1.255283  -0.263322  2.950205
H    -2.535979  -2.905659  3.466821
Cd    2.790909  1.435963  3.517190
