21
Energy: -175946.7809317  eV PBE+vdW (tier 2 basis)
N    -0.688728  1.099221  0.962980
C    -0.509761  -0.093657  1.695760
C    1.045395  -0.563783  1.672189
O    1.510208  -1.030718  0.602064
H    -0.402516  1.970550  1.402082
H    -0.497088  1.075448  -0.037170
H    -0.698385  0.107379  2.758055
C    -1.358151  -1.265554  1.161246
C    -2.856187  -0.973644  1.060440
S    -3.898482  -0.970417  2.572929
C    -3.725339  -2.610984  3.316380
H    -1.156147  -2.173329  1.746091
H    -1.027853  -1.496934  0.136246
H    -3.364110  -1.718221  0.430480
H    -3.057649  0.016059  0.626037
H    -4.249500  -3.305455  2.649046
H    -4.250871  -2.564189  4.278517
H    -2.678259  -2.893358  3.453092
O    1.701842  -0.376678  2.730636
H    -3.098566  -0.262534  3.416000
Cd    3.576431  -1.091852  1.635270
