21
Energy: -175946.2764434  eV PBE+vdW (tier 2 basis)
N    -0.318771  1.026898  0.544572
C    -0.325831  0.560710  1.857636
C    1.134291  0.544328  2.394795
O    2.070364  0.257367  1.694716
H    0.481723  0.830418  -0.057258
H    -1.094097  1.555826  0.155842
H    -0.993487  1.164777  2.485238
C    -0.862367  -0.981973  1.901303
C    -1.047939  -1.482200  3.339937
S    -1.614122  -3.205986  3.173006
C    -3.409291  -3.070988  2.928220
H    -0.134250  -1.587922  1.346740
H    -1.811160  -0.969622  1.351738
H    -1.775355  -0.899577  3.918199
H    -0.098650  -1.525696  3.888817
H    -3.573859  -2.602026  1.950337
H    -3.885283  -2.491450  3.725657
H    -3.802401  -4.093951  2.889951
O    1.156809  0.864083  3.696268
H    2.091727  0.911919  3.993439
Cd    -1.506359  -4.552581  5.491726
