21
Energy: -175947.6959681  eV PBE+vdW (tier 2 basis)
N    0.433711  -0.141540  -0.105527
C    0.193571  0.126925  1.371851
C    1.552774  0.189353  2.061160
O    2.494436  -0.473607  1.519364
H    1.301540  -0.705665  -0.191081
H    0.595340  0.736792  -0.621170
H    -0.356755  1.070177  1.456092
C    -0.595924  -1.005087  2.074662
C    0.099858  -2.359890  2.351268
S    1.145929  -2.692063  3.854967
C    0.118664  -2.115110  5.237473
H    -1.491886  -1.231485  1.474591
H    -0.985585  -0.571854  3.004945
H    0.736531  -2.710181  1.527472
H    -0.684092  -3.120066  2.481583
H    -0.817696  -2.686667  5.205969
H    -0.068606  -1.037887  5.199366
H    0.664297  -2.377360  6.152150
O    1.574753  0.656532  3.233266
H    -0.351945  -0.626374  -0.562130
Cd    3.080083  -0.969943  3.713725
