21
Energy: -175948.1237657  eV PBE+vdW (tier 2 basis)
N    -0.221722  -1.204300  -0.156744
C    0.004614  -0.278960  0.994608
C    1.395068  -0.565224  1.571760
O    1.919576  -1.692800  1.553433
H    0.317931  -0.901447  -0.975944
H    -1.205940  -1.176368  -0.442525
H    -0.004891  0.764978  0.648565
C    -1.093949  -0.420590  2.088599
C    -1.051689  -1.594326  3.080488
S    -1.486010  -3.261330  2.381448
C    -1.210556  -4.363648  3.799789
H    -2.074595  -0.364936  1.591976
H    -1.035185  0.487355  2.707724
H    -1.827666  -1.431147  3.842418
H    -0.090340  -1.679987  3.604281
H    -1.976390  -4.110348  4.544212
H    -0.204081  -4.254556  4.214414
H    -1.380965  -5.384188  3.437400
O    1.948504  0.483115  2.119110
H    2.828996  0.275052  2.507085
Cd    0.436144  -3.220899  0.762135
