21
Energy: -175947.1026843  eV PBE+vdW (tier 2 basis)
N    -0.462426  -0.348734  -0.096001
C    -0.243876  0.053774  1.351664
C    1.258973  0.352407  1.548889
O    1.978538  0.499343  0.513433
H    -1.396203  -0.075065  -0.428985
H    -0.385608  -1.405389  -0.163897
H    -0.729400  1.032640  1.490058
C    -0.851458  -0.956380  2.327423
C    -0.189632  -2.346647  2.394519
S    -0.248055  -3.332705  0.860537
C    -1.868888  -4.122799  0.944016
H    -1.924972  -1.054351  2.106560
H    -0.787376  -0.504194  3.328278
H    -0.660101  -2.933096  3.194282
H    0.878160  -2.263630  2.643770
H    -1.883650  -4.820489  1.791719
H    -1.990504  -4.681902  0.009231
H    -2.677060  -3.387764  1.048059
O    1.682522  0.497887  2.731897
H    0.258551  0.084214  -0.697709
Cd    3.714132  1.102228  1.929971
