21
Energy: -175946.6998176  eV PBE+vdW (tier 2 basis)
N    0.660343  -0.396146  0.197196
C    0.076201  -0.252908  1.578355
C    1.103851  0.137297  2.677258
O    2.386217  -0.034914  2.516249
H    0.459879  0.435230  -0.369173
H    0.247934  -1.189572  -0.306181
H    -0.619475  0.599125  1.542036
C    -0.698231  -1.549726  1.939932
C    -1.158258  -1.753199  3.392037
S    -2.204250  -0.386167  4.040882
C    -2.447439  -0.841023  5.777830
H    -0.057686  -2.421149  1.722048
H    -1.564719  -1.619757  1.266269
H    -0.320906  -1.868801  4.090397
H    -1.787794  -2.651012  3.442969
H    -2.928118  0.024773  6.249761
H    -1.490834  -1.071846  6.256675
H    -3.132072  -1.696520  5.794240
O    0.651672  0.582929  3.731384
H    -1.111084  0.465341  4.151302
Cd    2.930532  -0.553891  0.557584
