23
Energy: -565415.511042 eV PBE+vdW (tier 2 basis)
N    0.841405  -0.453289  0.204869
C    0.369989  -0.270784  1.585448
C    1.551943  -0.338289  2.578726
O    2.548144  -1.061997  2.384764
H    0.082771  -0.713397  -0.436655
H    1.349600  0.352764  -0.179704
H    -0.063354  0.744597  1.660490
C    -0.743047  -1.316368  1.954346
C    -1.464932  -0.950350  3.274746
C    -0.246380  -2.762153  1.994389
C    -2.011712  0.477369  3.340073
H    -1.485162  -1.207193  1.143366
H    -0.814310  -1.168141  4.136770
H    -2.304373  -1.653162  3.369050
H    0.432786  -2.967468  2.832650
H    0.222122  -3.122382  1.040675
H    -1.097955  -3.452711  2.091935
H    -1.246425  1.274599  3.390840
H    -2.607405  0.598005  4.256024
H    -2.668125  0.714404  2.491755
O    1.491986  0.319551  3.696915
H    0.683103  0.869651  3.791191
Hg    2.359156  -2.199332  0.391601
