23
Energy: -565415.490494 eV PBE+vdW (tier 2 basis)
N    0.525153  -0.960002  0.010028
C    0.284927  -0.430312  1.357567
C    1.616155  -0.240632  2.148984
O    2.601087  -0.977693  1.997299
H    0.707895  -0.242688  -0.702573
H    -0.247169  -1.561686  -0.304581
H    -0.128177  0.589494  1.233972
C    -0.707684  -1.341026  2.140481
C    -2.111621  -1.204740  1.466149
C    -0.767840  -1.047371  3.641921
C    -3.141776  -2.200402  1.965234
H    -0.356899  -2.382656  2.003193
H    -1.997105  -1.335482  0.368057
H    -2.476891  -0.173035  1.597251
H    0.189162  -1.206871  4.155367
H    -1.482560  -1.728822  4.115227
H    -1.124261  -0.026860  3.849611
H    -4.061300  -2.106852  1.363862
H    -3.464870  -2.001242  2.998733
H    -2.792025  -3.239080  1.906142
O    1.696708  0.699666  3.042772
H    0.882920  1.236802  3.143712
Hg    2.427120  -2.335934  0.133261
