23
Energy: -565415.61458 eV PBE+vdW (tier 2 basis)
N    0.274538  0.263428  0.990725
C    -0.396019  -0.187340  2.219067
C    0.575820  -0.283465  3.426554
O    1.802824  -0.424814  3.322122
H    0.322502  1.284405  0.896588
H    -0.161834  -0.124144  0.147716
H    -1.106170  0.609741  2.506827
C    -1.184964  -1.536558  2.019452
C    -0.518441  -2.591127  1.108241
C    -2.596631  -1.198772  1.500833
C    0.838867  -3.175704  1.478135
H    -1.282996  -1.983963  3.021340
H    -0.533184  -2.273946  0.051739
H    -1.218035  -3.445746  1.111774
H    -2.566455  -0.732672  0.503972
H    -3.131751  -0.519558  2.176674
H    -3.195601  -2.113225  1.416064
H    1.016437  -4.149784  0.999204
H    1.032128  -3.269011  2.553702
H    1.719265  -2.586107  1.031848
O    0.075511  -0.246248  4.629550
H    -0.890298  -0.085202  4.670333
Hg    2.442900  -0.611367  1.119062
