23
Energy: -565416.015611 eV PBE+vdW (tier 2 basis)
N    -0.575208  0.533970  0.019001
C    -0.237840  0.088972  1.434061
C    1.318914  -0.005102  1.579721
O    1.748053  -0.440383  2.684418
H    -1.572189  0.796662  -0.029384
H    -0.425819  -0.233345  -0.654914
H    -0.498619  0.932433  2.093778
C    -1.021290  -1.168666  1.840400
C    -0.841935  -2.397385  0.915798
C    -2.514904  -0.796277  1.977312
C    0.576236  -2.941873  0.768440
H    -0.622318  -1.422489  2.836224
H    -1.286303  -2.187299  -0.075053
H    -1.487853  -3.183378  1.330787
H    -2.671376  0.072696  2.629259
H    -3.040201  -1.650262  2.426698
H    -3.010243  -0.616674  1.010391
H    1.252508  -2.266604  0.220521
H    0.553649  -3.877681  0.193487
H    1.028156  -3.180689  1.741461
O    2.020986  0.423937  0.631104
H    -0.007844  1.338242  -0.287875
Hg    3.922191  -0.077549  2.053980
