23
Energy: -565415.555344 eV PBE+vdW (tier 2 basis)
N    -0.428978  0.318833  0.215943
C    -0.050416  -0.106626  1.575269
C    1.429308  -0.547354  1.602335
O    1.981849  -1.080680  0.623473
H    0.002454  1.201664  -0.081905
H    -1.448930  0.385140  0.111977
H    -0.157788  0.766766  2.242548
C    -0.995059  -1.253532  2.107497
C    -0.753355  -2.630154  1.454220
C    -2.451632  -0.771023  2.081127
C    -1.759457  -3.723849  1.812503
H    -0.706171  -1.381426  3.164943
H    0.267815  -2.983611  1.656937
H    -0.835613  -2.576191  0.305029
H    -2.558784  0.232323  2.514391
H    -3.083416  -1.439504  2.676710
H    -2.887519  -0.768061  1.068116
H    -1.454206  -4.687039  1.390178
H    -2.781115  -3.504204  1.483679
H    -1.774557  -3.830926  2.912543
O    2.120509  -0.435706  2.700503
H    1.666156  0.040604  3.426735
Hg    0.422429  -1.414047  -1.067451
