23
Energy: -565415.596799 eV PBE+vdW (tier 2 basis)
N    -0.042452  -0.743277  -0.431640
C    -0.029371  -0.351416  0.886388
C    1.523702  -0.379153  1.435369
O    1.970888  0.726288  1.682827
H    -0.265475  -0.082762  -1.174967
H    0.162542  -1.695656  -0.731331
H    -0.331253  0.696704  0.984513
C    -0.828106  -1.239655  1.954832
C    -2.327815  -1.161188  1.517719
C    -0.569242  -0.782470  3.379180
C    -3.064581  0.156872  1.635254
H    -0.496279  -2.284494  1.814513
H    -2.789859  -1.891142  2.212578
H    -2.406625  -1.566550  0.498795
H    0.442814  -1.017633  3.736896
H    -1.252562  -1.315630  4.056943
H    -0.758516  0.290476  3.516064
H    -3.012500  0.590204  2.641526
H    -4.134717  -0.003771  1.424878
H    -2.739809  0.900141  0.890389
O    2.207709  -1.480320  1.531217
H    1.701867  -2.306558  1.382907
Hg    4.276292  1.140107  2.458862
