23
Energy: -565416.093572 eV PBE+vdW (tier 2 basis)
N    -0.207943  0.387995  0.159036
C    0.032891  0.026190  1.615314
C    1.580890  -0.145202  1.810552
O    2.314245  0.213620  0.863800
H    -1.118876  0.857342  0.044979
H    0.535768  1.007826  -0.202238
H    -0.229165  0.919006  2.204525
C    -0.798877  -1.189653  2.044663
C    -0.831478  -1.335268  3.569175
C    -0.402222  -2.483539  1.322291
C    -1.447279  -0.205435  4.379001
H    -1.835626  -0.925681  1.738054
H    0.220630  -1.497053  3.914678
H    -1.320283  -2.295091  3.803453
H    0.589520  -2.834405  1.642167
H    -0.398436  -2.407074  0.223395
H    -1.120866  -3.275969  1.561342
H    -0.950549  0.767055  4.250120
H    -1.409824  -0.439698  5.449497
H    -2.513075  -0.075274  4.124892
O    1.973653  -0.592017  2.933004
H    -0.214879  -0.459883  -0.430925
Hg    4.197128  -0.393290  2.358769
