23
Energy: -565415.481094 eV PBE+vdW (tier 2 basis)
N    0.886741  -0.103381  0.423409
C    0.105955  0.241546  1.604175
C    0.960994  0.882701  2.744289
O    2.167280  1.138550  2.638234
H    0.445551  0.185527  -0.456115
H    1.098606  -1.110926  0.389013
H    -0.603533  1.035365  1.315701
C    -0.685028  -1.042491  2.143958
C    0.255017  -2.226741  2.409518
C    -1.840410  -1.338562  1.184293
C    -0.421588  -3.360123  3.187293
H    -1.117443  -0.732302  3.111001
H    1.138211  -1.895592  2.984539
H    0.636209  -2.644558  1.456251
H    -2.479810  -0.464291  1.003298
H    -2.483592  -2.104613  1.641199
H    -1.494992  -1.733454  0.218466
H    0.306488  -4.146923  3.414494
H    -1.244352  -3.810389  2.614752
H    -0.837364  -3.009609  4.143752
O    0.372032  1.205673  3.858368
H    -0.582334  0.985602  3.892614
Hg    3.021102  0.871138  0.499288
