23
Energy: -565416.05834 eV PBE+vdW (tier 2 basis)
N    -0.360732  1.183590  1.168642
C    -0.115260  0.219868  2.317435
C    1.451738  0.061919  2.443071
O    1.884199  -0.469071  3.506709
H    0.086817  0.853719  0.298921
H    0.008955  2.126222  1.361569
H    -0.459470  0.726529  3.231233
C    -0.826780  -1.133837  2.134238
C    -2.319300  -0.876244  1.664027
C    -0.774382  -1.925198  3.434388
C    -3.120193  -2.167666  1.535349
H    -0.333228  -1.695434  1.322478
H    -2.309451  -0.391923  0.672327
H    -2.803685  -0.195735  2.383728
H    0.248646  -1.990192  3.840521
H    -1.105616  -2.956124  3.271487
H    -1.403054  -1.469871  4.212234
H    -4.091148  -1.918170  1.075728
H    -3.326508  -2.634967  2.503579
H    -2.634875  -2.900085  0.877047
O    2.140539  0.483400  1.490117
H    -1.377328  1.260370  1.001161
Hg    4.077117  -0.325100  2.832014
