23
Energy: -565416.073275 eV PBE+vdW (tier 2 basis)
N    0.432303  -0.960941  0.011836
C    0.044149  -0.369437  1.350318
C    1.391089  0.009449  2.093513
O    2.381081  -0.721576  1.905155
H    0.816465  -0.264394  -0.643747
H    1.136858  -1.706507  0.131126
H    -0.498653  0.564980  1.158310
C    -0.791830  -1.367464  2.171952
C    -2.230776  -1.496507  1.540761
C    -0.915947  -0.950007  3.639652
C    -2.361639  -2.023532  0.116663
H    -0.291500  -2.350258  2.118981
H    -2.755150  -0.536581  1.652813
H    -2.730633  -2.203560  2.221943
H    0.047107  -1.010060  4.166083
H    -1.593177  -1.636519  4.161051
H    -1.320651  0.064688  3.747825
H    -3.408160  -2.318208  -0.064330
H    -1.773116  -2.936695  -0.068819
H    -2.183645  -1.268312  -0.672052
O    1.330530  1.038791  2.825592
H    -0.423259  -1.375518  -0.417746
Hg    3.476525  0.809901  3.562190
