23
Energy: -565415.733972 eV PBE+vdW (tier 2 basis)
N    0.564716  -0.723617  -0.209061
C    0.126726  -0.282504  1.021418
C    1.457935  0.120717  1.947844
O    1.579868  1.309970  2.154071
H    1.029487  -1.621492  -0.338793
H    0.540244  -0.114266  -1.026310
H    -0.405775  0.670008  0.926539
C    -0.696014  -1.299007  1.912740
C    -2.014986  -1.553763  1.129045
C    -0.943891  -0.746500  3.312229
C    -1.908646  -2.303899  -0.169643
H    -0.128211  -2.247572  1.959819
H    -2.585205  -0.618235  1.021754
H    -2.597033  -2.163551  1.853218
H    -1.559379  -1.456310  3.879872
H    -1.485145  0.208591  3.282561
H    -0.025282  -0.611621  3.899904
H    -1.437716  -1.706277  -0.981328
H    -2.914593  -2.503258  -0.581744
H    -1.377995  -3.259900  -0.079261
O    2.301166  -0.786670  2.344954
H    2.026476  -1.713841  2.187254
Hg    3.494119  2.337287  3.400355
