23
Energy: -565415.475772 eV PBE+vdW (tier 2 basis)
N    0.204368  0.593225  0.371338
C    -0.113680  0.332108  1.780795
C    1.130110  0.544127  2.688324
O    2.283092  0.269929  2.313331
H    0.202285  1.586526  0.106822
H    -0.425475  0.066458  -0.251830
H    -0.857386  1.093109  2.089898
C    -0.687727  -1.102503  1.964490
C    -1.992479  -1.284856  1.131807
C    -0.878324  -1.488496  3.436028
C    -3.212506  -0.519246  1.625019
H    0.064990  -1.793484  1.528026
H    -2.208020  -2.363959  1.117993
H    -1.801823  -1.053810  0.062382
H    0.070393  -1.605961  3.975292
H    -1.386654  -2.459061  3.487842
H    -1.512692  -0.774726  3.980656
H    -3.545481  -0.851152  2.617739
H    -4.056272  -0.698561  0.945267
H    -3.054955  0.569993  1.675258
O    0.979516  0.967074  3.907099
H    0.050164  1.142484  4.165474
Hg    2.360080  -0.231280  0.064169
