30
Energy: -244294.78089 eV PBE+vdW (tier 2 basis)
C    0.036238  -1.398563  0.567950
C    -0.241049  -0.143571  1.328311
O    0.704123  0.653109  1.637723
H    0.524357  -1.146884  -0.383054
H    -0.864361  -1.986024  0.361345
H    0.741621  -2.016939  1.139921
N    -1.496620  0.136152  1.688552
C    -1.854238  1.287035  2.525898
C    -3.126147  1.100008  3.382923
O    -3.109334  1.575900  4.516013
H    -2.203832  -0.566186  1.487639
H    -1.060801  1.375866  3.279812
C    -1.926794  2.598663  1.709765
C    -2.084257  3.847558  2.588076
C    -0.988944  4.012582  3.615963
O    0.225355  3.763681  3.322489
N    -1.317211  4.449501  4.819559
H    -2.769802  2.557508  1.006329
H    -1.023498  2.684811  1.088748
H    -3.061070  3.859470  3.086621
H    -2.050692  4.742341  1.945343
H    -2.288863  4.563638  5.091754
H    -0.604733  4.614748  5.525556
N    -4.185097  0.464768  2.829033
C    -5.441699  0.274232  3.557788
H    -4.204753  0.290139  1.829288
H    -6.115211  1.130966  3.423088
H    -5.215381  0.168414  4.622578
H    -5.932995  -0.633916  3.195145
Ba    2.068689  2.489994  2.406844
