30
Energy: -244294.783208 eV PBE+vdW (tier 2 basis)
C    0.625160  -1.179502  1.184817
C    -0.228998  0.052133  1.252683
O    0.232229  1.189294  1.057157
H    0.065260  -2.116212  1.278541
H    1.369004  -1.129083  1.992035
H    1.181148  -1.176407  0.239611
N    -1.557610  -0.132239  1.536958
C    -2.516968  0.923797  1.880411
C    -2.858719  1.859517  0.707616
O    -4.089642  2.127674  0.469952
H    -1.880258  -1.085946  1.660595
H    -3.457490  0.400866  2.097489
C    -2.080017  1.678501  3.167759
C    -3.166006  2.519632  3.883003
C    -3.401464  3.915433  3.347317
O    -4.411372  4.192081  2.633440
N    -2.517591  4.860341  3.653380
H    -1.185153  2.280731  2.963158
H    -1.768825  0.897231  3.873376
H    -2.868991  2.611545  4.937734
H    -4.130060  1.994299  3.878993
H    -1.727302  4.677115  4.263505
H    -2.654542  5.816118  3.335374
N    -1.872149  2.373286  0.009940
C    -2.042814  3.241821  -1.146693
H    -0.908651  2.069831  0.330801
H    -1.093270  3.290439  -1.686900
H    -2.313853  4.262329  -0.839103
H    -2.814519  2.845953  -1.817938
Ba    -5.973792  3.524843  0.881241
