30
Energy: -244294.592722 eV PBE+vdW (tier 2 basis)
C    -0.226536  -1.246600  -0.956505
C    0.056605  -0.754334  0.423892
O    1.248712  -0.799420  0.889663
H    -1.276268  -1.152404  -1.248260
H    0.091725  -2.292605  -1.057645
H    0.388711  -0.665668  -1.658341
N    -0.895650  -0.249382  1.198227
C    -2.347036  -0.353968  1.163658
C    -2.774133  0.522915  2.376120
O    -1.956410  0.687316  3.295030
H    -0.631055  0.138711  2.121154
H    -2.749508  0.055236  0.228645
C    -2.863153  -1.820126  1.357491
C    -1.895008  -2.825535  2.026221
C    -1.308769  -2.467266  3.380362
O    -0.066818  -2.245273  3.513160
N    -2.118228  -2.423411  4.429786
H    -3.111823  -2.244537  0.376201
H    -3.810627  -1.782121  1.912405
H    -1.046775  -3.036991  1.365785
H    -2.440776  -3.775604  2.132204
H    -3.109545  -2.623799  4.351100
H    -1.762171  -2.161560  5.344958
N    -4.020954  1.015633  2.393507
C    -5.012379  1.000803  1.315827
H    -4.232626  1.573217  3.218350
H    -5.225856  -0.017744  0.969051
H    -4.698829  1.620949  0.465195
H    -5.945361  1.414097  1.709149
Ba    2.228519  -1.571816  2.958253
