30
Energy: -244294.601364 eV PBE+vdW (tier 2 basis)
C    0.322456  0.605981  0.038404
C    -0.001798  0.312764  1.469323
O    0.870256  0.503071  2.371196
H    -0.517350  0.442265  -0.644542
H    1.161018  -0.034714  -0.268796
H    0.664291  1.645173  -0.052533
N    -1.225929  -0.151314  1.754044
C    -1.769605  -0.650171  3.035588
C    -1.893541  0.469616  4.077966
O    -0.879718  0.852122  4.752977
H    -1.843396  -0.273544  0.955886
H    -2.783781  -0.998580  2.805787
C    -1.027029  -1.891047  3.569571
C    -1.743562  -2.607390  4.729705
C    -3.129196  -3.139974  4.348403
O    -3.921605  -2.447058  3.698487
N    -3.433920  -4.380534  4.775962
H    -0.005596  -1.632622  3.887391
H    -0.914274  -2.584124  2.723723
H    -1.888170  -1.924676  5.582871
H    -1.094646  -3.416450  5.090105
H    -2.792313  -4.956033  5.306441
H    -4.358778  -4.751165  4.578567
N    -3.073240  1.029177  4.290487
C    -4.362820  0.751752  3.640591
H    -3.068093  1.756807  5.005577
H    -4.386886  1.175882  2.628885
H    -5.143204  1.234651  4.234923
H    -4.554257  -0.327488  3.614257
Ba    1.514106  1.152445  4.598620
