30
Energy: -244294.852758 eV PBE+vdW (tier 2 basis)
C    0.471026  -0.674859  0.676599
C    -0.100660  -0.815943  2.053993
O    0.330030  -1.738864  2.833315
H    0.228503  -1.580375  0.102481
H    1.565292  -0.604806  0.726532
H    0.078971  0.193970  0.138729
N    -1.048659  0.029452  2.419787
C    -1.846308  0.094715  3.640965
C    -2.696732  1.390289  3.419018
O    -2.367263  2.156620  2.509675
H    -1.296282  0.839639  1.818158
H    -2.514884  -0.780012  3.681543
C    -1.028469  0.130467  4.950651
C    0.128496  1.145943  4.968080
C    1.307073  0.669055  5.785550
O    1.787050  -0.492797  5.610189
N    1.850355  1.495514  6.669190
H    -0.639766  -0.878675  5.133035
H    -1.716530  0.338123  5.780741
H    -0.213099  2.132725  5.303199
H    0.518433  1.289954  3.946597
H    1.483050  2.428617  6.825550
H    2.668754  1.212453  7.203021
N    -3.723362  1.585254  4.260945
C    -4.620850  2.738192  4.168214
H    -3.980701  0.841227  4.901499
H    -5.566081  2.456211  3.687168
H    -4.133279  3.510611  3.567649
H    -4.827265  3.126287  5.171446
Ba    1.858158  -2.641988  4.427486
