30
Energy: -244295.681026 eV PBE+vdW (tier 2 basis)
C    -0.361783  0.300166  -0.329284
C    -0.227683  -0.201634  1.075511
O    0.715448  -0.965485  1.402162
H    -1.205068  0.982767  -0.476761
H    -0.478212  -0.560999  -1.001408
H    0.567548  0.808151  -0.618312
N    -1.162567  0.197749  1.968711
C    -1.279165  -0.235180  3.374277
C    -0.071477  0.287901  4.184034
O    0.980256  -0.392660  4.308875
H    -1.900050  0.797845  1.612679
H    -2.171002  0.277376  3.755444
C    -1.523202  -1.756788  3.467710
C    -1.440044  -2.384449  4.873761
C    -0.508366  -3.585907  4.919285
O    0.574161  -3.593164  4.275064
N    -0.855706  -4.615980  5.685798
H    -0.827034  -2.271757  2.798759
H    -2.518727  -1.938506  3.043535
H    -2.435483  -2.657393  5.243722
H    -1.028570  -1.675065  5.610020
H    -1.731058  -4.637436  6.197593
H    -0.234970  -5.416662  5.772331
N    -0.168898  1.490472  4.751223
C    -1.283882  2.441203  4.707052
H    0.668057  1.782431  5.254503
H    -0.999807  3.319760  5.292711
H    -2.191930  2.019402  5.155693
H    -1.489191  2.771645  3.681272
Ba    2.214931  -2.161411  3.027105
