30
Energy: -244294.79172 eV PBE+vdW (tier 2 basis)
C    -0.209598  -0.142239  0.100244
C    -0.753980  -0.607656  1.418321
O    -0.441735  -1.690180  1.933330
H    -0.366469  -0.926430  -0.650081
H    0.876312  -0.010684  0.202030
H    -0.648548  0.797225  -0.253388
N    -1.633024  0.230611  2.064459
C    -2.042731  -0.034117  3.443207
C    -3.173835  -1.093882  3.458325
O    -4.373894  -0.811975  3.797925
H    -1.909025  1.102023  1.624058
H    -1.175154  -0.522357  3.918835
C    -2.365331  1.273885  4.182759
C    -1.946076  1.333887  5.660507
C    -2.781699  0.569670  6.662676
O    -4.040794  0.489503  6.556348
N    -2.158205  0.029388  7.704971
H    -3.427271  1.536886  4.066140
H    -1.807889  2.076560  3.682097
H    -2.007018  2.385460  5.990256
H    -0.888384  1.054499  5.764747
H    -1.152918  0.103841  7.824757
H    -2.691389  -0.397676  8.458156
N    -2.811013  -2.297078  3.071011
C    -3.713217  -3.432383  2.915391
H    -1.820212  -2.356143  2.733420
H    -3.173543  -4.233058  2.403039
H    -4.591452  -3.152962  2.320560
H    -4.043151  -3.805297  3.894146
Ba    -6.049756  0.014677  5.269754
