30
Energy: -244295.645099 eV PBE+vdW (tier 2 basis)
C    -0.407957  -0.310640  0.202089
C    -0.185288  -0.094435  1.668728
O    0.968394  0.085628  2.126477
H    0.229284  -1.136532  -0.139202
H    -0.082366  0.587642  -0.340447
H    -1.448833  -0.524835  -0.061748
N    -1.275096  -0.109648  2.468010
C    -1.363935  0.105677  3.924973
C    -0.866513  1.528031  4.298923
O    0.352904  1.757195  4.502298
H    -2.161466  -0.265720  1.998153
H    -2.443258  0.072117  4.117071
C    -0.688401  -0.951617  4.852193
C    -0.208008  -2.279775  4.242658
C    1.254065  -2.564206  4.552810
O    2.107566  -1.638195  4.575910
N    1.609542  -3.827981  4.767986
H    -1.404652  -1.165005  5.654280
H    0.160299  -0.468894  5.347598
H    -0.279443  -2.266849  3.143905
H    -0.836408  -3.116908  4.569344
H    0.933832  -4.584227  4.780232
H    2.584767  -4.059536  4.938437
N    -1.794604  2.475161  4.398841
C    -1.519337  3.873239  4.730887
H    -2.762571  2.218320  4.228441
H    -2.363841  4.274890  5.299116
H    -1.384542  4.468595  3.818462
H    -0.611219  3.928089  5.337431
Ba    2.593087  0.725419  3.891146
