30
Energy: -244294.736292 eV PBE+vdW (tier 2 basis)
C    0.680808  0.334885  0.245838
C    -0.037686  0.248398  1.559130
O    -0.353061  1.308778  2.180960
H    1.537724  1.014469  0.326779
H    -0.007681  0.777744  -0.489003
H    1.021713  -0.633393  -0.135403
N    -0.318253  -0.975550  2.025525
C    -1.223850  -1.421411  3.099171
C    -1.109191  -0.646468  4.423028
O    -0.075823  0.030990  4.748773
H    0.003897  -1.735455  1.430970
H    -2.258262  -1.280162  2.749286
C    -0.961927  -2.946515  3.268358
C    -1.868527  -3.746129  4.224610
C    -3.361799  -3.569007  3.972782
O    -3.906244  -2.454785  4.121987
N    -4.061031  -4.643627  3.585174
H    0.081015  -3.087430  3.588247
H    -1.051589  -3.387169  2.262516
H    -1.680859  -3.456095  5.268385
H    -1.574007  -4.800572  4.146917
H    -3.644806  -5.562361  3.494049
H    -5.064288  -4.556120  3.447045
N    -2.167602  -0.755887  5.199098
C    -2.267432  -0.196910  6.540704
H    -2.961582  -1.365323  4.827614
H    -1.281252  -0.151098  7.015232
H    -2.924884  -0.836509  7.138339
H    -2.715636  0.807104  6.516650
Ba    0.466115  2.320607  4.231238
