30
Energy: -244294.937677 eV PBE+vdW (tier 2 basis)
C    0.838487  -0.483216  0.330925
C    0.581770  -0.242709  1.785677
O    1.498198  -0.431872  2.640190
H    -0.046706  -0.344285  -0.298500
H    1.229179  -1.498145  0.185639
H    1.623053  0.211415  -0.001676
N    -0.635572  0.188846  2.147193
C    -1.048808  0.667310  3.477638
C    -1.411206  -0.518634  4.402284
O    -0.451364  -1.297198  4.752119
H    -1.312864  0.305786  1.398115
H    -0.144986  1.093504  3.941732
C    -2.051936  1.828335  3.327987
C    -3.315290  1.617310  2.451015
C    -4.599438  1.581921  3.275024
O    -4.657655  0.902894  4.316296
N    -5.646832  2.283811  2.826539
H    -1.479668  2.666826  2.910953
H    -2.347963  2.143931  4.337225
H    -3.300107  0.653734  1.913270
H    -3.367195  2.393445  1.678316
H    -5.606065  2.859283  1.994513
H    -6.522475  2.246420  3.341064
N    -2.633168  -0.686001  4.831552
C    -3.015989  -1.768011  5.737506
H    -3.413978  0.004521  4.575574
H    -4.087005  -1.676720  5.936526
H    -2.465738  -1.694964  6.684100
H    -2.812156  -2.745536  5.283638
Ba    1.907474  -1.697998  4.679567
