30
Energy: -244294.669236 eV PBE+vdW (tier 2 basis)
C    -0.849528  1.234312  0.141580
C    -0.643234  0.531379  1.443197
O    0.528525  0.213321  1.833862
H    -1.901953  1.451456  -0.068457
H    -0.443600  0.613656  -0.669103
H    -0.284100  2.175689  0.140665
N    -1.702631  0.232342  2.194140
C    -1.638551  -0.473381  3.480983
C    -3.009412  -1.161277  3.758806
O    -3.689177  -0.787274  4.708043
H    -2.617001  0.535005  1.864769
H    -0.860802  -1.246261  3.374879
C    -1.283328  0.499720  4.619591
C    -0.973902  -0.162030  5.963664
C    0.279332  -1.000963  6.015458
O    1.237368  -0.831265  5.195356
N    0.374280  -1.915855  6.971987
H    -2.139012  1.169043  4.773849
H    -0.441611  1.133602  4.302089
H    -1.839440  -0.749765  6.300313
H    -0.844010  0.628339  6.722649
H    -0.377552  -2.064772  7.638510
H    1.227496  -2.454930  7.092967
N    -3.387587  -2.159714  2.921639
C    -2.690609  -2.721404  1.771921
H    -4.307817  -2.536518  3.141115
H    -3.024992  -3.754133  1.629429
H    -1.606496  -2.749907  1.938936
H    -2.894259  -2.167023  0.844139
Ba    2.461728  -0.115892  3.228140
