30
Energy: -244295.179806 eV PBE+vdW (tier 2 basis)
C    -0.619699  0.743414  0.365874
C    -0.613092  0.257892  1.778192
O    -0.124838  0.938967  2.716135
H    -1.525737  1.342195  0.182704
H    -0.589021  -0.073233  -0.363524
H    0.239504  1.406506  0.218264
N    -1.158944  -0.956729  2.084202
C    -2.405069  -1.464103  1.536862
C    -3.537642  -0.410286  1.740432
O    -3.405886  0.533036  2.562939
H    -1.003835  -1.214595  3.058130
H    -2.294253  -1.606385  0.450965
C    -2.745164  -2.855902  2.144786
C    -2.324443  -3.166047  3.604025
C    -2.887328  -2.287834  4.706350
O    -2.444426  -1.122911  4.905150
N    -3.852382  -2.795775  5.471284
H    -2.246539  -3.614634  1.528156
H    -3.823382  -3.030931  2.031626
H    -1.228467  -3.137508  3.702521
H    -2.599344  -4.212981  3.787969
H    -4.179748  -3.749597  5.359447
H    -4.220744  -2.262721  6.254597
N    -4.619454  -0.560775  0.982167
C    -5.800789  0.302302  1.007474
H    -4.623708  -1.322834  0.308160
H    -5.960065  0.740426  0.015058
H    -5.642672  1.099832  1.736441
H    -6.686095  -0.281800  1.286048
Ba    -1.933740  1.320011  4.485568
