30
Energy: -244294.687258 eV PBE+vdW (tier 2 basis)
C    2.102045  0.027665  2.520295
C    0.898142  0.423831  3.327080
O    0.943447  0.989657  4.406004
H    1.877779  -0.671863  1.706545
H    2.850428  -0.413188  3.188360
H    2.551017  0.935454  2.093250
N    -0.356510  0.085077  2.772181
C    -1.533978  0.652843  3.393928
C    -2.482255  -0.410507  3.947823
O    -3.673845  -0.095372  4.288425
H    -0.384856  -0.189394  1.794173
H    -1.107125  1.143785  4.298320
C    -2.246944  1.746157  2.582593
C    -2.994848  1.273120  1.311165
C    -4.322714  1.975666  1.136896
O    -5.190433  1.927957  2.060973
N    -4.571813  2.626766  0.009505
H    -1.496044  2.499510  2.313946
H    -2.945426  2.266236  3.252598
H    -3.244389  0.201755  1.384295
H    -2.370868  1.388155  0.416675
H    -3.891550  2.680120  -0.741628
H    -5.468643  3.087074  -0.129843
N    -1.994280  -1.625075  4.110109
C    -2.658030  -2.758355  4.742070
H    -1.029245  -1.733552  3.790688
H    -2.073486  -3.089157  5.609119
H    -2.739589  -3.589601  4.031416
H    -3.655493  -2.459358  5.072194
Ba    -5.741483  1.115289  4.305731
