30
Energy: -244295.032244 eV PBE+vdW (tier 2 basis)
C    0.654571  -0.640857  0.396580
C    0.391280  0.222787  1.585345
O    1.349636  0.803063  2.195751
H    1.394671  -1.409134  0.654646
H    1.097612  -0.022575  -0.397071
H    -0.249776  -1.120673  0.009311
N    -0.869792  0.391894  1.991611
C    -1.220069  1.234695  3.140589
C    -0.791312  0.520821  4.441329
O    0.205560  0.988740  5.089154
H    -1.607560  -0.222815  1.635608
H    -0.558303  2.108895  3.075774
C    -2.653189  1.821495  3.064785
C    -3.902268  1.007510  3.456692
C    -4.078868  -0.298901  2.706295
O    -3.128835  -1.115115  2.642942
N    -5.262856  -0.551217  2.140702
H    -2.769569  2.201189  2.038549
H    -2.646828  2.711387  3.709129
H    -4.772777  1.663949  3.327702
H    -3.876103  0.755876  4.528829
H    -6.040541  0.096507  2.192368
H    -5.415381  -1.446406  1.683642
N    -1.430745  -0.578745  4.780211
C    -1.122482  -1.400199  5.946648
H    -2.136751  -0.917124  4.086423
H    -0.627743  -0.793591  6.710032
H    -0.473660  -2.241472  5.666677
H    -2.056024  -1.804525  6.351251
Ba    2.425103  1.549547  4.240493
