30
Energy: -244294.885716 eV PBE+vdW (tier 2 basis)
C    0.158248  -1.373974  0.623146
C    -0.155031  -0.137180  1.398440
O    0.750670  0.750548  1.598971
H    -0.706253  -2.036159  0.513879
H    0.965600  -1.920438  1.129883
H    0.529018  -1.097883  -0.372947
N    -1.373919  0.030187  1.880429
C    -1.850682  1.153424  2.680020
C    -3.165595  0.609053  3.311060
O    -3.798278  -0.236918  2.683146
H    -2.124843  -0.657236  1.714296
H    -1.097425  1.393983  3.446456
C    -2.136688  2.377716  1.771553
C    -2.363093  3.706995  2.490282
C    -1.132588  4.333276  3.116033
O    0.041019  3.982410  2.793151
N    -1.323240  5.300299  4.008928
H    -3.026182  2.149866  1.168368
H    -1.309897  2.485741  1.055100
H    -3.158256  3.624899  3.246277
H    -2.739897  4.441442  1.758291
H    -2.254244  5.619808  4.258467
H    -0.532608  5.803264  4.402872
N    -3.553321  1.149566  4.484439
C    -4.778203  0.721679  5.165549
H    -2.879785  1.689119  5.016791
H    -5.136499  1.534142  5.805175
H    -4.600675  -0.172656  5.777084
H    -5.536718  0.486235  4.413440
Ba    1.968163  2.759167  1.885105
