30
Energy: -244294.672009 eV PBE+vdW (tier 2 basis)
C    -0.219219  -0.862983  1.636289
C    -1.362122  -1.192749  2.540262
O    -1.773042  -2.403953  2.621364
H    0.123649  0.171900  1.716237
H    -0.487833  -1.072898  0.591914
H    0.613041  -1.534958  1.887032
N    -1.965844  -0.266115  3.274192
C    -2.052454  1.173871  3.039642
C    -2.764953  1.717493  4.301264
O    -3.609805  0.989669  4.842473
H    -2.687603  -0.560388  3.946003
H    -1.048716  1.603619  2.926946
C    -2.885661  1.462736  1.760037
C    -4.419666  1.390220  1.874783
C    -5.095542  0.110727  2.330646
O    -4.684949  -1.050994  2.016659
N    -6.221635  0.260060  3.019363
H    -2.530923  0.796276  0.961727
H    -2.652298  2.481800  1.422170
H    -4.830478  1.589082  0.869673
H    -4.784574  2.211567  2.505828
H    -6.535156  1.173027  3.331103
H    -6.774234  -0.543306  3.300764
N    -2.455915  2.966197  4.675745
C    -3.061386  3.644431  5.820818
H    -1.705432  3.445036  4.187170
H    -3.821304  2.986751  6.250715
H    -3.523563  4.586522  5.502804
H    -2.299057  3.857624  6.579743
Ba    -3.872332  -3.374840  1.993436
