30
Energy: -244294.751608 eV PBE+vdW (tier 2 basis)
C    -0.326230  1.153013  -0.034981
C    -0.528105  0.433707  1.263469
O    0.257531  0.663508  2.250720
H    -0.288162  2.236839  0.134547
H    -1.104845  0.931117  -0.771443
H    0.645660  0.854514  -0.452982
N    -1.524878  -0.430674  1.342614
C    -1.918284  -1.327797  2.426607
C    -3.220080  -1.981660  1.864967
O    -3.771849  -1.432037  0.905624
H    -2.224767  -0.501726  0.578840
H    -1.134795  -2.088206  2.563174
C    -2.153024  -0.632691  3.787484
C    -3.030241  0.631127  3.728784
C    -2.616675  1.674830  4.740838
O    -1.400117  2.018300  4.856263
N    -3.551638  2.249592  5.485460
H    -1.172131  -0.384039  4.209909
H    -2.596266  -1.361228  4.477658
H    -4.093920  0.383641  3.828522
H    -2.924750  1.119029  2.745297
H    -4.530130  1.990973  5.409509
H    -3.305307  2.984955  6.143783
N    -3.697526  -3.092629  2.452225
C    -3.113972  -3.911848  3.508975
H    -4.563727  -3.425244  2.032027
H    -3.324982  -4.965519  3.296858
H    -3.534375  -3.670425  4.495623
H    -2.024997  -3.798493  3.542819
Ba    0.948352  1.929129  4.152382
