30
Energy: -244295.781503 eV PBE+vdW (tier 2 basis)
C    0.860032  2.346140  1.435061
C    0.426803  1.027314  1.998371
O    1.213784  0.046949  2.019511
H    1.136334  2.203655  0.381282
H    1.763868  2.681399  1.960156
H    0.096289  3.128027  1.499721
N    -0.837771  0.943582  2.470334
C    -1.532580  -0.250190  2.990631
C    -0.938788  -0.674096  4.353390
O    0.135331  -1.320925  4.436596
H    -1.391831  1.792094  2.408030
H    -2.561360  0.086467  3.178340
C    -1.584908  -1.374410  1.930778
C    -2.036118  -2.762336  2.429592
C    -1.033889  -3.856789  2.096634
O    0.205679  -3.648507  2.176749
N    -1.507122  -5.050219  1.748224
H    -0.602530  -1.460402  1.457294
H    -2.261248  -1.029527  1.138973
H    -3.027083  -3.019162  2.036860
H    -2.136196  -2.785587  3.527438
H    -0.865427  -5.815770  1.558422
H    -2.500906  -5.231947  1.658520
N    -1.634278  -0.318543  5.432798
C    -1.222960  -0.590970  6.809830
H    -2.488948  0.213990  5.299370
H    -0.602652  -1.491094  6.830552
H    -2.115696  -0.745506  7.423605
H    -0.649698  0.252792  7.215836
Ba    2.022870  -2.114429  2.979102
