30
Energy: -244294.633874 eV PBE+vdW (tier 2 basis)
C    -0.108253  -1.241784  0.908059
C    -0.127156  -0.747590  2.316912
O    0.365093  -1.471371  3.252863
H    -0.762526  -2.119600  0.812503
H    0.909371  -1.582527  0.675983
H    -0.409839  -0.488038  0.175081
N    -0.643649  0.427707  2.645682
C    -1.500899  1.355378  1.922001
C    -1.514754  2.600872  2.856617
O    -1.220359  2.424406  4.051030
H    -0.542937  0.784889  3.614811
H    -1.075977  1.599012  0.939653
C    -2.935096  0.798678  1.739430
C    -3.672308  0.422227  3.060631
C    -3.592752  -1.041339  3.436237
O    -2.671184  -1.508866  4.170161
N    -4.539924  -1.845873  2.957429
H    -2.900956  -0.062238  1.056610
H    -3.528872  1.563529  1.223043
H    -4.731162  0.690547  2.953923
H    -3.280400  1.006879  3.903264
H    -4.545405  -2.836127  3.185217
H    -5.313668  -1.488906  2.406220
N    -1.886970  3.788105  2.361142
C    -2.232374  4.156232  0.990878
H    -1.912338  4.529047  3.060113
H    -1.854924  5.164438  0.789859
H    -3.319862  4.155654  0.834135
H    -1.764005  3.479647  0.268928
Ba    -0.610340  -2.196897  5.324916
