30
Energy: -244295.420865 eV PBE+vdW (tier 2 basis)
C    -0.307418  3.350443  1.724469
C    -0.336970  2.070739  2.494171
O    0.624628  1.719895  3.227104
H    0.545493  3.332608  1.032553
H    -0.134379  4.181206  2.421353
H    -1.225152  3.539594  1.157939
N    -1.439135  1.283028  2.389256
C    -1.511301  0.052828  3.163411
C    -0.788414  -1.121909  2.465426
O    0.326566  -1.475429  2.945285
H    -2.206880  1.591243  1.800175
H    -0.854933  0.269428  4.005402
C    -2.841681  -0.272790  3.854378
C    -2.618975  -1.258756  5.032295
C    -1.723284  -0.739461  6.149849
O    -0.498625  -0.485064  5.967698
N    -2.277553  -0.567277  7.348328
H    -3.585458  -0.713190  3.178948
H    -3.269091  0.668034  4.230550
H    -2.156563  -2.188002  4.664699
H    -3.598101  -1.540998  5.437632
H    -3.251698  -0.784038  7.529453
H    -1.710475  -0.249205  8.130242
N    -1.288891  -1.736432  1.397937
C    -2.520546  -1.477692  0.656370
H    -0.696368  -2.486916  1.040178
H    -2.997947  -0.555131  0.993164
H    -3.226289  -2.308561  0.782805
H    -2.286581  -1.374114  -0.409715
Ba    1.663023  -0.143081  4.643642
