30
Energy: -244294.755097 eV PBE+vdW (tier 2 basis)
C    0.320500  -0.473439  0.184723
C    0.148853  -0.265620  1.655693
O    1.176869  -0.117229  2.407596
H    -0.632531  -0.564001  -0.345628
H    0.908498  -1.386635  0.018710
H    0.890453  0.362536  -0.241731
N    -1.077280  -0.240830  2.149123
C    -1.502402  -0.206880  3.545610
C    -2.765820  -1.128287  3.544124
O    -3.367228  -1.264756  2.478870
H    -1.885256  -0.489600  1.551216
H    -0.699940  -0.600051  4.184094
C    -1.952050  1.206273  3.982588
C    -0.862128  2.301866  4.050886
C    0.062083  2.181911  5.240480
O    1.188176  1.605626  5.155512
N    -0.344309  2.683198  6.403266
H    -2.462499  1.128575  4.952873
H    -2.715964  1.542445  3.267753
H    -1.366754  3.277542  4.088834
H    -0.252115  2.295748  3.139289
H    -1.218343  3.191736  6.491134
H    0.248655  2.618032  7.226760
N    -3.164021  -1.678165  4.707439
C    -2.465620  -1.686774  5.986703
H    -4.013246  -2.233391  4.626144
H    -3.097682  -2.200150  6.716991
H    -2.287702  -0.671794  6.368571
H    -1.511625  -2.230895  5.932698
Ba    2.934151  0.457182  3.884225
