30
Energy: -244295.298708 eV PBE+vdW (tier 2 basis)
C    0.986360  -0.057669  0.214207
C    0.799337  -0.344463  1.668387
O    1.763105  -0.660854  2.412783
H    1.802622  -0.685009  -0.161365
H    1.299294  0.989173  0.077448
H    0.081784  -0.234268  -0.377131
N    -0.442343  -0.250236  2.227789
C    -1.409991  0.794800  1.920458
C    -0.728069  2.186077  2.046884
O    0.292769  2.329469  2.771418
H    -0.465143  -0.577517  3.192998
H    -1.769691  0.667808  0.888031
C    -2.640311  0.683212  2.855334
C    -2.510763  1.171973  4.321808
C    -1.687658  0.309566  5.261339
O    -0.425465  0.264524  5.184289
N    -2.334389  -0.405354  6.176766
H    -2.989549  -0.359116  2.823754
H    -3.446209  1.278076  2.406323
H    -3.529299  1.268633  4.719127
H    -2.072709  2.180644  4.351357
H    -1.815646  -0.988430  6.829565
H    -3.344327  -0.376178  6.271289
N    -1.291650  3.186625  1.378824
C    -0.841301  4.579034  1.393796
H    -2.090138  2.968167  0.787395
H    -0.550543  4.886049  0.381992
H    0.016825  4.668090  2.063365
H    -1.651906  5.228614  1.744697
Ba    1.842004  1.019558  4.337072
