30
Energy: -244294.93753 eV PBE+vdW (tier 2 basis)
C    -1.658810  -1.197207  0.478055
C    -1.501562  -0.309978  1.668925
O    -1.502357  0.965227  1.531032
H    -1.669568  -2.258331  0.745228
H    -0.839099  -1.009184  -0.228679
H    -2.592418  -0.940908  -0.040762
N    -1.364799  -0.869478  2.864917
C    -1.334286  -0.088688  4.101365
C    -0.046717  0.755595  4.185756
O    -0.147583  2.018119  4.044600
H    -1.488569  -1.930058  3.016143
H    -2.138153  0.663534  4.046469
C    -1.595270  -0.958025  5.351249
C    -2.844408  -1.861489  5.279018
C    -2.582208  -3.207099  4.605440
O    -1.832823  -3.306509  3.609380
N    -3.197234  -4.277732  5.120224
H    -1.715057  -0.262903  6.193110
H    -0.723702  -1.577687  5.589859
H    -3.661899  -1.369652  4.726783
H    -3.224293  -2.018285  6.296579
H    -3.794089  -4.226166  5.936794
H    -3.073655  -5.181919  4.673260
N    1.150263  0.210785  4.364997
C    1.552712  -1.195066  4.467480
H    1.903161  0.895565  4.436443
H    0.831504  -1.849673  3.972582
H    1.670023  -1.491543  5.517585
H    2.519561  -1.308513  3.965388
Ba    -1.085660  3.243266  2.134781
