30
Energy: -244294.689661 eV PBE+vdW (tier 2 basis)
C    0.327164  -0.021680  -0.473747
C    -0.182434  -0.191208  0.921974
O    -0.173776  -1.346681  1.467230
H    0.216056  1.000508  -0.848210
H    -0.203049  -0.716323  -1.138614
H    1.390064  -0.299023  -0.504547
N    -0.621083  0.891209  1.558346
C    -1.326711  0.983330  2.849498
C    -0.539957  0.371123  4.013338
O    -0.656197  -0.853833  4.333208
H    -0.845760  1.747571  1.010774
H    -1.363716  2.063865  3.026212
C    -2.788982  0.502336  2.777845
C    -3.576304  1.041865  1.560370
C    -3.343286  2.519855  1.231055
O    -2.202431  2.953413  0.988393
N    -4.425228  3.314907  1.195109
H    -3.281281  0.809480  3.711774
H    -2.833930  -0.596260  2.753002
H    -4.640995  0.830732  1.720080
H    -3.286614  0.487544  0.655040
H    -5.364025  2.970813  1.354048
H    -4.311629  4.286181  0.918585
N    0.258108  1.166538  4.714794
C    0.532734  2.595420  4.515238
H    0.712640  0.718257  5.509856
H    1.407325  2.855646  5.118106
H    -0.312222  3.211365  4.848838
H    0.763785  2.810697  3.466778
Ba    -0.398508  -2.984736  3.184984
