30
Energy: -244295.52566 eV PBE+vdW (tier 2 basis)
C    0.018920  -1.053676  -0.022934
C    -0.305157  0.076374  0.898186
O    0.566985  0.918479  1.239792
H    0.809759  -1.668260  0.427869
H    0.427031  -0.644928  -0.956932
H    -0.842615  -1.689065  -0.253087
N    -1.577178  0.183943  1.361261
C    -1.935431  1.295465  2.229627
C    -1.626914  0.980778  3.711436
O    -0.550930  1.422827  4.197704
H    -2.264321  -0.508226  1.076285
H    -1.197870  2.052298  1.966623
C    -3.266250  1.997500  1.951147
C    -3.280983  3.402177  2.610796
C    -2.192578  4.356126  2.129569
O    -0.963699  4.127757  2.317801
N    -2.586239  5.464602  1.505272
H    -4.138292  1.435812  2.316228
H    -3.387857  2.090991  0.862491
H    -3.152535  3.306722  3.700426
H    -4.269127  3.851528  2.455351
H    -3.565683  5.684016  1.359173
H    -1.897846  6.146166  1.195951
N    -2.488990  0.247307  4.407802
C    -2.302329  -0.173423  5.797683
H    -3.334119  -0.068058  3.939411
H    -2.194985  -1.263870  5.848008
H    -3.170078  0.129717  6.394594
H    -1.400795  0.300848  6.191925
Ba    1.152107  2.780074  2.882540
