30
Energy: -244294.771849 eV PBE+vdW (tier 2 basis)
C    0.549753  -0.858480  0.875457
C    0.248260  -0.004723  2.061505
O    1.072254  0.904923  2.436772
H    0.649353  -0.216425  -0.010834
H    -0.226986  -1.606994  0.691109
H    1.516806  -1.358732  1.017552
N    -0.890707  -0.194726  2.716696
C    -1.292194  0.660595  3.826521
C    -0.379339  0.448267  5.054865
O    0.354822  1.432141  5.401699
H    -1.610840  -0.939546  2.461879
H    -1.047088  1.694423  3.539515
C    -2.825065  0.705237  4.046659
C    -3.670466  -0.529538  4.403944
C    -3.809500  -1.587192  3.312718
O    -2.880443  -1.862761  2.524293
N    -4.973912  -2.247474  3.262689
H    -3.233918  1.154636  3.129488
H    -2.990603  1.450930  4.837491
H    -4.667096  -0.157863  4.680212
H    -3.295816  -1.032328  5.306903
H    -5.752111  -2.035466  3.875210
H    -5.092535  -2.987419  2.576534
N    -0.277110  -0.697911  5.717204
C    -0.843689  -2.020825  5.451976
H    0.362139  -0.644855  6.511253
H    -1.571925  -2.288153  6.227392
H    -0.030874  -2.756637  5.476504
H    -1.313564  -2.060990  4.467682
Ba    2.045529  2.495240  3.949269
