30
Energy: -244294.790121 eV PBE+vdW (tier 2 basis)
C    0.124116  -1.410662  0.800543
C    -0.163392  -0.105199  1.466994
O    0.762675  0.747339  1.655945
H    0.879565  -1.952270  1.386645
H    0.557595  -1.227837  -0.191675
H    -0.762077  -2.044586  0.691586
N    -1.411730  0.156164  1.872819
C    -1.807300  1.413628  2.514526
C    -2.944381  1.284210  3.557593
O    -3.444561  2.323844  3.982391
H    -2.142541  -0.493035  1.588353
H    -0.929934  1.734014  3.096297
C    -2.114740  2.474925  1.428158
C    -2.258623  3.927426  1.910056
C    -1.146206  4.379975  2.817523
O    0.075154  4.136686  2.535866
N    -1.465323  5.046789  3.913485
H    -3.039646  2.199619  0.902829
H    -1.312732  2.413629  0.676855
H    -3.221853  4.071509  2.406710
H    -2.236966  4.591628  1.029932
H    -2.437469  5.168237  4.182796
H    -0.747219  5.414882  4.531752
N    -3.310476  0.046015  3.954034
C    -4.347224  -0.164409  4.966210
H    -2.738392  -0.751267  3.700044
H    -3.929343  -0.117282  5.980559
H    -4.807520  -1.144334  4.807357
H    -5.105748  0.616733  4.862701
Ba    1.974289  2.845628  1.798115
