30
Energy: -244295.372417 eV PBE+vdW (tier 2 basis)
C    -0.490418  2.409052  0.185694
C    -0.601709  1.710172  1.501285
O    -0.761189  2.349059  2.574089
H    0.382926  3.075065  0.207450
H    -1.372816  3.047136  0.045054
H    -0.399073  1.725647  -0.664937
N    -0.530923  0.354041  1.516118
C    -0.652547  -0.368374  2.773849
C    0.682732  -0.462300  3.540323
O    0.812508  0.306081  4.536625
H    -0.382460  -0.136405  0.638656
H    -1.204053  0.333141  3.394665
C    -1.568475  -1.608219  2.769005
C    -3.012252  -1.225264  3.179398
C    -3.147811  -0.681803  4.597632
O    -2.553606  0.366712  4.980277
N    -3.937482  -1.353421  5.433103
H    -1.172280  -2.361969  3.463436
H    -1.604122  -2.088007  1.781421
H    -3.664902  -2.097246  3.050648
H    -3.394665  -0.446509  2.500915
H    -4.441349  -2.185925  5.146782
H    -4.089929  -1.010158  6.378025
N    1.658749  -1.286599  3.177309
C    1.707227  -2.214089  2.050874
H    2.495789  -1.228688  3.758639
H    2.448281  -1.879048  1.314004
H    0.730346  -2.289887  1.567060
H    1.989989  -3.211862  2.406487
Ba    -0.782472  2.218079  5.118169
