30
Energy: -244294.85682 eV PBE+vdW (tier 2 basis)
C    0.812862  -0.091614  0.279906
C    -0.166694  -0.632524  1.272206
O    -0.538936  -1.857696  1.203786
H    0.391016  -0.190249  -0.729765
H    1.733533  -0.689255  0.307698
H    1.062860  0.958649  0.459064
N    -0.629242  0.179730  2.206757
C    -1.693111  -0.048320  3.179965
C    -2.404635  1.347097  3.240730
O    -1.754655  2.334283  2.895876
H    -0.427081  1.195600  2.161287
H    -2.368223  -0.833832  2.810855
C    -1.142781  -0.372782  4.586743
C    -0.367491  -1.701789  4.754500
C    -1.246391  -2.930579  4.789167
O    -1.463388  -3.626950  3.752071
N    -1.814742  -3.261653  5.944907
H    -1.976848  -0.335555  5.302178
H    -0.464471  0.443543  4.871792
H    0.200056  -1.644393  5.693909
H    0.366031  -1.825048  3.948389
H    -1.624480  -2.750933  6.801185
H    -2.417524  -4.078252  6.006572
N    -3.662676  1.366252  3.710968
C    -4.432849  2.598647  3.884587
H    -4.121100  0.486889  3.923275
H    -5.295311  2.610154  3.207199
H    -3.781147  3.444912  3.651914
H    -4.783060  2.682507  4.920004
Ba    -1.121519  -4.142842  1.386277
