30
Energy: -244295.112878 eV PBE+vdW (tier 2 basis)
C    -0.541326  -0.263681  -0.279534
C    0.149193  0.362567  0.887238
O    1.391775  0.556328  0.901958
H    -1.446446  -0.810449  0.006309
H    0.158903  -0.940418  -0.780915
H    -0.817567  0.514166  -1.008693
N    -0.573315  0.754032  1.978662
C    -1.860076  1.426901  1.918985
C    -1.749192  2.684980  1.012256
O    -0.618320  3.158165  0.712091
H    0.024694  1.086012  2.734965
H    -2.594438  0.752840  1.455747
C    -2.375299  1.757427  3.351337
C    -1.343265  2.035122  4.473857
C    -0.408739  3.219186  4.299948
O    0.567448  3.172044  3.501441
N    -0.642448  4.304843  5.035678
H    -2.963139  0.897912  3.697594
H    -3.075871  2.599826  3.288564
H    -0.710495  1.150426  4.642550
H    -1.920565  2.153774  5.400137
H    -0.011546  5.100731  4.991159
H    -1.389574  4.338123  5.721294
N    -2.860367  3.240921  0.534211
C    -4.258653  2.847816  0.718112
H    -2.695767  4.066064  -0.042393
H    -4.791062  2.998720  -0.226885
H    -4.740556  3.458880  1.492505
H    -4.342431  1.791964  0.990682
Ba    1.844368  3.042617  1.311948
