26
Energy: -16612.0977919 eV PBE+vdW (tier 2 basis)
C    -0.239346  -0.464732  -0.200425
C    -0.014407  0.005779  1.220175
O    1.105061  0.327004  1.610758
H    0.374869  0.156153  -0.861538
H    -1.278256  -0.449984  -0.540771
H    0.118262  -1.500062  -0.267060
N    -1.073080  0.064524  2.105399
C    -2.485098  -0.246550  1.967541
C    -2.734040  -1.606225  1.245081
O    -1.919667  -2.519785  1.326748
H    -0.751290  0.313777  3.035586
H    -2.829230  -0.461269  2.996065
C    -3.301086  1.012589  1.527092
O    -4.726546  0.782143  1.636830
C    -3.051114  1.531293  0.121123
H    -3.014291  1.806057  2.239256
H    -4.949248  0.669928  2.574731
H    -3.669989  2.420974  -0.046850
H    -3.306533  0.785874  -0.642627
H    -2.001609  1.818824  -0.005385
N    -3.918181  -1.707140  0.585655
C    -4.341938  -2.951680  -0.029308
H    -4.585070  -0.944679  0.702689
H    -4.995168  -2.734563  -0.882468
H    -4.883222  -3.600423  0.676984
H    -3.457016  -3.495457  -0.376295
