26
Energy: -16611.940262 eV PBE+vdW (tier 2 basis)
C    -0.214018  0.061436  -0.018030
C    -0.110999  -0.249304  1.464117
O    0.971746  -0.493127  1.990580
H    -0.786781  -0.712077  -0.546475
H    0.802801  0.087925  -0.418153
H    -0.694170  1.031364  -0.205766
N    -1.260364  -0.287422  2.217393
C    -2.633654  0.099947  1.915773
C    -3.185423  -0.690671  0.699489
O    -3.346301  -1.902600  0.782919
H    -1.057468  -0.455119  3.197693
H    -3.223929  -0.303402  2.752232
C    -2.861106  1.632931  1.943701
O    -2.172032  2.089146  3.113284
C    -4.342236  2.003800  2.009162
H    -2.392395  2.099922  1.051763
H    -2.394772  3.023338  3.247076
H    -4.463722  3.095849  2.050015
H    -4.794041  1.575759  2.914357
H    -4.904542  1.640676  1.139623
N    -3.492777  0.020871  -0.424247
C    -3.941042  -0.627666  -1.643117
H    -3.209028  0.991602  -0.476470
H    -4.656685  0.015388  -2.169242
H    -4.426556  -1.569891  -1.370104
H    -3.102130  -0.857250  -2.318738
