26
Energy: -16612.5823269 eV PBE+vdW (tier 2 basis)
C    -0.228722  0.258755  -0.235755
C    -0.213892  0.362113  1.278030
O    0.760537  0.786791  1.898732
H    -0.011301  1.246463  -0.660439
H    -1.179667  -0.106082  -0.642200
H    0.578196  -0.415923  -0.548441
N    -1.365401  -0.032741  1.900224
C    -1.460647  -0.164778  3.335340
C    -2.586133  -1.187823  3.609298
O    -3.204203  -1.717293  2.680736
H    -2.082911  -0.560676  1.401370
H    -0.508815  -0.555739  3.733131
C    -1.676513  1.208331  4.020617
O    -1.458161  0.981023  5.432135
C    -3.037696  1.830795  3.742040
H    -0.874741  1.858236  3.635312
H    -1.565621  1.826147  5.893576
H    -3.105660  2.833245  4.187876
H    -3.851720  1.215159  4.148263
H    -3.190285  1.940069  2.660096
N    -2.811044  -1.448792  4.918243
C    -3.862581  -2.340874  5.367277
H    -2.335918  -0.844551  5.587442
H    -3.496370  -2.979260  6.181127
H    -4.164759  -2.968675  4.523091
H    -4.745190  -1.786882  5.722135
