26
Energy: -16612.1861874 eV PBE+vdW (tier 2 basis)
C    -1.405454  0.695816  -0.616931
C    -0.799288  -0.265233  0.387533
O    -0.079715  -1.204550  0.053794
H    -1.142982  0.349454  -1.619533
H    -1.019787  1.715751  -0.476103
H    -2.499465  0.746244  -0.525946
N    -1.089190  -0.043573  1.711959
C    -1.760399  1.102416  2.287416
C    -0.995601  2.453098  2.314178
O    -1.665724  3.486827  2.290620
H    -0.615800  -0.671141  2.357212
H    -2.645751  1.350175  1.685737
C    -2.282699  0.760768  3.696323
O    -1.140678  0.295048  4.443368
C    -3.404145  -0.272187  3.679424
H    -2.653594  1.704963  4.129698
H    -1.452099  -0.019588  5.305232
H    -3.084596  -1.203730  3.195116
H    -4.280320  0.118180  3.144379
H    -3.724643  -0.506293  4.704923
N    0.365838  2.493514  2.325764
C    1.352618  1.443314  2.562815
H    0.705932  3.450343  2.314958
H    1.542583  0.834403  1.668677
H    1.048596  0.791789  3.389558
H    2.292144  1.929223  2.849072
