26
Energy: -16612.2592579 eV PBE+vdW (tier 2 basis)
C    -0.615811  -1.294195  -0.062118
C    -0.056969  -0.473205  1.088649
O    1.009931  -0.751833  1.627040
H    -0.647227  -0.701310  -0.987884
H    -1.632071  -1.658583  0.144610
H    0.044701  -2.151186  -0.215916
N    -0.803905  0.596503  1.514682
C    -2.021185  1.131633  0.939896
C    -1.727675  2.116282  -0.207138
O    -0.997429  3.095194  -0.011519
H    -0.355927  1.177992  2.220999
H    -2.661478  0.306726  0.603660
C    -2.799100  1.934338  2.026498
O    -1.954544  2.918997  2.609480
C    -3.332064  1.046455  3.139955
H    -3.653384  2.419186  1.510959
H    -1.496995  3.369089  1.864762
H    -3.828228  1.667850  3.895165
H    -2.517971  0.495489  3.627179
H    -4.062010  0.324838  2.749442
N    -2.317942  1.909468  -1.416056
C    -3.301865  0.900598  -1.782932
H    -2.122497  2.647390  -2.086929
H    -4.252822  1.025770  -1.243879
H    -2.927842  -0.116992  -1.612241
H    -3.508258  0.998194  -2.853744
