26
Energy: -16612.401273 eV PBE+vdW (tier 2 basis)
C    -2.195184  -0.722640  0.196837
C    -1.411390  0.289937  1.010461
O    -0.786983  1.209081  0.494347
H    -1.482625  -1.384697  -0.313226
H    -2.765333  -0.194204  -0.574982
H    -2.877832  -1.338216  0.796091
N    -1.457679  0.101056  2.375864
C    -0.567840  0.821533  3.286679
C    0.144255  -0.203808  4.197693
O    1.247397  -0.655166  3.901033
H    -1.869489  -0.760946  2.715943
H    0.219459  1.266708  2.663649
C    -1.295016  1.967709  4.032616
O    -2.433316  1.478098  4.780576
C    -1.704344  3.106225  3.109651
H    -0.606974  2.346924  4.803637
H    -3.130644  1.286143  4.130883
H    -2.412327  2.759237  2.343309
H    -0.834880  3.515010  2.580025
H    -2.178872  3.907364  3.689878
N    -0.570006  -0.586770  5.294659
C    -0.053488  -1.533277  6.264330
H    -1.433323  -0.075074  5.482747
H    -0.820101  -2.274600  6.525298
H    0.278479  -1.031429  7.185637
H    0.807059  -2.042200  5.817365
