26
Energy: -16612.1863392 eV PBE+vdW (tier 2 basis)
C    -0.148852  0.727571  0.220971
C    -0.051932  -0.446564  1.177418
O    0.496943  -1.498755  0.860808
H    0.474524  1.563284  0.567226
H    -1.179045  1.096770  0.117921
H    0.212279  0.394468  -0.755365
N    -0.587988  -0.294549  2.433634
C    -1.414877  0.773706  2.956259
C    -0.711470  2.149734  2.904020
O    0.415662  2.322901  3.353581
H    -0.590358  -1.151073  2.982485
H    -2.382796  0.825967  2.417837
C    -1.723525  0.463808  4.436654
O    -2.272008  -0.865389  4.451065
C    -2.678758  1.469522  5.068913
H    -0.755887  0.478539  4.968822
H    -2.304478  -1.166803  5.371627
H    -2.892120  1.184315  6.108003
H    -3.632006  1.500030  4.523577
H    -2.245606  2.478099  5.087785
N    -1.471529  3.142933  2.358520
C    -1.010950  4.513366  2.249002
H    -2.377554  2.895810  1.979407
H    -0.025022  4.566955  2.722796
H    -1.694467  5.204177  2.761478
H    -0.916882  4.820386  1.197805
