26
Energy: -16612.2688065 eV PBE+vdW (tier 2 basis)
C    -0.163710  0.759177  0.034931
C    0.053725  0.783653  1.532360
O    0.971862  1.438112  2.033142
H    0.801651  0.857053  -0.470933
H    -0.780074  1.629464  -0.231087
H    -0.673653  -0.146756  -0.316334
N    -0.819915  0.012682  2.254824
C    -1.105043  0.177183  3.677316
C    -1.915500  1.490449  3.879598
O    -2.014541  2.315007  2.976534
H    -1.589005  -0.366698  1.714031
H    -1.753701  -0.672686  3.944728
C    0.143216  0.089125  4.613508
O    0.834803  1.316439  4.721109
C    1.057896  -1.082983  4.245512
H    -0.253249  -0.106048  5.620455
H    1.064154  1.564437  3.789781
H    1.848520  -1.165080  5.001363
H    1.533546  -0.928566  3.269787
H    0.505277  -2.033605  4.214986
N    -2.560384  1.674246  5.069802
C    -2.547379  0.866848  6.276148
H    -2.999966  2.587995  5.126593
H    -1.669367  1.063237  6.910660
H    -2.575590  -0.203631  6.036843
H    -3.449900  1.091646  6.856925
