26
Energy: -16612.1085598 eV PBE+vdW (tier 2 basis)
C    -0.091913  -0.704059  0.944949
C    -0.561180  -0.623656  2.381904
O    -0.032299  -1.305845  3.256134
H    -0.445922  -1.658501  0.535952
H    1.003801  -0.717335  0.948547
H    -0.449350  0.091767  0.286449
N    -1.600809  0.216680  2.726372
C    -2.435693  1.112665  1.947508
C    -2.970566  0.452377  0.640142
O    -3.112409  -0.763139  0.558786
H    -1.854349  0.095771  3.702119
H    -3.356205  1.249168  2.540293
C    -1.815488  2.538598  1.885631
O    -2.865870  3.422565  1.423287
C    -0.542862  2.707816  1.065551
H    -1.585929  2.788855  2.936511
H    -2.507095  4.323227  1.398478
H    -0.205045  3.753470  1.117654
H    -0.695730  2.448060  0.010485
H    0.268541  2.090391  1.469351
N    -3.311837  1.318782  -0.350235
C    -3.969037  0.861249  -1.560813
H    -3.311468  2.311495  -0.118232
H    -3.763385  1.564760  -2.375883
H    -5.059279  0.772711  -1.433235
H    -3.579982  -0.127301  -1.826687
