26
Energy: -16612.2199713 eV PBE+vdW (tier 2 basis)
C    0.184820  -1.679959  2.340859
C    0.064699  -0.169376  2.349667
O    1.008199  0.554827  2.652306
H    -0.100529  -2.068153  3.328935
H    1.235079  -1.932090  2.168740
H    -0.445513  -2.181088  1.598282
N    -1.165772  0.396869  2.056485
C    -2.362958  -0.215823  1.473991
C    -2.902440  -1.384627  2.338969
O    -3.344889  -2.420759  1.850509
H    -1.120590  1.412298  2.042778
H    -3.133244  0.571546  1.518039
C    -2.205754  -0.580068  -0.031504
O    -1.517789  0.473911  -0.714725
C    -3.545664  -0.740504  -0.729683
H    -1.636463  -1.522565  -0.115687
H    -0.626140  0.550603  -0.339280
H    -3.381133  -0.963670  -1.790757
H    -4.120644  0.194448  -0.665212
H    -4.121975  -1.553833  -0.277898
N    -2.875110  -1.134966  3.677991
C    -3.316275  -2.101070  4.664935
H    -2.405494  -0.289749  3.984032
H    -2.471127  -2.503109  5.243234
H    -3.800957  -2.925192  4.131202
H    -4.036174  -1.648553  5.359570
