26
Energy: -16612.2554679 eV PBE+vdW (tier 2 basis)
C    -0.598958  -0.703226  -0.304119
C    0.011545  -0.077109  0.935399
O    1.053710  0.566233  0.898741
H    -0.772155  -1.782170  -0.185358
H    0.092885  -0.543653  -1.134969
H    -1.560241  -0.226970  -0.543420
N    -0.640841  -0.280542  2.136655
C    -1.977846  -0.796689  2.318749
C    -3.057501  0.318859  2.155457
O    -2.752476  1.456010  1.810934
H    -0.284821  0.339458  2.860527
H    -2.160231  -1.535252  1.523631
C    -2.059422  -1.574394  3.665113
O    -3.256199  -2.386024  3.723405
C    -2.066783  -0.682974  4.896830
H    -1.173863  -2.230274  3.693853
H    -3.108569  -3.179072  3.184988
H    -2.954535  -0.037478  4.912588
H    -1.177126  -0.040721  4.927893
H    -2.070019  -1.298878  5.803655
N    -4.333539  -0.096563  2.383093
C    -5.464163  0.811216  2.321347
H    -4.448742  -1.019766  2.799253
H    -5.769027  1.156881  3.321156
H    -5.170262  1.684610  1.730230
H    -6.320257  0.319250  1.842612
