26
Energy: -16612.0864969 eV PBE+vdW (tier 2 basis)
C    -0.106747  0.562122  -0.040783
C    0.032905  0.322112  1.448321
O    1.126835  0.244556  1.992540
H    -0.367192  -0.377527  -0.547244
H    0.861694  0.902823  -0.416314
H    -0.876584  1.304143  -0.285799
N    -1.120606  0.213568  2.213729
C    -2.515930  0.024127  1.793676
C    -2.641700  -1.158172  0.796960
O    -2.282620  -2.279693  1.140364
H    -0.898640  -0.102578  3.153640
H    -3.024180  -0.348595  2.695136
C    -3.204432  1.373916  1.444131
O    -2.794089  2.376932  2.366385
C    -4.723415  1.290316  1.524390
H    -2.908392  1.692312  0.420612
H    -1.852562  2.203281  2.556358
H    -5.161196  2.268931  1.293624
H    -5.026429  1.014185  2.543267
H    -5.137035  0.550874  0.827250
N    -3.163274  -0.883177  -0.431469
C    -3.307663  -1.897575  -1.459636
H    -3.356328  0.081313  -0.672711
H    -4.298678  -1.833457  -1.926546
H    -3.191647  -2.876006  -0.982805
H    -2.538911  -1.795965  -2.240344
