26
Energy: -16612.0929127 eV PBE+vdW (tier 2 basis)
C    0.454593  -0.185596  0.097181
C    0.259788  0.280235  1.530738
O    1.086673  0.973637  2.113500
H    -0.348988  -0.831358  -0.278239
H    1.408355  -0.722606  0.028634
H    0.532372  0.696964  -0.550358
N    -0.919526  -0.107891  2.113536
C    -1.290528  0.168380  3.498642
C    -0.944540  1.612438  3.942871
O    -0.292226  1.832990  4.957523
H    -1.519809  -0.741157  1.599966
H    -2.389150  0.070131  3.536673
C    -0.700675  -0.877290  4.488435
O    -0.794491  -2.195566  3.920314
C    -1.465209  -0.912254  5.800068
H    0.351679  -0.611208  4.670635
H    -0.086615  -2.283239  3.264455
H    -1.012736  -1.649261  6.474262
H    -2.509552  -1.209369  5.623882
H    -1.443306  0.068881  6.285915
N    -1.485726  2.640396  3.218822
C    -2.249466  2.605408  1.986794
H    -1.161408  3.545964  3.544131
H    -2.969637  1.778177  1.992308
H    -1.615650  2.507541  1.091003
H    -2.822556  3.536771  1.904086
