26
Energy: -16612.0967135 eV PBE+vdW (tier 2 basis)
C    0.390212  0.438159  1.149058
C    0.105062  -0.271254  2.458372
O    0.944477  -0.966128  3.026495
H    1.334029  0.053217  0.754798
H    0.489139  1.521846  1.305668
H    -0.407476  0.293867  0.407986
N    -1.136983  -0.084241  3.021069
C    -2.293795  0.567739  2.430064
C    -2.107581  2.064930  2.096035
O    -2.556712  2.508188  1.039748
H    -1.328624  -0.705954  3.803506
H    -2.557782  0.108183  1.463115
C    -3.510205  0.387905  3.366662
O    -3.542841  -1.013179  3.685664
C    -4.813764  0.855029  2.733553
H    -3.326508  0.964207  4.294108
H    -4.322793  -1.175835  4.237981
H    -5.646261  0.713485  3.437434
H    -5.025400  0.282390  1.821633
H    -4.774529  1.918764  2.468255
N    -1.476517  2.886478  2.987895
C    -0.823700  2.606133  4.260609
H    -1.400417  3.834159  2.630411
H    0.171598  2.156268  4.137279
H    -1.422907  1.936878  4.886689
H    -0.714534  3.555096  4.798636
