26
Energy: -16612.5094544 eV PBE+vdW (tier 2 basis)
C    -2.461672  -0.281860  0.892133
C    -1.353371  -0.231515  1.920398
O    -0.160752  -0.224181  1.569101
H    -2.292072  -1.144035  0.236066
H    -2.401499  0.619163  0.268099
H    -3.467296  -0.349667  1.323321
N    -1.745688  -0.184423  3.217315
C    -0.900950  -0.057596  4.418592
C    -0.311259  1.351670  4.665940
O    -0.304532  1.806801  5.808473
H    -2.744118  -0.150979  3.382849
H    -1.590015  -0.196753  5.260745
C    0.197107  -1.154624  4.580993
O    1.349724  -0.940116  3.781784
C    -0.374712  -2.562106  4.400682
H    0.542719  -1.039119  5.620281
H    1.035409  -0.807069  2.860332
H    -0.715618  -2.727193  3.369566
H    -1.221775  -2.745927  5.077743
H    0.408232  -3.298031  4.618469
N    0.173849  2.006121  3.580226
C    0.861053  3.277999  3.711105
H    0.306226  1.465164  2.727161
H    0.763425  3.846005  2.778631
H    1.929915  3.144422  3.939254
H    0.406671  3.842847  4.531741
