26
Energy: -16612.354822 eV PBE+vdW (tier 2 basis)
C    0.220227  -0.628039  0.490806
C    0.128694  -0.196030  1.941107
O    1.116716  -0.125541  2.668445
H    -0.749983  -0.684359  -0.018228
H    0.707921  -1.609331  0.443961
H    0.862836  0.081098  -0.045885
N    -1.136426  0.092962  2.387977
C    -1.402415  0.628754  3.713478
C    -2.433112  -0.230634  4.473154
O    -3.506275  0.237046  4.877597
H    -1.904812  0.046147  1.729125
H    -0.442286  0.568999  4.249052
C    -1.799230  2.132379  3.672319
O    -2.055149  2.597133  4.991928
C    -2.941120  2.468652  2.708260
H    -0.895595  2.668660  3.342847
H    -2.818452  2.067140  5.299450
H    -2.671208  2.253218  1.663955
H    -3.151587  3.543103  2.775097
H    -3.857354  1.920654  2.961960
N    -2.118457  -1.533752  4.702429
C    -0.904880  -2.262849  4.370445
H    -2.855320  -2.033921  5.191538
H    -0.723579  -3.019057  5.143320
H    -0.036297  -1.595783  4.339802
H    -0.979857  -2.769649  3.396060
