26
Energy: -16612.3254508 eV PBE+vdW (tier 2 basis)
C    -3.371450  0.472216  2.411732
C    -2.510335  -0.006245  1.259306
O    -2.907843  -0.821914  0.433269
H    -2.891930  0.300736  3.385145
H    -4.313804  -0.079886  2.374934
H    -3.580984  1.547446  2.323593
N    -1.230665  0.502442  1.165550
C    -0.623530  1.575169  1.943604
C    -0.406617  2.815753  1.044594
O    -1.253562  3.705605  0.999176
H    -0.771743  0.238229  0.296793
H    -1.354420  1.911058  2.686829
C    0.631557  1.084871  2.709801
O    1.615415  0.526180  1.811570
C    0.281629  0.101490  3.818079
H    1.126688  1.968365  3.140653
H    1.329693  -0.376566  1.592703
H    1.193032  -0.245469  4.320380
H    -0.251056  -0.772052  3.413690
H    -0.365548  0.572116  4.570547
N    0.735983  2.800432  0.305348
C    1.081093  3.862138  -0.620615
H    1.389946  2.037278  0.476357
H    1.943847  4.443077  -0.263370
H    0.217579  4.530238  -0.704051
H    1.318022  3.452294  -1.611616
