26
Energy: -16612.3849538 eV PBE+vdW (tier 2 basis)
C    0.566902  -0.165002  0.365606
C    0.185205  -0.129787  1.832078
O    0.889481  -0.623712  2.706696
H    0.509510  -1.203637  0.013871
H    1.609156  0.158274  0.263546
H    -0.071843  0.460207  -0.269790
N    -1.002355  0.519633  2.109754
C    -1.607320  0.430038  3.432340
C    -2.760259  -0.580765  3.372241
O    -3.616410  -0.486410  2.489206
H    -1.662665  0.637554  1.344046
H    -0.803383  0.120167  4.109913
C    -2.123151  1.822289  3.873618
O    -1.056165  2.767667  3.834414
C    -2.678808  1.820850  5.287920
H    -2.922607  2.118488  3.167196
H    -0.595538  2.635363  2.987360
H    -3.011259  2.831015  5.555248
H    -1.904537  1.518021  6.006006
H    -3.537651  1.143287  5.376817
N    -2.800527  -1.557450  4.318142
C    -1.823991  -1.838399  5.362646
H    -3.601736  -2.175212  4.229898
H    -0.802241  -1.852007  4.961578
H    -2.036501  -2.831846  5.771583
H    -1.875307  -1.113624  6.188067
