26
Energy: -16612.4634991 eV PBE+vdW (tier 2 basis)
C    -0.132444  0.940484  -0.053198
C    -0.614599  1.205952  1.356531
O    -0.725906  2.362017  1.793320
H    -0.769022  1.492811  -0.754819
H    -0.130127  -0.122072  -0.322717
H    0.886199  1.336079  -0.155136
N    -0.896374  0.110039  2.102156
C    -1.335255  0.159275  3.488770
C    -1.277011  -1.287273  3.982923
O    -1.509164  -2.222568  3.210700
H    -0.912583  -0.822813  1.692628
H    -0.641795  0.797850  4.054056
C    -2.763145  0.825091  3.631632
O    -2.616072  2.222642  3.811802
C    -3.635475  0.305080  4.764695
H    -3.274673  0.602622  2.674836
H    -1.971247  2.522459  3.126200
H    -3.186951  0.499863  5.747275
H    -3.830920  -0.769720  4.665515
H    -4.595072  0.835515  4.731934
N    -0.988757  -1.501614  5.294955
C    -0.510636  -0.550012  6.287036
H    -0.961356  -2.488010  5.536313
H    -0.755502  -0.928875  7.285915
H    -1.003002  0.420953  6.176488
H    0.578888  -0.399775  6.229190
