26
Energy: -16612.3691993 eV PBE+vdW (tier 2 basis)
C    -3.307366  0.066476  1.029661
C    -1.880011  -0.227870  1.444894
O    -1.078537  -0.728756  0.649233
H    -3.827329  -0.887499  0.870443
H    -3.293830  0.596476  0.070636
H    -3.870820  0.656192  1.762819
N    -1.566491  0.098657  2.732126
C    -0.344590  -0.283702  3.464358
C    -0.503062  0.170852  4.922270
O    -0.323886  -0.591126  5.864734
H    -2.336742  0.417188  3.310222
H    -0.251825  -1.379191  3.496449
C    0.975725  0.271064  2.825961
O    1.381781  -0.508582  1.722329
C    2.138516  0.279358  3.812150
H    0.759084  1.315695  2.509545
H    0.578729  -0.669224  1.166688
H    1.979701  0.983182  4.638988
H    3.045852  0.575312  3.272489
H    2.300294  -0.721903  4.231763
N    -0.859670  1.487009  5.076441
C    -0.928890  2.112756  6.385687
H    -0.821967  2.086535  4.258387
H    -1.720351  2.871584  6.399664
H    0.025115  2.584164  6.667730
H    -1.155430  1.335354  7.122334
