26
Energy: -16612.4614989 eV PBE+vdW (tier 2 basis)
C    -3.006521  -0.499511  1.006861
C    -1.862453  0.003541  1.864413
O    -1.399986  1.142081  1.713085
H    -2.738215  -0.369021  -0.048447
H    -3.887957  0.125994  1.197744
H    -3.270129  -1.549095  1.183750
N    -1.395906  -0.873205  2.797355
C    -0.287596  -0.669492  3.744289
C    -0.595473  0.338916  4.879467
O    -0.506936  -0.012475  6.056103
H    -1.865710  -1.767684  2.858286
H    -0.169709  -1.629770  4.260336
C    1.060914  -0.378054  3.027840
O    1.339895  -1.408222  2.071228
C    2.215497  -0.358293  4.014866
H    0.992021  0.594807  2.515333
H    0.708110  -1.313440  1.341775
H    3.151799  -0.162826  3.479019
H    2.303645  -1.325302  4.527980
H    2.076376  0.420478  4.774119
N    -0.904214  1.595010  4.468554
C    -1.224943  2.658645  5.399612
H    -1.006024  1.745130  3.459133
H    -1.009758  2.302536  6.412562
H    -2.287329  2.938225  5.340987
H    -0.617396  3.550027  5.192750
