26
Energy: -16611.8924792 eV PBE+vdW (tier 2 basis)
C    0.315131  0.530603  0.795942
C    -0.211300  0.211440  2.178224
O    0.519640  0.213096  3.165734
H    1.400292  0.636978  0.873240
H    -0.102452  1.475567  0.421915
H    0.068759  -0.271649  0.091269
N    -1.560602  -0.041771  2.353339
C    -2.662738  -0.289376  1.434085
C    -2.523330  -1.646936  0.700803
O    -1.432418  -2.091432  0.352097
H    -1.750791  -0.268979  3.324637
H    -3.544837  -0.340420  2.083941
C    -2.987324  0.901788  0.471214
O    -4.371909  1.222394  0.729169
C    -2.761671  0.652999  -1.015608
H    -2.360701  1.744246  0.807789
H    -4.638991  1.910372  0.099288
H    -2.985486  1.565836  -1.586620
H    -3.412592  -0.151445  -1.382618
H    -1.722951  0.375809  -1.228659
N    -3.679125  -2.324625  0.432230
C    -5.037753  -2.037919  0.874390
H    -3.507433  -3.219587  -0.017208
H    -5.734059  -2.588207  0.231354
H    -5.267323  -0.971225  0.778818
H    -5.215136  -2.353534  1.915297
