26
Energy: -16612.2197317 eV PBE+vdW (tier 2 basis)
C    0.036911  0.363994  0.160705
C    -0.043660  0.290608  1.674678
O    0.955616  0.333483  2.387139
H    1.094261  0.377253  -0.115289
H    -0.437379  1.278365  -0.224085
H    -0.451977  -0.491530  -0.324128
N    -1.294965  0.192139  2.238198
C    -2.581371  0.059802  1.573993
C    -3.656446  0.915196  2.281361
O    -4.729451  0.432854  2.661801
H    -1.270775  0.095061  3.250276
H    -2.484707  0.468810  0.556404
C    -3.029483  -1.421944  1.404113
O    -4.266627  -1.473824  0.703359
C    -3.047653  -2.230123  2.702958
H    -2.292449  -1.881162  0.725433
H    -4.904175  -1.019474  1.290552
H    -3.366907  -3.254630  2.476257
H    -3.746840  -1.803673  3.432907
H    -2.047930  -2.284656  3.155840
N    -3.389195  2.237424  2.468536
C    -2.264825  3.029907  1.992475
H    -4.145484  2.724266  2.940132
H    -1.366475  2.902481  2.611110
H    -2.557651  4.085257  2.012908
H    -2.010513  2.779649  0.954352
