26
Energy: -16612.2594314 eV PBE+vdW (tier 2 basis)
C    -0.237878  -0.520710  -0.066916
C    -0.055222  -0.112394  1.384754
O    1.064202  0.167859  1.819206
H    0.250971  0.223194  -0.706528
H    -1.284150  -0.632244  -0.377116
H    0.278466  -1.476878  -0.222600
N    -1.211552  -0.076156  2.113721
C    -1.455111  0.096695  3.556086
C    -0.888863  1.344600  4.281940
O    -1.543719  1.795496  5.226379
H    -2.045446  -0.301066  1.585877
H    -2.538020  0.258150  3.634187
C    -1.169687  -1.168741  4.399102
O    0.246945  -1.364959  4.424384
C    -1.901309  -2.403929  3.879876
H    -1.539449  -0.919781  5.410661
H    0.433758  -2.130856  4.988260
H    -1.552422  -2.672222  2.873826
H    -2.988387  -2.240992  3.849921
H    -1.718214  -3.262312  4.541469
N    0.285053  1.842765  3.853150
C    0.917993  2.959867  4.525686
H    0.805987  1.286553  3.158187
H    1.631578  3.432865  3.841620
H    1.453935  2.642068  5.434063
H    0.157650  3.691001  4.824031
