26
Energy: -16612.3069842 eV PBE+vdW (tier 2 basis)
C    -0.157594  -0.297697  0.059550
C    -0.039149  0.113627  1.517308
O    1.038997  0.103308  2.103718
H    0.856083  -0.423098  -0.329636
H    -0.687810  0.440545  -0.555522
H    -0.689563  -1.254131  -0.034457
N    -1.182767  0.511484  2.174450
C    -2.568953  0.426314  1.736187
C    -3.271173  1.759449  2.083237
O    -4.035720  1.858194  3.051831
H    -1.045050  0.635261  3.175969
H    -2.578554  0.291515  0.645774
C    -3.339097  -0.758790  2.382140
O    -3.328133  -0.652717  3.800734
C    -2.754036  -2.111247  2.011511
H    -4.378468  -0.697122  2.002834
H    -3.753089  0.213775  3.980367
H    -3.330951  -2.901912  2.505822
H    -1.712067  -2.195282  2.347058
H    -2.796525  -2.281655  0.927157
N    -3.004666  2.839856  1.302429
C    -2.086417  2.940503  0.180719
H    -3.445405  3.691784  1.636503
H    -2.204866  3.929767  -0.272959
H    -2.312955  2.195534  -0.594509
H    -1.038241  2.823363  0.490367
