26
Energy: -16612.4660174 eV PBE+vdW (tier 2 basis)
C    -1.261596  -0.163782  -0.182862
C    -0.759155  0.170795  1.207967
O    0.189640  0.949999  1.365425
H    -1.464126  0.771023  -0.718739
H    -2.160924  -0.791083  -0.198034
H    -0.460091  -0.683329  -0.723970
N    -1.432739  -0.433185  2.227510
C    -1.154867  -0.511519  3.669509
C    -0.894479  0.765748  4.484529
O    -1.024819  0.674635  5.717125
H    -2.194298  -1.033757  1.934980
H    -2.080970  -0.907940  4.107003
C    -0.060247  -1.574025  4.033153
O    -0.244830  -1.987991  5.379632
C    1.371508  -1.109624  3.769273
H    -0.274393  -2.457895  3.409172
H    -0.442870  -1.172459  5.892423
H    2.063046  -1.918728  4.034173
H    1.620837  -0.236046  4.387415
H    1.528336  -0.837376  2.717624
N    -0.505373  1.886634  3.853144
C    -0.156939  3.082015  4.601011
H    -0.182793  1.775192  2.879807
H    -0.902090  3.260400  5.384408
H    -0.137484  3.935731  3.915277
H    0.826717  2.990565  5.087044
