26
Energy: -16612.2885795 eV PBE+vdW (tier 2 basis)
C    0.168120  1.200921  0.353431
C    -0.158522  0.986187  1.818241
O    0.629411  1.294375  2.714527
H    -0.606756  0.834727  -0.331105
H    1.116486  0.699705  0.125382
H    0.313719  2.275063  0.182866
N    -1.384560  0.442254  2.070671
C    -1.856196  0.187063  3.419744
C    -1.628609  -1.300832  3.761099
O    -2.281909  -2.177038  3.190511
H    -1.966174  0.141336  1.297589
H    -1.276004  0.852199  4.070672
C    -3.346087  0.527198  3.573519
O    -3.485257  1.894458  3.163130
C    -3.822232  0.313077  5.008102
H    -3.917836  -0.135931  2.898307
H    -4.413722  2.144699  3.285462
H    -3.246042  0.937689  5.704620
H    -3.727030  -0.739139  5.306821
H    -4.883215  0.583803  5.103464
N    -0.680102  -1.595288  4.689380
C    0.200211  -0.683521  5.411778
H    -0.582794  -2.592006  4.859442
H    1.048973  -1.259482  5.796769
H    -0.305327  -0.210608  6.267899
H    0.592454  0.093091  4.742678
