26
Energy: -16612.2742144 eV PBE+vdW (tier 2 basis)
C    0.040255  -0.297428  -0.216027
C    -0.529195  -0.050175  1.169190
O    -0.759822  1.072284  1.596912
H    -0.666376  0.092546  -0.959442
H    0.240015  -1.353708  -0.436991
H    0.970222  0.274136  -0.322290
N    -0.768756  -1.188211  1.916381
C    -1.373309  -1.161865  3.245400
C    -0.349538  -1.224197  4.403044
O    -0.703993  -1.068104  5.567545
H    -0.560040  -2.091648  1.501878
H    -1.871093  -0.185647  3.341694
C    -2.449231  -2.280255  3.308824
O    -3.418419  -2.074116  2.274312
C    -3.225443  -2.361337  4.610726
H    -1.928493  -3.247824  3.138236
H    -2.947879  -1.801169  1.469383
H    -3.716625  -1.403884  4.824329
H    -2.574090  -2.607533  5.454124
H    -3.998075  -3.133645  4.507559
N    0.940581  -1.470356  4.037044
C    2.028157  -1.464547  4.996728
H    1.154914  -1.440140  3.047470
H    2.607283  -0.530348  4.949834
H    2.702691  -2.311928  4.819104
H    1.591259  -1.551901  5.997031
