26
Energy: -16612.1878002 eV PBE+vdW (tier 2 basis)
C    0.050841  -0.323235  0.087897
C    0.067845  -0.001273  1.568109
O    1.122923  0.140671  2.181994
H    1.076638  -0.229744  -0.277710
H    -0.606046  0.337257  -0.490274
H    -0.291980  -1.355381  -0.068938
N    -1.124495  0.120109  2.255135
C    -2.528116  0.014534  1.859324
C    -2.771887  -1.089109  0.797335
O    -2.599940  -2.270571  1.085921
H    -0.950844  0.241216  3.248828
H    -3.053831  -0.390516  2.738610
C    -3.172765  1.396185  1.572614
O    -2.626741  2.017794  0.392422
C    -3.098834  2.339512  2.767587
H    -4.229148  1.216731  1.320748
H    -1.716568  2.288829  0.600659
H    -3.605510  3.282931  2.531586
H    -2.055389  2.565670  3.030928
H    -3.583740  1.900548  3.650653
N    -3.223359  -0.662598  -0.411669
C    -3.450149  -1.590878  -1.502985
H    -3.142698  0.333550  -0.609902
H    -4.187281  -1.169756  -2.195915
H    -3.828004  -2.534283  -1.095225
H    -2.522944  -1.808971  -2.056912
