26
Energy: -16612.3777567 eV PBE+vdW (tier 2 basis)
C    0.106640  -0.083010  0.007692
C    0.055632  -0.068125  1.523992
O    1.066524  -0.173287  2.217621
H    0.557576  -1.028316  -0.319063
H    0.764437  0.726861  -0.331162
H    -0.875271  0.029756  -0.467900
N    -1.191597  0.079584  2.063822
C    -1.428079  0.019708  3.490137
C    -2.816781  -0.595216  3.689467
O    -3.694910  -0.447609  2.833762
H    -2.029258  0.062586  1.486912
H    -0.635288  -0.595216  3.937189
C    -1.306293  1.441370  4.144585
O    -1.337582  1.351989  5.573810
C    -2.315526  2.452864  3.621615
H    -0.285707  1.771634  3.902250
H    -2.267162  1.393733  5.851619
H    -2.107582  3.439590  4.053886
H    -3.345963  2.164083  3.879003
H    -2.262716  2.538559  2.529185
N    -3.067764  -1.252795  4.857657
C    -2.098613  -1.775600  5.816751
H    -4.002075  -1.653719  4.877258
H    -1.596875  -2.683337  5.446849
H    -2.629172  -2.026997  6.742118
H    -1.347963  -1.016888  6.057491
