26
Energy: -16612.3279313 eV PBE+vdW (tier 2 basis)
C    0.873170  -0.097903  0.638832
C    0.292502  -0.093054  2.038394
O    0.922274  -0.520006  3.009014
H    1.780087  0.519656  0.634488
H    0.183512  0.277590  -0.126795
H    1.171944  -1.121832  0.383591
N    -0.968788  0.418358  2.147887
C    -1.650556  0.530871  3.423251
C    -2.805321  -0.488197  3.458534
O    -3.812244  -0.312729  2.769895
H    -1.454686  0.738990  1.318278
H    -0.887578  0.302519  4.179451
C    -2.188927  1.958958  3.671208
O    -1.175849  2.937115  3.429711
C    -2.789867  2.085453  5.068532
H    -2.965286  2.167271  2.920471
H    -0.459798  2.799644  4.071724
H    -3.148176  3.109222  5.228647
H    -2.040034  1.857924  5.842316
H    -3.637873  1.400691  5.202882
N    -2.653477  -1.583466  4.251783
C    -1.515563  -1.951888  5.085863
H    -3.451144  -2.211934  4.225336
H    -0.566126  -1.731970  4.581779
H    -1.556667  -3.031556  5.268288
H    -1.532527  -1.441728  6.061638
