26
Energy: -16612.7531509 eV PBE+vdW (tier 2 basis)
C    -0.948594  3.491572  1.836307
C    -1.538929  2.103372  1.956246
O    -2.574975  1.779199  1.358962
H    -1.702664  4.226683  2.143210
H    -0.715998  3.683341  0.781263
H    -0.040077  3.634945  2.433238
N    -0.861166  1.233686  2.750816
C    -1.270317  -0.152705  2.934768
C    -2.378570  -0.247594  4.013880
O    -2.143958  -0.649436  5.162018
H    -0.075808  1.544116  3.316267
H    -1.683355  -0.503328  1.976783
C    -0.053845  -1.009560  3.334927
O    0.541661  -0.475210  4.520433
C    1.012328  -1.084219  2.253909
H    -0.437300  -2.026467  3.535414
H    -0.178683  -0.530601  5.186431
H    0.605975  -1.524691  1.333949
H    1.843886  -1.708757  2.601594
H    1.411588  -0.090092  2.013017
N    -3.591710  0.160981  3.578413
C    -4.746040  0.267707  4.450562
H    -3.609367  0.598197  2.651771
H    -4.517460  -0.249457  5.387956
H    -5.623311  -0.198883  3.984227
H    -4.983310  1.318202  4.674641
