26
Energy: -16612.0525553 eV PBE+vdW (tier 2 basis)
C    -0.224786  0.364146  0.150397
C    -0.013567  0.386138  1.653332
O    0.908136  1.012627  2.170415
H    0.630635  0.859798  -0.315640
H    -1.142489  0.902521  -0.122260
H    -0.302539  -0.659363  -0.242961
N    -0.903637  -0.310503  2.432283
C    -1.948728  -1.233493  2.031900
C    -3.007609  -0.554326  1.132151
O    -3.521806  0.512880  1.450252
H    -0.648895  -0.344860  3.416328
H    -1.517939  -2.120961  1.536613
C    -2.676268  -1.716080  3.306170
O    -1.648144  -2.208050  4.182835
C    -3.725424  -2.786814  3.026822
H    -3.155079  -0.825403  3.749571
H    -2.037124  -2.330858  5.062037
H    -4.218900  -3.084474  3.961850
H    -3.260234  -3.681804  2.592294
H    -4.506647  -2.419615  2.347933
N    -3.372319  -1.207077  -0.013179
C    -2.864566  -2.451919  -0.568885
H    -4.091893  -0.714360  -0.532828
H    -3.111653  -3.323851  0.053111
H    -1.776218  -2.424540  -0.719667
H    -3.328356  -2.600741  -1.549851
