26
Energy: -16611.8109764 eV PBE+vdW (tier 2 basis)
C    0.502617  1.047502  1.321974
C    0.074785  -0.330925  1.774789
O    0.908905  -1.196265  2.041951
H    0.009591  1.833400  1.906148
H    0.270920  1.207218  0.259939
H    1.586905  1.107049  1.447898
N    -1.262787  -0.645812  1.912148
C    -2.565075  -0.024601  1.649147
C    -3.372460  -0.842747  0.606470
O    -4.488424  -1.263965  0.908294
H    -1.346959  -1.597306  2.264453
H    -3.164620  -0.151924  2.563075
C    -2.600392  1.488169  1.372193
O    -2.171198  2.116646  2.590558
C    -3.996829  1.958287  0.972849
H    -1.899093  1.745820  0.559186
H    -2.408573  3.055597  2.537504
H    -3.999976  3.053610  0.873874
H    -4.743849  1.670262  1.723032
H    -4.302879  1.542258  0.004553
N    -2.838317  -1.097978  -0.624769
C    -1.544244  -0.741735  -1.185209
H    -3.441461  -1.693386  -1.183867
H    -1.573953  -0.941360  -2.261886
H    -0.718776  -1.319615  -0.746745
H    -1.330120  0.326837  -1.061282
