26
Energy: -16612.4418254 eV PBE+vdW (tier 2 basis)
C    -2.614317  -0.060571  0.523000
C    -1.597410  0.233822  1.605832
O    -0.625298  0.970138  1.387529
H    -3.517482  -0.563864  0.888522
H    -2.138637  -0.699302  -0.233143
H    -2.894464  0.878927  0.033575
N    -1.832186  -0.358488  2.808736
C    -0.910809  -0.435022  3.950494
C    -0.701434  0.891052  4.724726
O    -0.870891  0.912184  5.945653
H    -2.628001  -0.981774  2.851700
H    -1.413043  -1.075570  4.687281
C    0.423684  -1.133809  3.563637
O    0.140676  -2.433989  3.024173
C    1.402815  -1.203437  4.727433
H    0.874369  -0.579943  2.728928
H    0.028606  -3.044860  3.770916
H    2.307331  -1.739680  4.414609
H    0.961557  -1.724756  5.590891
H    1.695435  -0.202822  5.069021
N    -0.279440  1.941767  3.982038
C    -0.033892  3.248796  4.557452
H    -0.220129  1.797995  2.965075
H    -0.767448  3.987231  4.201669
H    0.972431  3.604413  4.296863
H    -0.116023  3.165563  5.646388
