26
Energy: -16612.2210399 eV PBE+vdW (tier 2 basis)
C    -0.188132  0.560567  0.046735
C    -0.251636  -0.127638  1.394656
O    0.758851  -0.481545  1.994018
H    -1.015039  0.308425  -0.626507
H    0.765039  0.297487  -0.420515
H    -0.203224  1.649916  0.195983
N    -1.495539  -0.335605  1.969731
C    -2.832620  0.022255  1.488113
C    -3.183039  -0.668421  0.142006
O    -3.880753  -0.128929  -0.712741
H    -1.423361  -0.712824  2.910460
H    -3.523411  -0.406639  2.232127
C    -3.102419  1.555784  1.481508
O    -2.552517  2.149306  2.661709
C    -4.585919  1.885951  1.489109
H    -2.638761  1.995489  0.580670
H    -1.620165  1.885343  2.726981
H    -4.715491  2.974186  1.535484
H    -5.066996  1.449394  2.376099
H    -5.071807  1.504455  0.586060
N    -2.686230  -1.930941  0.019063
C    -2.902024  -2.746019  -1.160700
H    -2.049904  -2.256040  0.738261
H    -1.969359  -2.893125  -1.724451
H    -3.622324  -2.224296  -1.799379
H    -3.308886  -3.728479  -0.886855
