26
Energy: -16611.9792096 eV PBE+vdW (tier 2 basis)
C    -0.196598  -0.185908  0.046791
C    -0.089917  -0.103008  1.555824
O    0.999314  -0.019989  2.115452
H    0.010187  -1.222564  -0.254592
H    0.590557  0.444696  -0.378631
H    -1.164882  0.100718  -0.372178
N    -1.238303  -0.209510  2.325585
C    -2.650930  -0.035055  1.974805
C    -3.095003  -0.934811  0.790832
O    -3.818898  -0.547487  -0.117852
H    -1.012237  -0.113858  3.313203
H    -3.203248  -0.446893  2.838324
C    -3.086028  1.461267  1.908600
O    -4.506697  1.582644  2.018654
C    -2.663094  2.244935  0.676103
H    -2.603702  1.927315  2.790809
H    -4.777437  1.279640  2.899154
H    -3.005186  3.281409  0.784577
H    -3.110557  1.819027  -0.227963
H    -1.571260  2.263458  0.574043
N    -2.646610  -2.220711  0.902483
C    -2.905455  -3.223314  -0.111989
H    -1.962256  -2.414280  1.625606
H    -3.206928  -4.171622  0.350885
H    -2.022801  -3.402280  -0.745312
H    -3.719254  -2.856056  -0.745864
