26
Energy: -16612.0497218 eV PBE+vdW (tier 2 basis)
C    0.291096  0.160592  0.829899
C    -0.204589  -0.200508  2.215096
O    0.566274  -0.344293  3.160853
H    0.249376  -0.715796  0.167598
H    1.333539  0.475254  0.925429
H    -0.295716  0.952239  0.349555
N    -1.553823  -0.426723  2.404021
C    -2.696975  -0.121891  1.546371
C    -2.530850  -0.686407  0.119977
O    -2.505575  0.030945  -0.879154
H    -1.771775  -0.540092  3.390117
H    -3.545529  -0.660466  2.003149
C    -3.092415  1.369750  1.557174
O    -3.130127  1.711208  2.953836
C    -4.437306  1.634802  0.889537
H    -2.303230  1.949003  1.046947
H    -3.399641  2.639220  3.023827
H    -4.709239  2.694864  0.997318
H    -5.227942  1.034957  1.362767
H    -4.397074  1.405241  -0.180964
N    -2.420363  -2.043461  0.016945
C    -2.411901  -3.047916  1.068588
H    -2.278560  -2.353973  -0.939269
H    -2.629613  -4.022402  0.617388
H    -3.191526  -2.848563  1.815085
H    -1.445731  -3.104552  1.589368
