26
Energy: -16612.2164809 eV PBE+vdW (tier 2 basis)
C    -0.206697  0.222555  -0.211034
C    -0.314505  -0.394046  1.171086
O    0.242278  -1.469102  1.428479
H    0.855641  0.347066  -0.454674
H    -0.713222  1.189726  -0.314413
H    -0.627301  -0.480757  -0.940436
N    -1.048160  0.323975  2.065151
C    -1.371850  0.072420  3.479184
C    -0.779562  1.176708  4.382974
O    -1.525004  1.842089  5.101962
H    -1.473173  1.168553  1.698778
H    -2.457596  0.216803  3.572200
C    -1.087529  -1.361669  4.018562
O    -1.674546  -2.340559  3.176429
C    -1.681021  -1.520634  5.412089
H    0.001143  -1.524931  4.073209
H    -1.069318  -2.393469  2.405860
H    -2.770127  -1.383127  5.384583
H    -1.261019  -0.798327  6.122347
H    -1.470707  -2.534042  5.773433
N    0.571981  1.382795  4.391929
C    1.621967  0.813831  3.561891
H    0.830236  2.154476  5.000597
H    1.793173  1.402835  2.646361
H    1.390797  -0.213412  3.264945
H    2.555228  0.790888  4.137513
