26
Energy: -16612.154896 eV PBE+vdW (tier 2 basis)
C    0.013314  1.194907  0.410197
C    0.084262  0.299654  1.628107
O    1.115451  0.172557  2.284394
H    0.954319  1.748185  0.353194
H    -0.827805  1.894915  0.465011
H    -0.098167  0.590049  -0.500483
N    -1.037893  -0.411544  2.001866
C    -2.390084  -0.464450  1.462310
C    -2.404794  -0.655093  -0.081265
O    -1.888740  -1.652610  -0.576706
H    -0.833043  -1.037858  2.773954
H    -2.798656  -1.426650  1.808605
C    -3.354197  0.594203  2.049455
O    -3.023003  1.890298  1.502118
C    -3.323293  0.626460  3.571251
H    -4.369868  0.312873  1.711814
H    -3.484239  2.564828  2.023931
H    -4.058318  1.347789  3.957392
H    -2.327206  0.910319  3.933304
H    -3.582339  -0.355518  3.990953
N    -3.054566  0.296829  -0.802230
C    -3.098692  0.240684  -2.251445
H    -3.265379  1.174035  -0.329575
H    -3.968604  0.800448  -2.613585
H    -3.180174  -0.805173  -2.565674
H    -2.188296  0.660707  -2.708163
