26
Energy: -16612.2110962 eV PBE+vdW (tier 2 basis)
C    -3.117564  0.057118  0.967496
C    -1.857261  -0.507195  1.596567
O    -1.480878  -1.654588  1.406311
H    -3.181840  -0.287704  -0.069884
H    -3.171134  1.152976  0.991899
H    -3.985393  -0.347350  1.506187
N    -1.161872  0.385476  2.396676
C    -0.076361  -0.038701  3.280357
C    -0.495770  0.160766  4.750959
O    -0.888422  -0.769785  5.443673
H    -1.614577  1.270108  2.602873
H    0.024164  -1.121822  3.129509
C    1.258528  0.636068  2.886284
O    1.564560  0.373903  1.521677
C    2.424752  0.133243  3.722669
H    1.160625  1.737822  3.022959
H    0.735885  0.451262  1.017980
H    2.287691  0.368762  4.785994
H    3.356246  0.600268  3.381110
H    2.525108  -0.954597  3.615821
N    -0.458010  1.458504  5.194525
C    -0.804282  1.816499  6.559197
H    0.031260  2.143371  4.628668
H    0.083444  1.880066  7.206805
H    -1.461882  1.036424  6.955961
H    -1.328016  2.780105  6.576727
