26
Energy: -16611.9159666 eV PBE+vdW (tier 2 basis)
C    -0.844815  1.515325  2.362529
C    -0.091050  0.202926  2.300337
O    0.949601  0.001690  2.922970
H    -0.258270  2.215690  2.962027
H    -1.834489  1.386579  2.823643
H    -1.009922  1.938740  1.362321
N    -0.623998  -0.784634  1.503482
C    -1.912681  -0.780113  0.833580
C    -3.162577  -0.844293  1.749050
O    -4.170231  -0.224613  1.419290
H    -0.084272  -1.645386  1.528601
H    -2.044941  0.176626  0.309937
C    -1.910983  -1.845181  -0.295077
O    -2.959918  -1.476495  -1.187014
C    -2.049520  -3.293852  0.165148
H    -0.931009  -1.722673  -0.798454
H    -3.140922  -2.229881  -1.769545
H    -2.018482  -3.965807  -0.704847
H    -2.998480  -3.453529  0.693763
H    -1.221960  -3.599555  0.820955
N    -3.148193  -1.566461  2.915589
C    -2.102092  -2.317432  3.597822
H    -4.028598  -1.461916  3.410961
H    -2.572075  -2.866609  4.421543
H    -1.316266  -1.675412  4.019182
H    -1.632622  -3.062024  2.944522
