26
Energy: -16612.2458011 eV PBE+vdW (tier 2 basis)
C    -0.072884  0.061226  -0.016820
C    -0.016268  -0.233190  1.470348
O    1.009514  -0.711571  1.970048
H    0.198621  -0.849352  -0.563882
H    0.685618  0.819481  -0.250650
H    -1.048912  0.414652  -0.370366
N    -1.149641  0.078095  2.159633
C    -1.486072  -0.018192  3.589724
C    -1.545954  1.332779  4.345477
O    -2.470756  1.495449  5.143161
H    -1.894247  0.469747  1.594394
H    -2.541685  -0.323842  3.613129
C    -0.744083  -1.093507  4.433055
O    0.632616  -0.821906  4.629955
C    -0.993703  -2.511206  3.909656
H    -1.208764  -1.000740  5.426931
H    1.032598  -0.883655  3.728758
H    -0.530107  -3.229878  4.596242
H    -0.551802  -2.661569  2.916292
H    -2.068620  -2.733516  3.851837
N    -0.631467  2.317446  4.123229
C    0.627419  2.299692  3.393898
H    -0.828079  3.136625  4.690350
H    1.285108  3.061090  3.828018
H    0.495010  2.533188  2.326178
H    1.130199  1.333685  3.494748
