26
Energy: -16612.3791595 eV PBE+vdW (tier 2 basis)
C    0.359146  0.012389  0.154785
C    0.000333  0.042161  1.629217
O    0.290274  0.979889  2.363053
H    -0.299730  0.710355  -0.379584
H    0.260153  -0.980731  -0.300473
H    1.386908  0.371058  0.030676
N    -0.663109  -1.075880  2.092341
C    -1.332715  -1.054301  3.388869
C    -0.366744  -1.171467  4.590412
O    -0.724105  -0.839024  5.718198
H    -1.112502  -1.670379  1.399824
H    -1.853285  -0.092970  3.522767
C    -2.355746  -2.212883  3.439785
O    -3.002944  -2.231327  2.148145
C    -3.366445  -2.060545  4.565676
H    -1.792605  -3.157693  3.566714
H    -3.707882  -2.895722  2.183142
H    -3.978829  -1.163296  4.405608
H    -2.860409  -1.962771  5.533498
H    -4.029588  -2.937135  4.604942
N    0.841395  -1.720517  4.301064
C    1.899897  -1.832823  5.283590
H    1.051640  -1.852686  3.317334
H    1.455983  -1.679264  6.272923
H    2.678205  -1.071234  5.126878
H    2.361703  -2.828205  5.244612
