26
Energy: -16612.5538578 eV PBE+vdW (tier 2 basis)
C    -1.235746  1.036849  -0.012562
C    -1.334166  1.004177  1.499699
O    -1.640011  2.002690  2.155951
H    -0.483127  1.781286  -0.300721
H    -2.198235  1.370455  -0.419567
H    -0.972165  0.070440  -0.458832
N    -1.060804  -0.200633  2.076669
C    -1.171536  -0.447223  3.504242
C    0.230507  -0.460704  4.144920
O    0.955738  -1.464812  4.048113
H    -0.838428  -1.010214  1.504759
H    -1.789391  0.356880  3.922704
C    -1.853335  -1.818285  3.749890
O    -1.157208  -2.844724  3.045399
C    -3.306672  -1.833346  3.305543
H    -1.806676  -2.007874  4.840251
H    -0.219846  -2.743064  3.333999
H    -3.898499  -1.102536  3.872052
H    -3.729899  -2.831153  3.472724
H    -3.395086  -1.599423  2.236520
N    0.654203  0.643841  4.802956
C    -0.047039  1.901605  5.034400
H    1.581506  0.534160  5.205142
H    0.697578  2.697169  5.152163
H    -0.660143  1.866906  5.948104
H    -0.679521  2.157534  4.175483
