26
Energy: -16612.2838647 eV PBE+vdW (tier 2 basis)
C    0.194670  1.492253  0.335587
C    -0.055825  0.926833  1.719541
O    0.860927  0.542178  2.449005
H    0.957173  2.276776  0.405314
H    -0.704232  1.899382  -0.143133
H    0.599420  0.692919  -0.298584
N    -1.360281  0.848085  2.099347
C    -1.740677  0.363360  3.413088
C    -1.302970  -1.112170  3.586701
O    -1.712296  -1.974821  2.813117
H    -2.084716  1.297703  1.551196
H    -1.287033  1.005883  4.183589
C    -3.269931  0.421750  3.554360
O    -3.662092  1.744307  3.133935
C    -3.722356  0.124098  4.978836
H    -3.688416  -0.328953  2.861516
H    -4.630789  1.778452  3.133326
H    -3.310916  0.864259  5.678448
H    -3.402430  -0.878152  5.293506
H    -4.818314  0.157065  5.049545
N    -0.535900  -1.415624  4.671418
C    0.230756  -0.493108  5.500309
H    -0.272425  -2.395985  4.694838
H    0.878683  -1.084264  6.156369
H    -0.421023  0.115006  6.143569
H    0.857996  0.163767  4.882260
