26
Energy: -16612.5059201 eV PBE+vdW (tier 2 basis)
C    -0.096687  -2.005274  -0.173454
C    -0.292834  -1.089222  1.015447
O    0.162175  0.063038  1.027535
H    0.976441  -2.090669  -0.383218
H    -0.566581  -1.543892  -1.051339
H    -0.515404  -3.008156  -0.028652
N    -0.983098  -1.615397  2.063206
C    -1.460123  -0.797867  3.178786
C    -0.340845  -0.587609  4.243812
O    -0.369412  -1.136213  5.346108
H    -1.493673  -2.480012  1.913073
H    -1.740100  0.188308  2.771275
C    -2.684251  -1.460301  3.825892
O    -3.489363  -1.980085  2.745062
C    -3.465824  -0.478513  4.689025
H    -2.321591  -2.290676  4.454977
H    -4.250360  -2.429784  3.142137
H    -3.842831  0.355219  4.081207
H    -2.832841  -0.084603  5.493855
H    -4.323552  -0.978947  5.160532
N    0.632663  0.255799  3.824034
C    1.821795  0.519692  4.609383
H    0.600374  0.522629  2.832738
H    2.693019  -0.033029  4.225683
H    1.633524  0.200421  5.639788
H    2.055379  1.592143  4.598109
