26
Energy: -16612.3773621 eV PBE+vdW (tier 2 basis)
C    -1.884891  -0.815777  0.193966
C    -1.078622  0.155756  1.035423
O    -0.318320  0.980766  0.538049
H    -1.194211  -1.540899  -0.256326
H    -2.364051  -0.264985  -0.623196
H    -2.648377  -1.363951  0.760199
N    -1.257668  0.035558  2.391401
C    -0.486339  0.808749  3.350907
C    0.227554  -0.157351  4.329439
O    1.339740  -0.604718  4.063439
H    -1.917634  -0.647095  2.743178
H    0.319807  1.275385  2.768817
C    -1.301307  1.946615  3.995387
O    -2.434623  1.349583  4.675480
C    -1.761981  2.982852  2.980744
H    -0.645083  2.427965  4.744435
H    -3.016093  2.065253  4.973956
H    -2.418113  2.527213  2.228790
H    -0.903772  3.425339  2.459475
H    -2.311332  3.795067  3.479715
N    -0.482012  -0.491462  5.444706
C    0.034368  -1.400645  6.448732
H    -1.377221  -0.025459  5.585529
H    0.245360  -0.880277  7.394650
H    0.968050  -1.827084  6.066906
H    -0.679228  -2.212397  6.646199
