26
Energy: -16612.1410931 eV PBE+vdW (tier 2 basis)
C    0.291122  0.244859  0.710619
C    -0.029422  -0.486030  1.999801
O    0.819351  -1.112733  2.629891
H    1.285067  -0.068506  0.381407
H    0.299471  1.332358  0.872312
H    -0.442379  0.046531  -0.082506
N    -1.320164  -0.399773  2.468714
C    -2.476652  0.174048  1.807455
C    -2.387285  1.683969  1.500087
O    -2.803370  2.107452  0.421618
H    -1.519429  -1.013166  3.257040
H    -2.635611  -0.283266  0.814976
C    -3.746328  -0.114078  2.667336
O    -3.718292  -1.452927  3.176074
C    -5.033167  0.180916  1.910848
H    -3.701106  0.508256  3.574324
H    -3.929704  -2.059352  2.446541
H    -5.896308  0.006924  2.564349
H    -5.123333  -0.471068  1.028926
H    -5.061748  1.216605  1.550777
N    -1.885299  2.538163  2.441742
C    -1.298550  2.287976  3.752602
H    -1.867842  3.495900  2.104129
H    -1.887116  1.570287  4.333825
H    -1.293078  3.235140  4.304367
H    -0.267411  1.912343  3.691551
