26
Energy: -16612.4809244 eV PBE+vdW (tier 2 basis)
C    -0.651991  0.209066  0.075021
C    -1.253592  0.089025  1.461847
O    -2.445469  -0.148297  1.642229
H    -1.152719  1.029164  -0.454850
H    -0.859034  -0.713112  -0.481756
H    0.429398  0.390425  0.079919
N    -0.362065  0.239823  2.497809
C    -0.816823  0.400273  3.865261
C    0.002198  1.560077  4.466442
O    0.984983  2.016771  3.880963
H    0.516646  0.731602  2.322085
H    -1.889887  0.653913  3.840298
C    -0.643992  -0.899850  4.703580
O    0.737656  -1.224851  4.863163
C    -1.446546  -2.070327  4.146410
H    -0.990079  -0.684026  5.727357
H    1.092599  -1.414389  3.978081
H    -2.513674  -1.825283  4.070726
H    -1.320642  -2.943291  4.798559
H    -1.101935  -2.337527  3.137991
N    -0.434908  2.018683  5.667204
C    0.258424  3.047425  6.420483
H    -1.256447  1.589461  6.075408
H    -0.410431  3.889677  6.643054
H    1.089814  3.404515  5.804702
H    0.659513  2.649053  7.363017
