26
Energy: -16612.0226123 eV PBE+vdW (tier 2 basis)
C    1.022123  -0.424779  -0.819479
C    0.222569  -1.101537  0.280543
O    0.319365  -2.310750  0.489648
H    0.635353  -0.767701  -1.788140
H    2.065787  -0.750635  -0.746287
H    0.982516  0.671188  -0.793841
N    -0.603812  -0.266521  0.978436
C    -1.569756  -0.602579  2.026743
C    -0.951612  -0.442027  3.446471
O    -1.150148  0.623050  4.037284
H    -0.565833  0.713877  0.730541
H    -2.280931  0.236863  2.025612
C    -2.425480  -1.860698  1.731331
O    -3.099366  -1.693262  0.477999
C    -3.410098  -2.129992  2.865342
H    -1.781775  -2.730327  1.567667
H    -3.805495  -1.037602  0.603262
H    -4.055197  -1.256227  3.048542
H    -2.898905  -2.361223  3.809056
H    -4.047549  -2.982767  2.602742
N    -0.188756  -1.416628  4.014363
C    0.111579  -2.775338  3.586955
H    0.123700  -1.142402  4.941967
H    1.092563  -3.057783  3.987465
H    0.169650  -2.835770  2.494291
H    -0.631318  -3.499591  3.958868
