26
Energy: -16612.2369181 eV PBE+vdW (tier 2 basis)
C    0.045694  -0.403391  -0.019954
C    -0.035455  -0.358665  1.498327
O    0.700840  -1.035429  2.203161
H    1.093487  -0.279812  -0.316831
H    -0.563100  0.356010  -0.526619
H    -0.274398  -1.397818  -0.357580
N    -0.986536  0.516819  1.989186
C    -1.454742  0.586921  3.375956
C    -2.353464  1.806854  3.590188
O    -3.094664  1.864714  4.576113
H    -1.673138  0.812107  1.301268
H    -2.062283  -0.297206  3.628318
C    -0.320709  0.642990  4.460940
O    -0.908381  0.502958  5.747667
C    0.559809  1.887544  4.355939
H    0.298448  -0.247198  4.306183
H    -1.730019  1.036039  5.762905
H    1.352906  1.827592  5.110569
H    -0.010024  2.809596  4.541999
H    1.036061  1.957823  3.367540
N    -2.248673  2.819552  2.684338
C    -2.930776  4.087665  2.881142
H    -1.457432  2.786775  2.049414
H    -3.121913  4.558902  1.910397
H    -2.344152  4.776848  3.507584
H    -3.881980  3.895429  3.387501
