26
Energy: -16612.3739634 eV PBE+vdW (tier 2 basis)
C    -0.280430  -0.199274  -0.134035
C    -0.597496  0.529617  1.157383
O    -0.510477  1.761961  1.215877
H    -0.547740  -1.262973  -0.126576
H    0.797768  -0.110049  -0.321906
H    -0.800234  0.299814  -0.959572
N    -0.983027  -0.275301  2.189399
C    -1.181178  0.010418  3.620056
C    -2.169597  1.130374  4.029842
O    -2.909916  0.931809  4.994941
H    -1.022661  -1.261037  1.962385
H    -1.668979  -0.886230  4.022775
C    0.152365  0.166623  4.412626
O    0.943804  1.261530  3.962185
C    1.031511  -1.071427  4.322000
H    -0.156630  0.315159  5.465085
H    0.380746  2.052925  3.921045
H    1.937779  -0.923472  4.921321
H    1.342022  -1.254602  3.284420
H    0.506473  -1.957408  4.702755
N    -2.085199  2.307574  3.367160
C    -2.962991  3.416427  3.696432
H    -1.508251  2.327004  2.508575
H    -2.984210  3.572825  4.781742
H    -3.996435  3.233154  3.365020
H    -2.588017  4.320560  3.205064
