26
Energy: -16612.4767075 eV PBE+vdW (tier 2 basis)
C    -1.722600  0.996024  -0.127387
C    -1.228643  0.348776  1.149195
O    -0.333082  -0.495606  1.153612
H    -2.124076  0.216448  -0.786973
H    -0.868017  1.451026  -0.642864
H    -2.491163  1.761482  0.034139
N    -1.831942  0.782083  2.306856
C    -1.528951  0.163405  3.600191
C    -2.425849  -1.079606  3.788507
O    -3.531655  -1.022371  4.325190
H    -2.721206  1.267484  2.224492
H    -0.474820  -0.142724  3.544519
C    -1.679146  1.198558  4.725674
O    -0.825895  2.321783  4.471596
C    -1.291838  0.636251  6.082990
H    -2.736800  1.522856  4.759441
H    -0.903657  2.539571  3.527388
H    -0.263600  0.249654  6.062666
H    -1.976173  -0.166044  6.381602
H    -1.341018  1.432824  6.835098
N    -1.878566  -2.212071  3.267200
C    -2.599833  -3.469128  3.206962
H    -1.036458  -2.094956  2.706818
H    -3.466705  -3.392873  3.871467
H    -1.959670  -4.296340  3.539395
H    -2.955637  -3.684507  2.188226
