26
Energy: -16612.1099675 eV PBE+vdW (tier 2 basis)
C    -0.500269  1.213690  -0.159259
C    -0.054168  0.663345  1.184926
O    1.109505  0.754911  1.566625
H    0.338131  1.772633  -0.582933
H    -1.368311  1.882840  -0.073596
H    -0.765713  0.395010  -0.840709
N    -1.001976  0.064992  1.976566
C    -2.399684  -0.197206  1.697175
C    -3.171162  0.067131  3.000137
O    -2.835858  -0.503626  4.037405
H    -0.655116  -0.287688  2.866833
H    -2.728639  0.473049  0.893212
C    -2.649783  -1.665977  1.236103
O    -1.884678  -1.954509  0.063692
C    -4.128439  -1.977635  1.034824
H    -2.235562  -2.318791  2.018476
H    -2.403128  -1.677298  -0.708815
H    -4.251126  -3.019559  0.714410
H    -4.569172  -1.328453  0.260469
H    -4.702959  -1.837716  1.959568
N    -4.227384  0.929179  2.963513
C    -4.704449  1.725258  1.843560
H    -4.676155  1.054216  3.865914
H    -3.923004  2.386639  1.442322
H    -5.523104  2.359660  2.198845
H    -5.098113  1.102807  1.027260
