26
Energy: -16612.3610872 eV PBE+vdW (tier 2 basis)
C    -1.905205  1.166906  -1.437936
C    -0.660077  0.613011  -0.774331
O    0.430922  0.588071  -1.333510
H    -1.639316  1.490224  -2.447266
H    -2.316815  2.018174  -0.878806
H    -2.700427  0.410172  -1.497450
N    -0.790474  0.148348  0.524493
C    -2.036534  -0.142355  1.217468
C    -2.786401  1.117493  1.704643
O    -4.004559  1.108776  1.872511
H    0.006910  -0.410369  0.829079
H    -2.748875  -0.679147  0.567776
C    -1.714988  -1.049317  2.448772
O    -0.727841  -2.032584  2.110985
C    -2.961575  -1.682348  3.046814
H    -1.212242  -0.421433  3.201461
H    -1.166055  -2.742541  1.612634
H    -2.698205  -2.243680  3.951350
H    -3.423881  -2.375908  2.327344
H    -3.714286  -0.925152  3.296251
N    -1.981421  2.180624  1.968091
C    -2.485069  3.452026  2.446589
H    -1.002588  2.081288  1.715034
H    -2.323785  4.250121  1.707802
H    -1.998152  3.739691  3.388318
H    -3.560913  3.340546  2.619277
