26
Energy: -16612.5116054 eV PBE+vdW (tier 2 basis)
C    0.419628  -0.703924  0.395908
C    0.088486  -0.579695  1.870942
O    0.917853  -0.772521  2.750982
H    0.960287  -1.642814  0.230677
H    1.096241  0.115709  0.120038
H    -0.458942  -0.670639  -0.260752
N    -1.223287  -0.246220  2.150682
C    -1.655923  0.128881  3.486987
C    -2.642402  -0.863390  4.127317
O    -3.263654  -0.561012  5.155413
H    -1.817265  0.019364  1.372210
H    -0.749513  0.103443  4.112868
C    -2.212206  1.581501  3.531016
O    -2.384504  2.000386  4.874407
C    -3.495347  1.766854  2.711985
H    -1.422614  2.223494  3.107554
H    -2.856215  1.257322  5.316023
H    -4.303050  1.122574  3.085492
H    -3.348591  1.557627  1.640262
H    -3.825373  2.809001  2.797544
N    -2.763324  -2.062532  3.512024
C    -3.574481  -3.143795  4.036652
H    -2.177726  -2.215037  2.697905
H    -2.949664  -3.987616  4.361350
H    -4.288928  -3.499260  3.282204
H    -4.126486  -2.758698  4.900312
