26
Energy: -16611.8968773 eV PBE+vdW (tier 2 basis)
C    0.120389  0.303985  0.105299
C    0.098638  0.065282  1.601064
O    1.139052  -0.074995  2.239578
H    1.110487  0.017367  -0.259912
H    -0.008662  1.376739  -0.107776
H    -0.640065  -0.291071  -0.414143
N    -1.104339  0.060317  2.280750
C    -2.502026  0.072073  1.872908
C    -2.902552  -1.211333  1.100916
O    -2.078859  -1.877751  0.482938
H    -0.942070  -0.121681  3.266229
H    -3.051716  0.071579  2.826142
C    -3.007560  1.357778  1.130318
O    -2.948347  1.265175  -0.291947
C    -2.365237  2.633802  1.667816
H    -4.087419  1.413875  1.330405
H    -2.017814  1.199643  -0.561391
H    -2.826213  3.502511  1.182477
H    -1.284650  2.661364  1.480793
H    -2.510095  2.722949  2.753544
N    -4.215286  -1.590723  1.149813
C    -5.355293  -0.929977  1.758765
H    -4.403873  -2.392680  0.555364
H    -5.780083  -0.137986  1.122130
H    -5.089556  -0.493642  2.729967
H    -6.137017  -1.675708  1.944515
