26
Energy: -16612.3341903 eV PBE+vdW (tier 2 basis)
C    0.356306  0.113651  1.164483
C    -0.042575  1.102610  2.242151
O    0.774412  1.801330  2.836115
H    -0.145366  0.333416  0.212655
H    0.093053  -0.915564  1.449695
H    1.439806  0.177082  1.036862
N    -1.380468  1.186173  2.558999
C    -2.505013  0.537883  1.904200
C    -3.025109  1.386844  0.712734
O    -2.621764  1.154260  -0.426954
H    -1.600997  1.904341  3.244637
H    -2.150549  -0.386710  1.433364
C    -3.568358  0.134803  2.942822
O    -3.929711  1.338989  3.660926
C    -3.072888  -0.945149  3.895205
H    -4.450287  -0.233189  2.387589
H    -4.490222  1.090776  4.411331
H    -3.840827  -1.184604  4.645211
H    -2.163214  -0.620028  4.415432
H    -2.852006  -1.871349  3.347561
N    -3.882348  2.392341  1.030415
C    -4.384547  3.332039  0.046897
H    -4.161280  2.477723  2.005425
H    -3.962237  3.057222  -0.925258
H    -4.080659  4.359813  0.290853
H    -5.481150  3.293295  -0.016348
