26
Energy: -16612.3661251 eV PBE+vdW (tier 2 basis)
C    -0.011264  0.954644  -0.044709
C    -0.403922  1.250498  1.390961
O    -0.095702  2.300342  1.954074
H    -0.365047  -0.018266  -0.407016
H    1.082358  0.991746  -0.123992
H    -0.412621  1.745439  -0.690469
N    -1.131850  0.272412  2.008090
C    -1.497008  0.343552  3.407438
C    -1.504029  -1.104859  3.925751
O    -1.773208  -2.032977  3.154405
H    -1.288854  -0.634955  1.574536
H    -0.750418  0.963584  3.923505
C    -2.864566  1.065257  3.576542
O    -3.005058  1.354646  4.976856
C    -4.058399  0.289449  3.036929
H    -2.751400  2.010195  3.016388
H    -3.883109  1.741040  5.113397
H    -3.915148  0.034904  1.978780
H    -4.969485  0.901598  3.107135
H    -4.217106  -0.641270  3.596565
N    -1.222063  -1.328787  5.233778
C    -0.712473  -0.392163  6.227802
H    -1.223024  -2.316861  5.469901
H    -0.838192  -0.842467  7.218670
H    -1.283558  0.540487  6.207277
H    0.357145  -0.175187  6.081406
