26
Energy: -16612.1492847 eV PBE+vdW (tier 2 basis)
C    -0.093849  -0.344588  -0.051748
C    -0.197540  -0.409050  1.461796
O    0.616805  -1.017272  2.152028
H    0.021456  -1.362532  -0.442555
H    0.814629  0.211573  -0.316784
H    -0.955637  0.132389  -0.534470
N    -1.278154  0.233810  2.001673
C    -1.416590  0.452068  3.434408
C    -1.260580  -0.794195  4.334085
O    -0.663474  -0.678053  5.401295
H    -1.821955  0.864379  1.419893
H    -0.621014  1.125526  3.791601
C    -2.778668  1.128378  3.698484
O    -2.863604  2.207388  2.743378
C    -2.922005  1.631986  5.126718
H    -3.580714  0.397443  3.481168
H    -3.673570  2.706223  2.929264
H    -3.908835  2.095973  5.268214
H    -2.147474  2.376224  5.351672
H    -2.826145  0.812347  5.849268
N    -1.893968  -1.964353  4.012521
C    -2.525237  -2.392599  2.774802
H    -1.660602  -2.695235  4.678542
H    -3.175766  -1.612693  2.366623
H    -3.150374  -3.266280  2.995043
H    -1.792465  -2.673752  2.002682
