26
Energy: -16612.1960875 eV PBE+vdW (tier 2 basis)
C    0.018482  0.234221  0.639700
C    -0.333226  -0.389180  1.972474
O    0.517336  -0.655574  2.814696
H    1.056117  -0.023013  0.407860
H    -0.053527  1.326195  0.736110
H    -0.633182  -0.080023  -0.184135
N    -1.663842  -0.687717  2.229294
C    -2.858733  -0.276683  1.501034
C    -3.064239  -1.049185  0.170927
O    -3.759816  -0.593891  -0.735386
H    -1.792573  -0.965654  3.197722
H    -3.698858  -0.597506  2.139379
C    -3.024654  1.270938  1.276999
O    -2.259833  2.023907  2.218118
C    -4.493243  1.676006  1.289758
H    -2.593177  1.524099  0.299694
H    -2.716106  2.003470  3.074644
H    -4.588903  2.752079  1.098278
H    -4.947649  1.456946  2.270323
H    -5.050281  1.128615  0.520208
N    -2.455145  -2.263005  0.124275
C    -2.537517  -3.139870  -1.026339
H    -1.858426  -2.504707  0.908772
H    -2.925850  -4.127136  -0.741393
H    -1.554411  -3.270216  -1.500946
H    -3.221584  -2.680474  -1.747848
