26
Energy: -16611.8422239 eV PBE+vdW (tier 2 basis)
C    -0.169054  -1.079686  0.081397
C    -1.394601  -1.511820  0.858414
O    -1.428925  -2.568418  1.481642
H    -0.324355  -1.283681  -0.987088
H    0.063864  -0.015116  0.196749
H    0.674065  -1.681097  0.432070
N    -2.508526  -0.689209  0.866614
C    -2.807094  0.542397  0.136376
C    -2.328012  0.468695  -1.342741
O    -2.788803  -0.441266  -2.030980
H    -3.297219  -1.156554  1.303619
H    -3.895732  0.520675  -0.028361
C    -2.550762  1.792501  1.023565
O    -1.252547  1.776994  1.623668
C    -3.637257  1.944341  2.089282
H    -2.564477  2.687947  0.386025
H    -1.209569  0.972080  2.169381
H    -3.420438  2.816851  2.717082
H    -3.681472  1.059751  2.741472
H    -4.627565  2.083755  1.633683
N    -1.513590  1.406775  -1.909264
C    -0.658252  2.446940  -1.354195
H    -1.416885  1.227654  -2.905378
H    0.276251  2.473561  -1.928472
H    -0.406699  2.240519  -0.309854
H    -1.124378  3.442615  -1.418120
