26
Energy: -16612.5553633 eV PBE+vdW (tier 2 basis)
C    -0.094083  -1.108381  -0.106722
C    -0.789041  -0.952684  1.228819
O    -1.787307  -1.621561  1.525923
H    0.745456  -0.417770  -0.251535
H    -0.826941  -0.960078  -0.908979
H    0.276506  -2.138147  -0.188633
N    -0.250662  -0.034841  2.077727
C    -0.696224  0.175331  3.453322
C    -1.966650  1.065161  3.560983
O    -2.012937  2.077344  4.274721
H    0.511680  0.543337  1.744311
H    -0.981764  -0.811682  3.850399
C    0.471187  0.704657  4.325130
O    0.022375  0.870896  5.662569
C    1.144771  1.976059  3.791565
H    1.223182  -0.099822  4.363713
H    -0.714270  1.516456  5.595951
H    1.907907  2.291473  4.513393
H    0.421842  2.792123  3.670451
H    1.663338  1.817083  2.832680
N    -3.014975  0.614140  2.842123
C    -4.302184  1.284551  2.850007
H    -2.894116  -0.277789  2.349695
H    -4.880937  0.954726  1.980776
H    -4.158977  2.370429  2.800934
H    -4.872930  1.060807  3.763970
