26
Energy: -16612.4167906 eV PBE+vdW (tier 2 basis)
C    0.010630  0.180211  -0.169830
C    -0.284858  0.185404  1.319148
O    -0.086963  1.164623  2.029277
H    -0.688996  0.864045  -0.668461
H    -0.071901  -0.810997  -0.632211
H    1.020895  0.573290  -0.332727
N    -0.772000  -1.002502  1.823682
C    -1.352884  -1.067672  3.157822
C    -0.309565  -1.069177  4.296346
O    -0.635231  -0.784914  5.447009
H    -1.174277  -1.665267  1.163429
H    -1.976696  -0.176977  3.339547
C    -2.224953  -2.356829  3.249119
O    -2.927196  -2.582141  2.012132
C    -3.175285  -2.337853  4.434502
H    -1.543852  -3.219394  3.324019
H    -3.713835  -2.011628  2.011867
H    -3.705692  -3.295146  4.508253
H    -3.917254  -1.532352  4.317540
H    -2.633891  -2.145090  5.368157
N    0.935143  -1.472521  3.930935
C    2.054083  -1.475001  4.851199
H    1.101610  -1.578543  2.935838
H    2.612976  -2.417514  4.781032
H    1.653392  -1.367627  5.864751
H    2.739600  -0.637430  4.654623
