26
Energy: -16611.8624268 eV PBE+vdW (tier 2 basis)
C    0.372408  1.010726  0.380425
C    -0.342225  0.961141  1.720685
O    -0.395608  1.929590  2.469589
H    1.448811  1.123815  0.564172
H    0.038545  1.901936  -0.163312
H    0.213844  0.124430  -0.246769
N    -0.927163  -0.245081  2.017851
C    -1.561227  -0.597844  3.287136
C    -2.287117  0.588445  3.977103
O    -2.027276  0.951096  5.114916
H    -0.799267  -0.998214  1.352008
H    -2.364445  -1.314169  3.031238
C    -0.572056  -1.384148  4.198629
O    -1.259915  -2.042403  5.264808
C    0.555664  -0.566330  4.807904
H    -0.122865  -2.145536  3.527284
H    -1.849974  -2.712947  4.887182
H    1.089198  0.001477  4.035945
H    1.267293  -1.242782  5.297614
H    0.156314  0.139655  5.541228
N    -3.353131  1.124460  3.295180
C    -3.747205  0.940033  1.911983
H    -3.735383  1.930309  3.781187
H    -3.124783  1.514361  1.206722
H    -4.788329  1.265222  1.798241
H    -3.704364  -0.118645  1.627039
