26
Energy: -16612.6179358 eV PBE+vdW (tier 2 basis)
C    -2.209190  2.159097  1.730277
C    -1.444410  0.884585  2.016783
O    -0.483237  0.555122  1.305828
H    -3.143456  2.250858  2.296233
H    -2.426450  2.208945  0.657479
H    -1.563626  3.012785  1.976344
N    -1.900321  0.153394  3.069079
C    -1.212277  -0.966758  3.736475
C    -0.207843  -0.375557  4.766813
O    -0.648807  0.272982  5.718481
H    -2.605975  0.601424  3.643187
H    -1.986124  -1.426371  4.368330
C    -0.705283  -2.099995  2.809059
O    0.491469  -1.778122  2.096700
C    -1.796386  -2.613775  1.869845
H    -0.420597  -2.915808  3.493591
H    0.282887  -0.924215  1.625733
H    -1.416045  -3.477652  1.311820
H    -2.093633  -1.844862  1.145410
H    -2.691085  -2.926295  2.427082
N    1.098511  -0.624381  4.529122
C    2.156053  -0.117177  5.380468
H    1.311397  -1.086097  3.636319
H    2.851502  -0.922337  5.652317
H    1.700859  0.291263  6.288818
H    2.723067  0.681949  4.880406
