26
Energy: -16612.2265117 eV PBE+vdW (tier 2 basis)
C    0.506108  1.050117  0.730430
C    0.145461  -0.138437  1.601455
O    0.987413  -0.791110  2.205090
H    1.492103  0.882524  0.286297
H    0.567998  1.938065  1.375406
H    -0.225571  1.248691  -0.063368
N    -1.204645  -0.421934  1.649782
C    -1.818634  -1.234279  2.689166
C    -1.420447  -0.712536  4.105293
O    -1.028121  0.439775  4.259746
H    -1.806307  0.285749  1.246180
H    -2.898945  -1.025297  2.622182
C    -1.727145  -2.755994  2.392852
O    -2.760270  -3.361688  3.216290
C    -0.389559  -3.451543  2.600069
H    -2.021894  -2.857027  1.333360
H    -2.678483  -4.323062  3.117448
H    -0.499350  -4.524892  2.378122
H    -0.025954  -3.337632  3.628386
H    0.375064  -3.037389  1.935807
N    -1.625919  -1.592549  5.118917
C    -1.415086  -1.235588  6.507749
H    -2.071883  -2.476716  4.879486
H    -0.876138  -2.036301  7.031007
H    -2.364962  -1.047839  7.031782
H    -0.816189  -0.319560  6.536614
