26
Energy: -16612.4582749 eV PBE+vdW (tier 2 basis)
C    0.169199  0.586204  0.981057
C    -0.103871  -0.371869  2.123945
O    0.790560  -0.864592  2.803370
H    -0.091831  0.130799  0.014999
H    1.237545  0.816036  0.982635
H    -0.406307  1.517447  1.073605
N    -1.427063  -0.663400  2.395918
C    -2.605784  -0.266482  1.645730
C    -3.349281  0.955399  2.221651
O    -4.400042  1.347327  1.695448
H    -1.538612  -1.365269  3.124049
H    -2.304212  0.018586  0.628596
C    -3.602135  -1.452372  1.467522
O    -4.582032  -1.117522  0.498381
C    -4.238657  -1.913159  2.782511
H    -3.016777  -2.282685  1.040386
H    -4.879067  -0.206859  0.725262
H    -3.495318  -2.268690  3.512706
H    -4.919725  -2.746785  2.575022
H    -4.821691  -1.105569  3.246316
N    -2.788806  1.537167  3.305367
C    -3.359887  2.691859  3.971523
H    -1.934066  1.115922  3.655698
H    -2.652381  3.531838  3.976746
H    -3.635213  2.453493  5.007971
H    -4.260547  2.984175  3.421587
