26
Energy: -16612.1844002 eV PBE+vdW (tier 2 basis)
C    -0.227962  -0.378200  -0.186087
C    -0.224097  0.556756  1.007858
O    0.376090  1.625380  0.985360
H    0.614371  -1.079216  -0.098159
H    -0.071784  0.227403  -1.083292
H    -1.140808  -0.973686  -0.295482
N    -0.849261  0.145804  2.176845
C    -1.869275  -0.890857  2.342943
C    -1.330864  -2.299097  1.983006
O    -2.011191  -3.150227  1.414607
H    -0.906040  0.914958  2.839534
H    -2.065840  -0.920680  3.428229
C    -3.224715  -0.560890  1.673793
O    -3.431426  0.835605  1.946454
C    -4.371944  -1.404046  2.217806
H    -3.139060  -0.719984  0.583896
H    -4.331130  1.058099  1.663076
H    -5.320037  -1.097396  1.751503
H    -4.467123  -1.267046  3.304560
H    -4.212444  -2.465308  1.998496
N    -0.053716  -2.509496  2.402493
C    0.659189  -3.746117  2.153779
H    0.446680  -1.703017  2.762552
H    1.126861  -4.117151  3.075110
H    1.439260  -3.617499  1.388349
H    -0.065214  -4.484522  1.794621
