26
Energy: -16612.1066095 eV PBE+vdW (tier 2 basis)
C    0.095865  -0.183308  0.814246
C    0.093177  -0.618375  2.268432
O    0.798488  -1.538756  2.670819
H    0.927549  -0.690468  0.318208
H    0.210678  0.901941  0.689638
H    -0.843230  -0.482912  0.330972
N    -0.720936  0.063678  3.143818
C    -1.716580  1.089144  2.868685
C    -1.600440  2.122699  4.006953
O    -2.250322  2.006003  5.045303
H    -0.721923  -0.331985  4.081952
H    -1.465789  1.554936  1.905803
C    -3.158072  0.527615  2.767240
O    -3.200983  -0.531014  1.801815
C    -4.177355  1.615841  2.454542
H    -3.401695  0.058617  3.730940
H    -3.404839  -0.137841  0.938419
H    -5.179883  1.177983  2.370160
H    -3.938782  2.118134  1.502294
H    -4.204114  2.376142  3.244359
N    -0.715931  3.147066  3.825763
C    0.250673  3.307440  2.750728
H    -0.613851  3.734936  4.647761
H    -0.240227  3.408370  1.772465
H    0.965940  2.472826  2.705115
H    0.813206  4.229763  2.928579
