26
Energy: -16612.1780277 eV PBE+vdW (tier 2 basis)
C    -0.072033  0.158079  -0.042029
C    0.073699  0.285531  1.460386
O    1.153029  0.552623  1.982346
H    0.282699  -0.838813  -0.340718
H    0.592194  0.895219  -0.504640
H    -1.089667  0.301888  -0.413756
N    -1.015907  0.006450  2.278096
C    -2.445806  -0.032016  1.979696
C    -2.852684  -1.085427  0.917652
O    -3.849679  -0.939591  0.217609
H    -0.764722  0.127962  3.256120
H    -2.920992  -0.410259  2.900831
C    -3.092143  1.358391  1.713795
O    -2.402197  2.096877  0.705093
C    -3.229113  2.171323  2.997128
H    -4.081310  1.147992  1.284421
H    -1.646602  2.542359  1.122217
H    -3.704658  3.135953  2.781244
H    -2.245885  2.371218  3.452865
H    -3.844993  1.647419  3.741269
N    -2.076751  -2.203480  0.912632
C    -2.300213  -3.308423  0.002155
H    -1.250845  -2.196879  1.500989
H    -2.318576  -4.262884  0.544461
H    -1.521939  -3.356441  -0.774216
H    -3.269462  -3.151053  -0.482563
