30
Energy: -38162.5913437 eV PBE+vdW (tier 2 basis)
C    -0.670721  1.385647  1.340220
C    0.002742  0.050689  1.218568
O    1.259568  0.016944  0.966160
H    -1.320229  1.446543  2.223395
H    -1.286056  1.596380  0.452405
H    0.095788  2.162927  1.407391
N    -0.610042  -1.148366  1.315219
C    -2.061131  -1.243847  1.390518
C    -2.376466  -1.956789  2.702169
O    -1.352687  -2.475275  3.322378
H    -0.573901  -2.135214  2.765682
H    -2.542507  -0.255621  1.432459
C    -2.697562  -2.008693  0.139937
C    -1.705173  -2.915329  -0.486798
N    -1.357386  -4.162641  -0.011314
C    -0.702197  -2.592560  -1.381942
C    -0.172468  -4.530493  -0.580182
N    0.270377  -3.581946  -1.404723
H    -2.987817  -1.249128  -0.595514
H    -3.616818  -2.532593  0.430974
H    -1.914710  -4.749687  0.604785
H    -0.649314  -1.721020  -2.032846
H    0.304667  -5.489354  -0.399223
N    -3.557582  -2.083600  3.248580
C    -4.838591  -1.544447  2.779493
H    -3.575612  -2.587398  4.139013
H    -4.683603  -0.790857  2.003036
H    -5.347225  -1.075384  3.629005
H    -5.470492  -2.352902  2.391074
Ca    1.422146  -1.951985  0.092079
