30
Energy: -38162.6191576 eV PBE+vdW (tier 2 basis)
C    -0.435516  -1.956798  2.044001
C    0.098182  -0.566596  2.080124
O    1.353551  -0.350486  2.004879
H    0.182237  -2.562968  2.722226
H    -0.314802  -2.398230  1.043355
H    -1.482449  -2.029724  2.351620
N    -0.733658  0.494194  2.200520
C    -1.920571  0.651152  1.362926
C    -1.420251  1.027456  -0.070816
O    -0.161941  1.004105  -0.335130
H    -0.251879  1.369392  2.415794
H    -2.416400  -0.328198  1.289560
C    -2.903810  1.661289  1.994795
C    -4.245812  1.661538  1.331400
N    -5.102462  2.743780  1.366415
C    -4.944525  0.690915  0.624788
C    -6.248209  2.386404  0.706132
N    -6.174816  1.157847  0.237124
H    -2.458174  2.669924  1.965589
H    -2.990413  1.386931  3.058753
H    -4.940907  3.629543  1.836390
H    -4.648219  -0.332214  0.402362
H    -7.091542  3.061445  0.597445
N    -2.311566  1.345223  -0.977214
C    -2.016179  1.709267  -2.364800
H    -3.296238  1.349084  -0.654452
H    -2.963752  1.785403  -2.904308
H    -1.394104  0.940017  -2.836165
H    -1.497689  2.675210  -2.408497
Ca    1.880246  0.634374  0.162920
