30
Energy: -38164.2320137 eV PBE+vdW (tier 2 basis)
C    -0.717501  -1.515254  -0.238650
C    -0.763366  -0.708876  1.022821
O    -1.649699  -0.942991  1.885698
H    -0.511573  -2.563196  0.021796
H    0.034872  -1.176316  -0.958190
H    -1.707801  -1.497115  -0.711936
N    0.176941  0.251236  1.166469
C    0.472023  1.204564  2.257414
C    0.706990  0.515962  3.619783
O    -0.170229  -0.180537  4.201002
H    0.826160  0.312175  0.386940
H    1.436579  1.635793  1.959460
C    -0.493281  2.442400  2.328749
C    -1.901651  2.121221  2.682212
N    -2.903253  1.876924  1.766061
C    -2.452432  1.767323  3.900031
C    -3.961849  1.322609  2.417717
N    -3.713305  1.215576  3.722402
H    -0.432892  2.956893  1.359822
H    -0.074020  3.135666  3.071641
H    -2.869658  2.087443  0.771667
H    -2.026570  1.911074  4.890635
H    -4.881484  1.029054  1.920948
N    1.892325  0.725253  4.181951
C    2.275522  0.190979  5.492231
H    2.586056  1.267756  3.675944
H    1.542908  0.487617  6.251290
H    3.255441  0.596139  5.756814
H    2.333502  -0.903739  5.455866
Ca    -2.269754  -0.817634  3.956411
