30
Energy: -38164.1334471 eV PBE+vdW (tier 2 basis)
C    1.265598  1.769493  2.795137
C    -0.214936  1.997676  2.823902
O    -0.700717  2.855754  3.605937
H    1.578055  0.941115  2.151003
H    1.619823  1.588391  3.818213
H    1.756127  2.690684  2.449762
N    -0.960425  1.245484  1.983090
C    -2.408071  1.182339  1.697059
C    -3.005880  2.530842  1.252314
O    -2.886804  3.583956  1.941358
H    -0.412015  0.604377  1.416792
H    -2.461277  0.514377  0.830010
C    -3.273820  0.459975  2.793425
C    -3.341871  1.170301  4.098596
N    -2.510865  0.919185  5.170132
C    -4.011037  2.330040  4.443478
C    -2.632546  1.939099  6.062346
N    -3.523097  2.835938  5.639944
H    -2.870588  -0.555062  2.910641
H    -4.286134  0.343316  2.380885
H    -1.913763  0.104266  5.286886
H    -4.836285  2.805373  3.917822
H    -2.078042  1.986163  6.994506
N    -3.700684  2.556995  0.118290
C    -3.954414  1.479484  -0.846575
H    -4.094119  3.472045  -0.102338
H    -3.019131  1.101922  -1.278657
H    -4.554602  1.895806  -1.660278
H    -4.523798  0.658235  -0.394663
Ca    -2.317684  4.249431  3.964980
