30
Energy: -38163.0215329 eV PBE+vdW (tier 2 basis)
C    1.779942  0.018553  1.383974
C    0.393478  -0.131313  1.911265
O    -0.443497  -0.874272  1.299569
H    2.443212  0.577383  2.051910
H    1.722480  0.550067  0.421671
H    2.209817  -0.969768  1.178713
N    0.060197  0.533529  3.021845
C    -1.274636  0.765336  3.620127
C    -1.891732  -0.502727  4.229279
O    -2.287606  -1.464137  3.491533
H    0.800809  1.114043  3.406828
H    -1.076379  1.461658  4.445921
C    -2.271958  1.470670  2.676847
C    -1.801060  2.838040  2.300373
N    -2.461344  3.628524  1.377289
C    -0.741074  3.619165  2.726947
C    -1.786583  4.817910  1.297569
N    -0.742029  4.835584  2.098972
H    -3.241557  1.510504  3.204140
H    -2.440459  0.852289  1.775997
H    -3.317540  3.402747  0.881697
H    0.021013  3.396851  3.470564
H    -2.102655  5.623188  0.641860
N    -2.041468  -0.530958  5.540960
C    -2.666180  -1.607185  6.312435
H    -1.699325  0.268966  6.069660
H    -1.903124  -2.132127  6.900837
H    -3.155307  -2.306764  5.631692
H    -3.406948  -1.173626  6.993786
Ca    -2.046488  -2.207134  1.515739
