30
Energy: -38163.0481068 eV PBE+vdW (tier 2 basis)
C    -0.714403  -1.629208  1.737476
C    -0.480466  -0.171683  1.930852
O    0.717866  0.254812  2.118270
H    -0.509193  -1.916590  0.696682
H    -1.735367  -1.932485  1.981799
H    -0.008468  -2.170473  2.379058
N    -1.466202  0.734417  1.977753
C    -2.729208  0.875551  1.211434
C    -3.219992  -0.418272  0.520008
O    -2.684523  -0.826592  -0.523693
H    -1.108048  1.649988  2.254593
H    -3.493658  1.233844  1.913549
C    -2.478683  2.006297  0.141297
C    -1.109660  1.896379  -0.446414
N    -0.724911  0.829108  -1.221687
C    0.057960  2.582420  -0.170722
C    0.613367  0.854188  -1.372977
N    1.141774  1.915194  -0.740403
H    -2.577502  2.984855  0.629000
H    -3.264724  1.950060  -0.623271
H    -1.392773  0.052351  -1.400630
H    0.171544  3.540714  0.331293
H    1.167891  0.124137  -1.955004
N    -4.266866  -1.015464  1.107164
C    -4.930139  -2.203941  0.571608
H    -4.661695  -0.594989  1.943236
H    -4.927082  -3.004516  1.320916
H    -4.393087  -2.531426  -0.321986
H    -5.967600  -1.965971  0.307236
Ca    2.282850  1.333298  1.169564
