30
Energy: -38164.232574 eV PBE+vdW (tier 2 basis)
C    -0.521799  2.141838  -0.936254
C    -1.192873  1.312797  0.115403
O    -0.591136  0.326929  0.616332
H    -1.159489  2.922236  -1.364121
H    0.368621  2.613390  -0.496670
H    -0.165347  1.482854  -1.738667
N    -2.442004  1.681441  0.476582
C    -3.390629  1.147446  1.477155
C    -2.800204  1.086340  2.903055
O    -1.790651  0.390880  3.202325
H    -2.787205  2.502502  -0.012872
H    -4.181921  1.907874  1.503293
C    -4.137115  -0.164856  1.041400
C    -3.267325  -1.361543  0.889864
N    -2.679026  -1.757866  -0.292999
C    -2.676424  -2.156980  1.854084
C    -1.723656  -2.685974  -0.012979
N    -1.674568  -2.937448  1.294607
H    -4.671049  0.060605  0.107987
H    -4.909965  -0.362322  1.797699
H    -2.923953  -1.428216  -1.223376
H    -2.939781  -2.234602  2.906669
H    -1.106813  -3.155739  -0.772923
N    -3.441522  1.789254  3.830175
C    -3.053991  1.813784  5.243740
H    -4.233993  2.360170  3.551470
H    -3.805438  2.381971  5.797649
H    -3.004649  0.793581  5.640703
H    -2.075315  2.294430  5.362937
Ca    -0.378779  -1.036775  2.284734
