30
Energy: -38162.2693308 eV PBE+vdW (tier 2 basis)
C    -0.505546  1.237254  1.168782
C    0.082546  -0.093686  1.576600
O    1.244560  -0.261914  1.883761
H    -1.241199  1.601422  1.902052
H    0.309605  1.963707  1.115713
H    -0.996036  1.184921  0.186187
N    -0.779481  -1.207879  1.586205
C    -2.210169  -1.198180  1.530151
C    -2.933094  -0.688674  2.799701
O    -4.078395  -0.110957  2.653442
H    -0.297569  -2.067446  1.840405
H    -2.530461  -0.475541  0.762073
C    -2.739112  -2.613498  1.090493
C    -4.179803  -2.548399  0.728204
N    -4.638697  -2.081402  -0.487081
C    -5.303923  -2.585166  1.530760
C    -5.963482  -1.798301  -0.383456
N    -6.404942  -2.072836  0.848687
H    -2.585230  -3.347384  1.892827
H    -2.120064  -2.927987  0.239011
H    -4.086770  -1.998814  -1.339513
H    -5.388897  -2.989659  2.537886
H    -6.568418  -1.436161  -1.209746
N    -2.425632  -0.787480  4.015170
C    -1.198049  -1.441077  4.504538
H    -2.985047  -0.324340  4.731446
H    -1.107834  -2.456753  4.108905
H    -0.305460  -0.858924  4.248944
H    -1.280965  -1.504826  5.593354
Ca    -6.145883  -0.157214  2.203032
