30
Energy: -38164.2335855 eV PBE+vdW (tier 2 basis)
C    -0.252865  1.863753  -0.971891
C    -1.027422  1.143105  0.088462
O    -0.551406  0.104626  0.617491
H    0.676531  2.247782  -0.527618
H    0.042221  1.147717  -1.749773
H    -0.794130  2.697063  -1.431656
N    -2.227337  1.664881  0.427007
C    -3.239740  1.270622  1.429914
C    -2.669794  1.174104  2.862262
O    -1.755835  0.367301  3.188135
H    -2.468694  2.509541  -0.084045
H    -3.935185  2.119988  1.431542
C    -4.133993  0.046805  1.015974
C    -3.412029  -1.247900  0.897871
N    -2.866342  -1.736934  -0.270630
C    -2.927962  -2.087404  1.884066
C    -2.030949  -2.766224  0.038001
N    -2.022386  -2.993716  1.350853
H    -4.631370  0.313131  0.073180
H    -4.929669  -0.040561  1.769332
H    -3.062620  -1.400290  -1.209991
H    -3.206878  -2.110337  2.935275
H    -1.468746  -3.322422  -0.705819
N    -3.223458  1.976072  3.765164
C    -2.841887  1.991783  5.180540
H    -3.938840  2.631791  3.465433
H    -2.927261  0.986094  5.607377
H    -1.809578  2.344714  5.293552
H    -3.515399  2.668911  5.711729
Ca    -0.517976  -1.238995  2.315261
