30
Energy: -38162.9337916 eV PBE+vdW (tier 2 basis)
C    -0.562682  -0.554940  1.031822
C    -0.620091  0.403501  2.170979
O    0.390322  0.502031  2.958221
H    -1.550677  -0.880984  0.697831
H    0.020709  -1.425612  1.353958
H    -0.044189  -0.103398  0.174169
N    -1.701703  1.142078  2.459564
C    -2.665028  1.857834  1.585769
C    -2.772108  1.295997  0.148034
O    -1.967374  1.652559  -0.728421
H    -1.590209  1.626097  3.352292
H    -3.643301  1.801891  2.078015
C    -2.225930  3.369034  1.554290
C    -0.741583  3.503968  1.471129
N    -0.024763  3.112503  0.366245
C    0.205487  3.755014  2.444954
C    1.286682  3.093143  0.674366
N    1.478423  3.477906  1.947063
H    -2.573233  3.855237  2.475302
H    -2.734740  3.866907  0.718458
H    -0.519569  2.707544  -0.451932
H    0.053820  4.185419  3.432646
H    2.068426  2.826832  -0.030578
N    -3.781415  0.448811  -0.107621
C    -4.823674  -0.043944  0.796166
H    -3.849061  0.181950  -1.089281
H    -4.399526  -0.394846  1.744265
H    -5.310906  -0.898476  0.317354
H    -5.590043  0.719239  0.988528
Ca    2.042117  1.772583  3.380515
