30
Energy: -38164.2324325 eV PBE+vdW (tier 2 basis)
C    -0.461934  2.112560  -0.874908
C    -1.140076  1.276134  0.166325
O    -0.546290  0.279667  0.655651
H    -1.094057  2.901457  -1.295379
H    0.430267  2.574037  -0.428246
H    -0.107624  1.460361  -1.683740
N    -2.386408  1.650261  0.531455
C    -3.339337  1.112155  1.525733
C    -2.749318  1.029832  2.950781
O    -1.745986  0.322073  3.242014
H    -2.725069  2.479554  0.051416
H    -4.124541  1.878506  1.560847
C    -4.096199  -0.188914  1.074610
C    -3.236035  -1.390636  0.908580
N    -2.650952  -1.777707  -0.278912
C    -2.651850  -2.202397  1.863254
C    -1.703300  -2.716969  -0.009942
N    -1.656455  -2.984410  1.294553
H    -4.628521  0.051894  0.144116
H    -4.870441  -0.389338  1.828698
H    -2.892680  -1.434781  -1.205316
H    -2.916069  -2.290309  2.914815
H    -1.090302  -3.182817  -0.775391
N    -3.384147  1.728197  3.885777
C    -2.996317  1.733738  5.299472
H    -4.171519  2.309226  3.613604
H    -2.953731  0.708668  5.684473
H    -2.014466  2.206528  5.424224
H    -3.744013  2.300400  5.860037
Ca    -0.345630  -1.105970  2.307399
