30
Energy: -38163.0482847 eV PBE+vdW (tier 2 basis)
C    -0.664330  -1.378707  2.137402
C    -0.525795  0.103649  2.133832
O    0.633438  0.628627  2.316909
H    -0.383759  -1.793243  1.158942
H    -1.678510  -1.710882  2.372214
H    0.033654  -1.779221  2.882616
N    -1.563023  0.941750  2.004324
C    -2.785772  0.893645  1.164706
C    -3.163362  -0.512427  0.641881
O    -2.547204  -1.027813  -0.305519
H    -1.274451  1.908058  2.166136
H    -3.608085  1.297288  1.770160
C    -2.538008  1.877233  -0.042584
C    -1.133789  1.773021  -0.541600
N    -0.646330  0.634118  -1.136151
C    -0.024160  2.564152  -0.311774
C    0.694858  0.723133  -1.225223
N    1.126005  1.894061  -0.727145
H    -2.718684  2.906150  0.294885
H    -3.274906  1.665239  -0.828490
H    -1.258493  -0.200950  -1.233614
H    0.006605  3.588889  0.051892
H    1.321736  -0.044618  -1.668849
N    -4.207567  -1.086625  1.256038
C    -4.773191  -2.376623  0.862021
H    -4.672691  -0.579356  2.003057
H    -4.163387  -2.794863  0.057412
H    -5.802185  -2.241338  0.507336
H    -4.777652  -3.060895  1.718781
Ca    2.186039  1.662549  1.300408
