30
Energy: -38163.3340658 eV PBE+vdW (tier 2 basis)
C    -0.591121  -1.323941  0.281367
C    -0.520806  -0.213974  1.273841
O    0.579935  0.400420  1.479965
H    -0.350179  -0.917289  -0.711990
H    -1.573680  -1.804839  0.240388
H    0.175530  -2.075509  0.510640
N    -1.627653  0.134077  1.932251
C    -1.794300  1.299267  2.817907
C    -1.136113  1.072503  4.200821
O    0.135669  1.193111  4.287807
H    -2.480456  -0.403557  1.761171
H    -1.213411  2.124445  2.377671
C    -3.269697  1.733835  2.823420
C    -4.255202  0.662308  3.197173
N    -5.616787  0.885126  3.147264
C    -4.144889  -0.666845  3.597160
C    -6.245001  -0.275470  3.511093
N    -5.380555  -1.228280  3.788609
H    -3.493806  2.113139  1.812765
H    -3.355629  2.608800  3.488485
H    -6.077352  1.753046  2.888757
H    -3.249471  -1.262733  3.760986
H    -7.326300  -0.361846  3.557135
N    -1.889073  0.801142  5.242295
C    -1.422134  0.595755  6.612833
H    -2.890857  0.655962  5.056076
H    -1.562299  -0.455479  6.895447
H    -2.013911  1.224396  7.288006
H    -0.366375  0.863657  6.687838
Ca    1.822920  1.168774  2.998821
