30
Energy: -38162.3627038 eV PBE+vdW (tier 2 basis)
C    -0.107152  0.364737  -0.016818
C    -0.112147  0.104504  1.448260
O    0.985330  -0.085365  2.080354
H    0.422353  -0.477945  -0.489287
H    0.475400  1.263701  -0.261896
H    -1.106482  0.433611  -0.454854
N    -1.268381  0.053784  2.143570
C    -2.318368  1.061796  2.032266
C    -1.714162  2.421429  2.467189
O    -0.576615  2.447525  3.061688
H    -1.196885  -0.384431  3.063462
H    -2.645704  1.133284  0.984102
C    -3.522645  0.657181  2.906515
C    -4.076683  -0.660693  2.474167
N    -4.954481  -1.398090  3.246379
C    -3.920852  -1.406176  1.315705
C    -5.285450  -2.517867  2.530872
N    -4.669123  -2.549580  1.366068
H    -4.278517  1.455298  2.843962
H    -3.203974  0.634317  3.964850
H    -5.330701  -1.143641  4.154169
H    -3.306790  -1.189596  0.445972
H    -5.974677  -3.266408  2.909141
N    -2.356470  3.549634  2.234640
C    -3.626432  3.772483  1.534719
H    -1.896281  4.384775  2.601051
H    -3.514577  4.650017  0.888547
H    -4.429592  3.965676  2.256969
H    -3.891830  2.913014  0.913514
Ca    1.322887  1.512469  3.469602
