30
Energy: -38162.9350857 eV PBE+vdW (tier 2 basis)
C    0.036600  -0.567604  0.062862
C    0.002167  -0.328389  1.534524
O    1.044548  -0.541795  2.237314
H    0.915145  -0.077834  -0.375076
H    -0.867947  -0.233983  -0.455673
H    0.156286  -1.649351  -0.102591
N    -1.140921  0.101326  2.079265
C    -1.555389  0.169105  3.497884
C    -0.829425  1.252926  4.300891
O    0.434141  1.203440  4.483115
H    -1.907007  0.203038  1.418675
H    -2.612809  0.450893  3.447046
C    -1.492537  -1.185923  4.238560
C    -2.423538  -2.180901  3.624492
N    -2.418724  -3.522349  3.960045
C    -3.443510  -2.060884  2.697170
C    -3.413673  -4.129353  3.239823
N    -4.043194  -3.270094  2.465978
H    -1.748181  -0.990974  5.295614
H    -0.454949  -1.563825  4.241471
H    -1.828191  -3.977210  4.648528
H    -3.807824  -1.170629  2.188893
H    -3.626355  -5.190657  3.321842
N    -1.530151  2.219958  4.865247
C    -2.979632  2.466339  4.812060
H    -0.977608  2.865531  5.431385
H    -3.317408  2.612009  3.779415
H    -3.180224  3.386126  5.367946
H    -3.537615  1.649347  5.285151
Ca    2.183108  0.196637  3.836395
