30
Energy: -38163.1463977 eV PBE+vdW (tier 2 basis)
C    -0.662276  -0.434678  -0.463912
C    -0.646351  -0.580261  1.018141
O    0.132391  -1.424148  1.577850
H    -0.778705  -1.418020  -0.936558
H    0.316274  -0.040939  -0.779504
H    -1.444622  0.241404  -0.823117
N    -1.439375  0.203035  1.753634
C    -1.375060  0.382018  3.216357
C    -2.024676  -0.813565  3.945764
O    -1.355947  -1.894625  4.061319
H    -1.952943  0.926302  1.251068
H    -0.312292  0.349265  3.508107
C    -1.927181  1.766355  3.587919
C    -1.141830  2.855863  2.924806
N    -1.572101  4.168299  2.869883
C    0.093650  2.870013  2.299029
C    -0.598844  4.892379  2.235524
N    0.414840  4.131194  1.875167
H    -1.892949  1.860183  4.686492
H    -2.992602  1.839453  3.295373
H    -2.430979  4.545868  3.257764
H    0.781818  2.044814  2.134039
H    -0.687561  5.960659  2.064616
N    -3.239774  -0.694178  4.439780
C    -3.979848  -1.728858  5.165508
H    -3.706276  0.202017  4.314675
H    -4.816032  -2.086102  4.551329
H    -4.374920  -1.300395  6.093428
H    -3.310083  -2.558945  5.398533
Ca    0.332250  -2.816408  3.136984
