30
Energy: -38163.1966076 eV PBE+vdW (tier 2 basis)
C    -2.221326  2.413434  0.945343
C    -1.479322  1.124942  1.062462
O    -0.204983  1.110136  0.884032
H    -1.771337  3.126562  1.651380
H    -2.093886  2.839986  -0.058676
H    -3.288130  2.329128  1.168067
N    -2.099908  -0.007658  1.373180
C    -3.491166  -0.386227  1.080400
C    -3.645095  -1.809862  1.662272
O    -2.718308  -2.615584  1.464690
H    -1.512509  -0.842084  1.498652
H    -4.191881  0.323382  1.535617
C    -3.724511  -0.440212  -0.486533
C    -2.449600  -0.751322  -1.200163
N    -1.766348  -1.940444  -1.059155
C    -1.561291  0.092577  -1.834096
C    -0.516018  -1.791426  -1.539647
N    -0.340768  -0.549419  -2.021302
H    -4.517530  -1.168383  -0.703466
H    -4.084860  0.535862  -0.833457
H    -2.099887  -2.717934  -0.476520
H    -1.739550  1.103805  -2.189741
H    0.218747  -2.590832  -1.558910
N    -4.789759  -2.085522  2.291389
C    -5.122869  -3.403341  2.833974
H    -5.459818  -1.335502  2.434288
H    -4.302375  -4.089752  2.610786
H    -6.049102  -3.772356  2.378006
H    -5.257023  -3.336373  3.920070
Ca    1.098412  0.734417  -0.738940
