30
Energy: -38163.1529532 eV PBE+vdW (tier 2 basis)
C    -0.990501  -0.466281  -0.115849
C    -0.616356  -0.202793  1.302093
O    0.573120  -0.425855  1.702669
H    -0.201505  -0.111032  -0.788568
H    -1.950409  -0.023192  -0.401201
H    -1.064365  -1.558427  -0.242210
N    -1.554057  0.273595  2.132133
C    -1.564174  0.298056  3.606128
C    -0.641887  1.365263  4.204356
O    0.624519  1.285634  4.075880
H    -2.468607  0.397084  1.705898
H    -2.597594  0.570465  3.855542
C    -1.287640  -1.107852  4.260364
C    -1.957494  -2.228395  3.555939
N    -3.293683  -2.567479  3.694230
C    -1.487859  -3.069598  2.562118
C    -3.548150  -3.585387  2.813417
N    -2.476735  -3.899626  2.110669
H    -1.588754  -1.029912  5.316082
H    -0.207382  -1.307848  4.269260
H    -3.938778  -2.230170  4.401948
H    -0.474802  -3.139249  2.174133
H    -4.521755  -4.059947  2.738283
N    -1.199462  2.325063  4.922724
C    -0.482711  3.378027  5.645384
H    -2.215595  2.350593  4.966861
H    -0.951937  3.517297  6.625141
H    -0.535667  4.320448  5.085233
H    0.561476  3.085061  5.774838
Ca    2.105744  0.240455  2.965508
