30
Energy: -38162.8256387 eV PBE+vdW (tier 2 basis)
C    -3.062099  0.053587  -0.002193
C    -2.205978  -0.538855  1.074808
O    -1.263111  -1.308791  0.845227
H    -2.447696  0.760607  -0.578030
H    -3.945262  0.581922  0.373441
H    -3.369919  -0.738601  -0.694415
N    -2.504339  -0.194573  2.374958
C    -1.590540  -0.450289  3.484756
C    -1.602034  -1.931276  3.961013
O    -1.671169  -2.246181  5.211386
H    -3.317592  0.388378  2.545796
H    -0.567903  -0.286835  3.097079
C    -1.893318  0.591191  4.582114
C    -1.040176  0.520438  5.805965
N    -1.535770  0.811505  7.065042
C    0.266830  0.106383  6.039373
C    -0.551177  0.568222  7.994725
N    0.544432  0.103401  7.400165
H    -2.949044  0.505559  4.883564
H    -1.778348  1.585692  4.122513
H    -2.442295  1.237243  7.259642
H    1.024489  -0.173776  5.311290
H    -0.669025  0.769830  9.056822
N    -1.473962  -2.827370  3.017813
C    -1.454760  -4.273519  3.205665
H    -1.322657  -2.416974  2.052252
H    -1.956950  -4.545344  4.138242
H    -0.419449  -4.640996  3.217542
H    -1.974338  -4.740730  2.362688
Ca    -0.765840  -2.010848  7.081756
