30
Energy: -38163.0089624 eV PBE+vdW (tier 2 basis)
C    -0.169225  -0.832593  -0.053565
C    -0.294200  -0.473465  1.386027
O    0.687161  0.059415  2.012923
H    0.636786  -1.569691  -0.176798
H    0.128734  0.060574  -0.620146
H    -1.095630  -1.237181  -0.473419
N    -1.444295  -0.710530  2.018096
C    -1.747491  -0.239867  3.371075
C    -0.850032  -0.937385  4.406147
O    0.129525  -0.264400  4.891026
H    -2.283789  -0.954194  1.461339
H    -1.454684  0.819867  3.429795
C    -3.295494  -0.312571  3.645403
C    -4.094532  -0.049827  2.418300
N    -4.473717  1.199655  1.964348
C    -4.492883  -0.921029  1.411212
C    -5.091570  1.024933  0.753147
N    -5.103665  -0.241589  0.389635
H    -3.517150  0.399693  4.450864
H    -3.571580  -1.300361  4.026058
H    -4.424434  2.072155  2.481249
H    -4.430062  -2.007846  1.407191
H    -5.519300  1.851614  0.193947
N    -1.027750  -2.186080  4.803705
C    -1.970892  -3.213782  4.348697
H    -0.375071  -2.478718  5.532840
H    -2.292294  -3.025678  3.321693
H    -2.840851  -3.268186  5.015296
H    -1.453341  -4.178808  4.375090
Ca    1.688976  0.660686  3.769028
