30
Energy: -38162.1725048 eV PBE+vdW (tier 2 basis)
C    0.204322  1.635677  0.553103
C    0.001539  1.034257  1.900474
O    0.955885  1.079289  2.749664
H    0.713566  2.597692  0.712508
H    -0.720960  1.806222  0.002310
H    0.891813  1.026800  -0.052613
N    -1.178265  0.497566  2.311934
C    -1.919230  -0.617226  1.685797
C    -1.205233  -1.909472  2.147203
O    0.059215  -1.866467  2.404721
H    -1.208351  0.435148  3.331900
H    -2.929691  -0.593017  2.112681
C    -2.074035  -0.527781  0.133038
C    -3.064974  -1.488850  -0.423412
N    -2.730059  -2.662430  -1.081923
C    -4.446650  -1.497718  -0.370021
C    -3.903066  -3.296825  -1.399979
N    -4.950722  -2.623295  -0.964343
H    -1.096977  -0.644926  -0.355252
H    -2.423682  0.493223  -0.073258
H    -1.809950  -2.928227  -1.417782
H    -5.102760  -0.745578  0.060777
H    -3.930240  -4.226123  -1.961049
N    -1.848638  -3.050444  2.295796
C    -3.273537  -3.383974  2.187467
H    -1.242608  -3.828973  2.562246
H    -3.457105  -3.962123  1.273247
H    -3.889408  -2.483947  2.155888
H    -3.545543  -3.991117  3.058224
Ca    1.740293  -0.857301  3.248797
