30
Energy: -38163.2894952 eV PBE+vdW (tier 2 basis)
C    -3.693666  -0.407716  1.062816
C    -2.746291  -0.666423  2.192747
O    -3.132813  -0.934469  3.344221
H    -3.204542  -0.294275  0.089580
H    -4.264008  0.505212  1.284747
H    -4.421675  -1.227678  1.014355
N    -1.405838  -0.628485  1.911753
C    -0.363735  -0.788998  2.922077
C    -0.485814  -2.153450  3.640207
O    -0.225683  -2.283128  4.879748
H    -1.116657  -0.328608  0.984966
H    0.571218  -0.871280  2.345976
C    -0.146560  0.454926  3.847363
C    -0.775288  0.501085  5.202702
N    -2.075151  0.145983  5.479570
C    -0.231141  0.867674  6.435808
C    -2.282205  0.292670  6.826073
N    -1.170890  0.707469  7.442914
H    -0.471933  1.332693  3.268896
H    0.932594  0.587789  3.995863
H    -2.708130  -0.237137  4.723250
H    0.759081  1.268685  6.642676
H    -3.243098  0.115416  7.303861
N    -0.782646  -3.199685  2.894025
C    -0.882454  -4.577028  3.377777
H    -1.003461  -3.021692  1.916653
H    -0.074599  -4.783251  4.086652
H    -0.789691  -5.251947  2.522440
H    -1.853762  -4.746357  3.861148
Ca    -0.453162  -1.615995  6.894137
