30
Energy: -38163.0224419 eV PBE+vdW (tier 2 basis)
C    0.253984  0.051319  0.143948
C    0.109146  -0.100691  1.619968
O    1.122326  -0.408450  2.330818
H    1.106722  0.703561  -0.082060
H    0.485634  -0.938371  -0.278856
H    -0.645591  0.437682  -0.345799
N    -1.098163  0.084561  2.162803
C    -1.579854  -0.231750  3.527184
C    -0.986817  0.689998  4.603584
O    0.245284  0.622522  4.924024
H    -1.834101  0.301863  1.495836
H    -2.658193  -0.028996  3.480128
C    -1.425662  -1.716080  3.920418
C    -2.235040  -2.608854  3.036756
N    -2.191253  -3.988336  3.127133
C    -3.158899  -2.358599  2.036931
C    -3.070570  -4.488715  2.203764
N    -3.664071  -3.525545  1.530147
H    -1.739956  -1.803896  4.975513
H    -0.358236  -2.003475  3.895990
H    -1.651114  -4.540128  3.785495
H    -3.518378  -1.405359  1.655996
H    -3.230888  -5.554061  2.070716
N    -1.815954  1.515868  5.215320
C    -1.471639  2.425849  6.309466
H    -2.786232  1.520598  4.907118
H    -1.515864  3.463563  5.955581
H    -0.465707  2.199404  6.668483
H    -2.193974  2.294758  7.123110
Ca    2.084058  -0.131236  4.172484
