30
Energy: -38163.1466301 eV PBE+vdW (tier 2 basis)
C    -1.017758  -2.341981  1.793735
C    -0.942596  -0.913875  2.209608
O    -0.122575  -0.116127  1.641282
H    -0.013751  -2.784598  1.788502
H    -1.389360  -2.377566  0.757991
H    -1.681053  -2.941462  2.425242
N    -1.763229  -0.474844  3.167305
C    -2.009783  0.934287  3.526975
C    -0.852410  1.495057  4.381030
O    0.225155  1.845994  3.793671
H    -2.463791  -1.136042  3.501101
H    -1.986203  1.523384  2.595277
C    -3.412153  1.069166  4.138798
C    -4.466350  0.619354  3.174634
N    -5.777076  0.385405  3.546106
C    -4.445535  0.382809  1.810190
C    -6.466357  0.033845  2.416838
N    -5.684366  0.018657  1.356150
H    -3.556048  2.124756  4.425009
H    -3.476673  0.475099  5.071000
H    -6.176271  0.488687  4.473816
H    -3.610101  0.461627  1.119088
H    -7.526126  -0.200576  2.432184
N    -1.000646  1.610498  5.684658
C    -0.005544  2.136209  6.621746
H    -1.892436  1.317240  6.078598
H    -0.476484  2.899212  7.251765
H    0.821729  2.578498  6.063295
H    0.367167  1.325019  7.259727
Ca    1.196626  1.492267  1.926678
