30
Energy: -38163.0926316 eV PBE+vdW (tier 2 basis)
C    -0.440349  0.994536  0.797953
C    -0.086355  -0.372132  1.278806
O    1.113309  -0.810104  1.109666
H    0.224795  1.710627  1.302997
H    -1.475709  1.278616  1.003080
H    -0.243405  1.087921  -0.278146
N    -0.969006  -1.141377  1.901285
C    -2.428496  -1.155369  1.758690
C    -2.895601  -2.265747  2.729286
O    -2.157734  -3.258816  2.855726
H    -0.644945  -2.046602  2.275462
H    -2.859922  -0.178591  1.999424
C    -2.836478  -1.576277  0.282799
C    -1.781365  -2.443768  -0.321499
N    -1.467396  -3.710284  0.128055
C    -0.734123  -2.098472  -1.149572
C    -0.268027  -4.072780  -0.368912
N    0.227800  -3.103109  -1.154694
H    -2.939818  -0.677052  -0.336548
H    -3.820755  -2.062777  0.307453
H    -1.975307  -4.209418  0.861819
H    -0.632187  -1.201019  -1.753566
H    0.194733  -5.035829  -0.175490
N    -4.087303  -2.138126  3.321220
C    -5.005555  -0.997252  3.276847
H    -4.342690  -2.927846  3.912005
H    -4.574944  -0.111369  3.761805
H    -5.910865  -1.272104  3.825032
H    -5.304337  -0.754486  2.249215
Ca    2.101037  -2.027995  -0.302198
