30
Energy: -38163.2320234 eV PBE+vdW (tier 2 basis)
C    -0.879340  -0.573041  0.221429
C    -0.585606  -0.152083  1.620742
O    0.531165  0.393247  1.911177
H    -0.081853  -1.234997  -0.140774
H    -0.867707  0.319154  -0.421781
H    -1.845700  -1.076275  0.115236
N    -1.512167  -0.338958  2.566131
C    -1.409068  0.119207  3.959203
C    -0.432729  -0.796905  4.730057
O    0.809530  -0.479513  4.730469
H    -2.361721  -0.847955  2.317969
H    -0.917325  1.102915  3.940361
C    -2.821291  0.331107  4.576105
C    -3.752321  -0.834394  4.519125
N    -4.532818  -1.146175  3.408649
C    -4.021081  -1.848084  5.423605
C    -5.232000  -2.292231  3.714748
N    -4.923370  -2.745438  4.908358
H    -3.257500  1.206341  4.071456
H    -2.679981  0.630699  5.623544
H    -4.784568  -0.504527  2.660970
H    -3.665702  -1.937923  6.448812
H    -5.948082  -2.735562  3.029061
N    -0.886355  -1.874265  5.325333
C    -0.088240  -2.837170  6.084018
H    -1.902135  -2.047484  5.248613
H    0.083218  -3.739068  5.481987
H    -0.642643  -3.117939  6.985937
H    0.868223  -2.389665  6.363940
Ca    2.093169  0.483983  3.341517
