30
Energy: -38162.0457234 eV PBE+vdW (tier 2 basis)
C    -0.074646  -0.644240  0.190961
C    -0.215678  0.393171  1.278468
O    0.247983  1.510784  1.175417
H    0.543639  -0.204518  -0.596373
H    -1.047931  -0.909093  -0.242882
H    0.414501  -1.565931  0.535824
N    -0.930646  0.118312  2.469490
C    -1.510034  -1.030927  3.119685
C    -0.736123  -1.498578  4.385848
O    -1.426039  -1.902172  5.400340
H    -0.983598  0.977688  3.015601
H    -2.463555  -0.692041  3.559688
C    -1.897080  -2.225296  2.189728
C    -2.604734  -3.272260  2.983361
N    -2.061194  -4.498383  3.294624
C    -3.736406  -3.183439  3.775496
C    -2.808669  -5.084028  4.269184
N    -3.834423  -4.297864  4.604878
H    -1.018338  -2.652548  1.694092
H    -2.549748  -1.827181  1.401319
H    -1.252100  -4.921755  2.843889
H    -4.510757  -2.417754  3.752253
H    -2.598891  -6.067576  4.679431
N    0.577134  -1.449011  4.506527
C    1.619954  -1.063826  3.543437
H    0.910807  -1.697426  5.438509
H    1.452948  -1.534820  2.571646
H    1.663826  0.024939  3.424888
H    2.575324  -1.419261  3.940119
Ca    -3.086300  -2.839095  6.313626
