30
Energy: -38163.1998564 eV PBE+vdW (tier 2 basis)
C    0.540818  -0.368170  1.167896
C    -0.091251  -0.478496  2.518467
O    0.145527  -1.518764  3.240194
H    0.179055  -1.195908  0.541075
H    1.629881  -0.479241  1.252670
H    0.311848  0.577510  0.667172
N    -0.878857  0.503255  2.920096
C    -1.781693  0.609198  4.064431
C    -2.882166  1.586847  3.524185
O    -2.587105  2.264867  2.534974
H    -1.120279  1.284966  2.268150
H    -2.186015  -0.381335  4.310734
C    -1.110622  1.241012  5.325491
C    0.064222  0.440336  5.763690
N    1.368383  0.776693  5.474186
C    0.142064  -0.835677  6.286287
C    2.177342  -0.269450  5.773993
N    1.459317  -1.285201  6.263989
H    -1.855390  1.287133  6.130496
H    -0.822263  2.276878  5.100094
H    1.682360  1.681746  5.129167
H    -0.659680  -1.425466  6.726617
H    3.256712  -0.249223  5.658510
N    -4.057210  1.672069  4.164047
C    -4.542946  0.925461  5.318626
H    -4.681583  2.373599  3.767933
H    -5.618092  0.752261  5.201935
H    -4.383366  1.475237  6.257077
H    -4.060770  -0.056208  5.384715
Ca    0.956759  -2.851929  4.621102
