30
Energy: -38163.1727257 eV PBE+vdW (tier 2 basis)
C    1.716659  1.557616  0.636696
C    0.966944  0.828382  1.701289
O    1.578799  0.422315  2.742095
H    2.497031  0.889997  0.242807
H    1.086196  1.895866  -0.191813
H    2.232251  2.421325  1.077026
N    -0.345104  0.619596  1.526331
C    -1.283220  -0.213257  2.308220
C    -1.586196  0.332344  3.713955
O    -0.663921  0.467009  4.583411
H    -0.727070  0.998563  0.663431
H    -2.219172  -0.172122  1.736345
C    -0.862014  -1.714908  2.393452
C    -1.806550  -2.498703  3.237835
N    -2.982591  -3.068053  2.777343
C    -1.840268  -2.701937  4.605032
C    -3.635403  -3.592186  3.861692
N    -2.972145  -3.371014  4.980739
H    0.152364  -1.796814  2.807946
H    -0.793966  -2.101256  1.366436
H    -3.250332  -3.205710  1.807238
H    -1.093811  -2.413082  5.342092
H    -4.573618  -4.131160  3.772533
N    -2.842276  0.602409  4.007472
C    -3.331697  0.963504  5.340255
H    -3.541473  0.442419  3.286752
H    -4.281541  1.494145  5.230882
H    -2.606237  1.611197  5.839664
H    -3.487475  0.053045  5.935423
Ca    1.419838  0.231471  4.834420
