30
Energy: -38163.0227305 eV PBE+vdW (tier 2 basis)
C    -1.369344  1.375163  -1.041147
C    -0.999901  0.721505  0.245629
O    0.114091  0.077595  0.336505
H    -2.380016  1.793264  -1.039969
H    -1.244959  0.679540  -1.879495
H    -0.660456  2.200597  -1.211493
N    -1.766530  0.802644  1.321820
C    -3.217240  0.898043  1.463689
C    -3.406158  0.692356  3.000112
O    -2.540839  0.038015  3.600609
H    -1.408456  0.383810  2.204211
H    -3.593272  1.877172  1.141672
C    -3.994908  -0.243611  0.680959
C    -3.128286  -1.409202  0.324313
N    -2.971037  -1.869113  -0.970830
C    -2.158579  -2.077627  1.042052
C    -1.932433  -2.733164  -1.019613
N    -1.388200  -2.867469  0.196593
H    -4.422328  0.180147  -0.237002
H    -4.848049  -0.559116  1.297540
H    -3.572737  -1.637984  -1.758853
H    -1.986611  -2.021702  2.115484
H    -1.622021  -3.251513  -1.921228
N    -4.518741  1.195973  3.539725
C    -4.883227  1.037873  4.948964
H    -5.121880  1.772631  2.960386
H    -4.142076  0.394917  5.429987
H    -5.876219  0.580797  5.029794
H    -4.893483  2.015317  5.445707
Ca    0.701894  -1.926860  0.628878
