30
Energy: -38163.1619297 eV PBE+vdW (tier 2 basis)
C    -1.212453  -2.229199  -0.371060
C    -0.793256  -1.451959  0.830045
O    0.306070  -1.716859  1.418690
H    -1.206751  -3.302198  -0.139214
H    -0.464989  -2.071475  -1.162772
H    -2.198491  -1.944070  -0.751753
N    -1.581299  -0.464013  1.269790
C    -1.249142  0.520863  2.315010
C    -1.425613  -0.107771  3.717644
O    -0.546153  -0.945377  4.117903
H    -2.449804  -0.309509  0.761310
H    -0.172220  0.736670  2.230462
C    -2.016654  1.820318  2.035031
C    -1.609415  2.933758  2.948460
N    -2.132227  4.209898  2.855553
C    -0.691203  3.011432  3.980946
C    -1.518665  4.975124  3.810738
N    -0.646219  4.274771  4.506943
H    -3.107542  1.630299  2.072852
H    -1.806143  2.088279  0.985318
H    -2.822204  4.538595  2.187086
H    -0.050333  2.229887  4.382540
H    -1.749806  6.026557  3.949739
N    -2.457742  0.225539  4.458393
C    -2.729673  -0.244064  5.817006
H    -3.047182  0.980062  4.110339
H    -2.508009  0.560367  6.530890
H    -2.107906  -1.114089  6.036105
H    -3.788697  -0.512932  5.896999
Ca    1.127721  -2.000903  3.344009
