30
Energy: -38164.160582 eV PBE+vdW (tier 2 basis)
C    0.133391  0.235950  0.476676
C    -0.139408  -0.366947  1.819846
O    0.808517  -0.558460  2.625227
H    -0.754183  0.338829  -0.155853
H    0.879446  -0.378818  -0.044550
H    0.586191  1.226584  0.622669
N    -1.425526  -0.674581  2.098501
C    -2.105969  -1.225367  3.295710
C    -1.624689  -0.590916  4.620494
O    -0.502526  -0.854570  5.135235
H    -2.069687  -0.461185  1.341489
H    -3.146754  -0.904986  3.154569
C    -2.176345  -2.790520  3.329602
C    -0.951643  -3.463163  3.849243
N    -0.834569  -3.942458  5.136988
C    0.328040  -3.536583  3.332532
C    0.477125  -4.212409  5.383733
N    1.223285  -3.950592  4.310841
H    -2.394939  -3.128557  2.307080
H    -3.050438  -3.068619  3.935135
H    -1.597529  -4.082604  5.795192
H    0.652679  -3.342412  2.314128
H    0.838210  -4.612900  6.326378
N    -2.487066  0.222754  5.220314
C    -2.238461  0.905118  6.491760
H    -3.369928  0.417486  4.755878
H    -1.787779  1.890653  6.315627
H    -1.563176  0.301515  7.104135
H    -3.191706  1.035792  7.012886
Ca    1.506435  -1.482035  4.453534
