30
Energy: -38162.8984533 eV PBE+vdW (tier 2 basis)
C    0.812583  -0.838437  1.302769
C    0.130744  0.380635  1.836114
O    0.810164  1.269068  2.461053
H    1.269565  -1.384027  2.140857
H    0.136755  -1.514375  0.768510
H    1.627638  -0.546736  0.626895
N    -1.185004  0.502436  1.655770
C    -2.075431  1.548487  2.175432
C    -3.470940  0.995835  2.638808
O    -4.423980  1.760658  2.628436
H    -1.629415  -0.227073  1.098792
H    -1.593946  1.938652  3.084617
C    -2.302209  2.714052  1.168701
C    -1.262798  3.756333  1.365971
N    -1.348196  4.725438  2.344871
C    0.036030  3.844466  0.907507
C    -0.137460  5.320931  2.494736
N    0.746942  4.796525  1.639994
H    -3.315674  3.094447  1.366101
H    -2.285628  2.338274  0.138169
H    -2.196509  4.975400  2.851878
H    0.473765  3.328913  0.054297
H    0.055715  6.127788  3.195259
N    -3.514835  -0.292687  3.042987
C    -4.749458  -0.886874  3.564490
H    -2.651133  -0.802833  3.190313
H    -4.689227  -1.974632  3.464399
H    -5.597091  -0.512131  2.983124
H    -4.902885  -0.622777  4.619018
Ca    1.982918  3.036244  2.533134
