30
Energy: -38160.7714916 eV PBE+vdW (tier 2 basis)
C    -0.641655  -0.641631  0.345350
C    0.250623  -0.433870  1.520092
O    1.437528  -0.973290  1.534980
H    -0.042713  -0.839336  -0.549242
H    -1.303897  0.214034  0.162622
H    -1.276056  -1.525183  0.527421
N    -0.131903  0.270073  2.568999
C    -1.439050  0.937766  2.750293
C    -1.565331  2.245797  1.897457
O    -2.362744  2.200697  0.963483
H    0.546529  0.362137  3.326637
H    -2.186191  0.289507  2.279394
C    -1.775478  1.056042  4.254061
C    -2.884568  2.010278  4.548039
N    -4.129797  2.004006  3.956758
C    -2.940207  3.055882  5.469727
C    -4.854177  3.022819  4.522038
N    -4.155007  3.667272  5.441167
H    -0.900335  1.402869  4.822054
H    -2.009828  0.045101  4.628826
H    -4.454682  1.402251  3.206961
H    -2.162214  3.366417  6.162251
H    -5.874002  3.245467  4.223736
N    -0.798507  3.327369  2.164167
C    0.075228  3.605342  3.296307
H    -1.016267  4.112510  1.552872
H    0.735014  2.756910  3.519956
H    -0.488207  3.876410  4.199483
H    0.721972  4.447738  3.031246
Ca    3.141212  -2.000175  1.145887
