30
Energy: -38164.1338695 eV PBE+vdW (tier 2 basis)
C    -1.846921  0.817644  -0.086513
C    -1.434023  0.345062  1.273965
O    -0.505652  -0.496840  1.388829
H    -1.000414  1.347152  -0.546322
H    -2.718247  1.480616  -0.084377
H    -2.055004  -0.054182  -0.720276
N    -2.104172  0.867160  2.325994
C    -1.991618  0.685562  3.787411
C    -0.588576  1.001691  4.339704
O    0.455559  0.447071  3.892209
H    -2.820591  1.536722  2.059718
H    -2.665649  1.452184  4.185853
C    -2.576734  -0.666045  4.338934
C    -1.836437  -1.883471  3.911779
N    -2.167068  -2.656880  2.818933
C    -0.595184  -2.349870  4.303539
C    -1.121535  -3.480942  2.537914
N    -0.129405  -3.303624  3.409735
H    -3.631684  -0.712201  4.036294
H    -2.573998  -0.595619  5.436030
H    -3.047704  -2.630608  2.310967
H    -0.031471  -2.079122  5.193599
H    -1.124720  -4.190459  1.716230
N    -0.499541  1.863482  5.349087
C    -1.556750  2.637025  6.012613
H    0.452677  2.004794  5.686854
H    -2.054419  3.317357  5.310127
H    -1.086297  3.244690  6.790489
H    -2.293127  1.983433  6.495783
Ca    1.086705  -1.256781  2.642898
