30
Energy: -38162.7605509 eV PBE+vdW (tier 2 basis)
C    -0.080567  -0.126519  -0.137820
C    -0.117877  0.086681  1.337977
O    0.954064  -0.007967  2.032134
H    0.291912  -1.140496  -0.342023
H    -1.058689  -0.005783  -0.614834
H    0.628903  0.575930  -0.595521
N    -1.286269  0.366985  1.924875
C    -1.414993  0.508168  3.374722
C    -2.606993  -0.073615  4.175338
O    -2.354891  -0.184505  5.382478
H    -2.100756  0.462002  1.324400
H    -0.604142  -0.125317  3.749787
C    -1.144129  1.973424  3.891931
C    0.108544  1.913011  4.693629
N    0.222129  1.066872  5.770452
C    1.403689  2.304563  4.402394
C    1.539925  0.913251  6.066690
N    2.302272  1.645288  5.247509
H    -1.993426  2.330525  4.487378
H    -1.014677  2.660689  3.048464
H    -0.590458  0.551164  6.147877
H    1.728000  3.083608  3.712616
H    1.903995  0.287646  6.876720
N    -3.792985  -0.401236  3.640933
C    -4.296239  -0.223791  2.281024
H    -4.442479  -0.778773  4.329896
H    -5.377890  -0.387156  2.295727
H    -3.868436  -0.955442  1.580660
H    -4.145001  0.804334  1.921727
Ca    2.655130  0.374592  3.266777
