30
Energy: -38163.2311563 eV PBE+vdW (tier 2 basis)
C    -0.733112  0.036423  0.264038
C    -0.509330  0.241685  1.723313
O    0.592378  0.727352  2.146733
H    -0.688785  1.014390  -0.237448
H    -1.693218  -0.437628  0.036376
H    0.081172  -0.570513  -0.153040
N    -1.482539  -0.075232  2.583358
C    -1.448186  0.168893  4.032620
C    -0.512591  -0.860666  4.704454
O    0.728146  -0.556846  4.815014
H    -2.319537  -0.533529  2.220341
H    -0.954771  1.140022  4.185203
C    -2.888915  0.298848  4.604695
C    -3.817576  -0.836963  4.329209
N    -4.544230  -0.971793  3.148896
C    -4.130665  -1.972764  5.057153
C    -5.258533  -2.144970  3.245497
N    -5.008142  -2.774944  4.370600
H    -3.298436  1.243246  4.215635
H    -2.799015  0.437883  5.690718
H    -4.758320  -0.223251  2.494712
H    -3.825173  -2.218550  6.072869
H    -5.941306  -2.474293  2.467781
N    -0.996201  -2.011875  5.106514
C    -0.237867  -3.084895  5.749459
H    -2.007014  -2.163082  4.954430
H    -0.836162  -3.492674  6.571310
H    0.704622  -2.693217  6.138981
H    -0.038976  -3.887840  5.027655
Ca    2.080280  0.592784  3.650923
