30
Energy: -38163.0871681 eV PBE+vdW (tier 2 basis)
C    0.231889  -0.017431  0.135882
C    0.121970  0.054909  1.627220
O    1.187548  -0.085699  2.341238
H    -0.722098  0.157272  -0.370942
H    0.601228  -1.015332  -0.140835
H    0.967097  0.713664  -0.226645
N    -1.074375  0.259377  2.144162
C    -1.599406  0.178129  3.508127
C    -3.101826  -0.195808  3.248435
O    -3.542061  0.004767  2.113198
H    -1.908365  0.297925  1.511558
H    -1.071661  -0.609347  4.062847
C    -1.532531  1.534811  4.280602
C    -0.140917  1.833016  4.714990
N    0.420791  1.333775  5.874496
C    0.919089  2.373051  4.022122
C    1.760655  1.531302  5.843043
N    2.109348  2.150839  4.708180
H    -2.210775  1.491266  5.143181
H    -1.908257  2.333322  3.627821
H    -0.090538  0.935844  6.659295
H    0.886211  2.921323  3.083976
H    2.429757  1.263001  6.654923
N    -3.840917  -0.679944  4.258439
C    -3.445441  -1.002249  5.623304
H    -4.814593  -0.841429  4.004712
H    -3.636528  -0.168388  6.314758
H    -2.387452  -1.285414  5.670267
H    -4.025587  -1.865860  5.965372
Ca    2.966745  0.687307  3.122273
