30
Energy: -38164.16079 eV PBE+vdW (tier 2 basis)
C    0.148148  0.248643  0.425496
C    -0.112941  -0.334530  1.779623
O    0.844242  -0.531083  2.572751
H    0.616088  1.234789  0.553099
H    -0.747167  0.356083  -0.195245
H    0.878302  -0.382088  -0.099104
N    -1.399066  -0.619281  2.081573
C    -2.068756  -1.144819  3.296075
C    -1.555470  -0.502519  4.605011
O    -0.430558  -0.780264  5.106161
H    -2.051688  -0.405286  1.332012
H    -3.106428  -0.809165  3.168076
C    -2.163626  -2.708081  3.349537
C    -0.941176  -3.394618  3.856201
N    -0.810146  -3.862010  5.146967
C    0.328321  -3.494233  3.319089
C    0.501032  -4.150500  5.374775
N    1.233138  -3.912251  4.286810
H    -2.404975  -3.054167  2.334848
H    -3.031630  -2.965098  3.972882
H    -1.564056  -3.982683  5.819303
H    0.638829  -3.316252  2.293348
H    0.871468  -4.546713  6.315599
N    -2.392885  0.335122  5.207178
C    -2.110398  1.029251  6.465201
H    -3.279354  0.540313  4.754307
H    -3.054039  1.198444  6.992542
H    -1.630173  1.996953  6.269333
H    -1.448942  0.414177  7.081396
Ca    1.556909  -1.447137  4.399155
