30
Energy: -38163.2004121 eV PBE+vdW (tier 2 basis)
C    0.138049  -0.166595  -0.008207
C    -0.121563  -0.356379  1.447498
O    0.504888  -1.260310  2.099660
H    -0.130503  -1.083707  -0.550964
H    1.215822  -0.012824  -0.157309
H    -0.411575  0.678320  -0.435258
N    -1.013529  0.435446  2.043279
C    -1.258430  0.589960  3.485347
C    -1.967053  -0.641402  4.088302
O    -1.279050  -1.682669  4.360326
H    -1.329265  1.256839  1.501101
H    -0.282833  0.633283  3.997534
C    -1.995446  1.953156  3.702952
C    -1.434389  3.046102  2.862549
N    -0.295319  3.774930  3.149607
C    -1.802421  3.457288  1.588806
C    -0.051772  4.588548  2.072465
N    -0.935618  4.406233  1.112988
H    -1.979094  2.187394  4.776253
H    -3.052948  1.862833  3.408399
H    0.199655  3.805790  4.035422
H    -2.683535  3.160568  1.022208
H    0.772598  5.295044  2.053342
N    -3.258581  -0.593547  4.344150
C    -4.051535  -1.673301  4.936822
H    -3.751189  0.266068  4.113391
H    -4.568245  -2.237833  4.149771
H    -4.796338  -1.233397  5.607637
H    -3.396516  -2.341146  5.501253
Ca    0.473733  -2.658692  3.655675
