30
Energy: -38163.0281299 eV PBE+vdW (tier 2 basis)
C    1.652583  1.125286  0.542492
C    1.000099  0.428677  1.690768
O    1.716776  -0.173510  2.556990
H    2.429756  1.806791  0.911130
H    2.161985  0.367740  -0.072209
H    0.952307  1.679524  -0.090739
N    -0.335073  0.459272  1.775002
C    -1.271168  -0.327683  2.603098
C    -1.247115  -0.011502  4.105629
O    -0.153427  0.087850  4.761019
H    -0.790514  0.984904  1.032689
H    -2.254281  -0.018750  2.230001
C    -1.179504  -1.869711  2.354803
C    -2.413335  -2.543723  2.860307
N    -2.416783  -3.605107  3.746854
C    -3.753184  -2.243144  2.674167
C    -3.725466  -3.902433  4.027806
N    -4.550564  -3.083706  3.407939
H    -0.274543  -2.282544  2.823021
H    -1.058765  -2.007451  1.269299
H    -1.615806  -4.161355  4.027713
H    -4.192859  -1.492909  2.019632
H    -4.009736  -4.724338  4.677683
N    -2.419706  0.066241  4.701538
C    -2.652254  0.231012  6.135419
H    -3.241756  -0.123048  4.124892
H    -1.708552  0.446661  6.639793
H    -3.095199  -0.687433  6.541148
H    -3.352169  1.060164  6.290633
Ca    1.933252  -0.177774  4.648481
