30
Energy: -38162.591281 eV PBE+vdW (tier 2 basis)
C    -0.838260  1.429586  1.391769
C    -0.094633  0.139141  1.212422
O    1.147703  0.184710  0.897529
H    -0.115834  2.249345  1.440123
H    -1.448952  1.436810  2.304184
H    -1.504816  1.619364  0.536815
N    -0.630287  -1.095576  1.316408
C    -2.067715  -1.278280  1.460409
C    -2.273750  -2.040929  2.765742
O    -1.191060  -2.510578  3.321268
H    -0.463010  -2.110263  2.736386
H    -2.602154  -0.321359  1.554360
C    -2.722824  -2.046549  0.221475
C    -1.713635  -2.875764  -0.481042
N    -1.273785  -4.114812  -0.063664
C    -0.775949  -2.469681  -1.412278
C    -0.100030  -4.397266  -0.700427
N    0.247817  -3.400718  -1.513900
H    -3.094686  -1.286335  -0.475593
H    -3.593653  -2.631825  0.542798
H    -1.766362  -4.750917  0.558889
H    -0.803681  -1.577260  -2.035849
H    0.438083  -5.332297  -0.574043
N    -3.416359  -2.252534  3.365236
C    -4.749176  -1.781153  2.973833
H    -3.359573  -2.777860  4.241471
H    -5.242072  -1.365982  3.859875
H    -5.350045  -2.616637  2.593407
H    -4.678498  -0.999776  2.212746
Ca    1.382196  -1.754606  -0.023346
