30
Energy: -38163.0873493 eV PBE+vdW (tier 2 basis)
C    0.319282  0.034512  0.148251
C    0.172580  0.055825  1.638013
O    1.225261  -0.074112  2.372854
H    1.040160  0.798232  -0.173421
H    -0.627550  0.196840  -0.375825
H    0.725084  -0.942690  -0.150454
N    -1.041412  0.205999  2.132005
C    -1.594896  0.065151  3.479751
C    -3.078425  -0.346292  3.172887
O    -3.498667  -0.124176  2.034131
H    -1.861276  0.238596  1.480916
H    -1.055697  -0.723283  4.021972
C    -1.588074  1.397753  4.295810
C    -0.217369  1.721590  4.775796
N    0.330221  1.198996  5.931749
C    0.842737  2.316018  4.129231
C    1.663958  1.436216  5.941426
N    2.021851  2.104779  4.837713
H    -2.286468  1.307149  5.138408
H    -1.970479  2.205639  3.658658
H    -0.188128  0.758913  6.688949
H    0.816499  2.895683  3.209917
H    2.320583  1.158962  6.760453
N    -3.824745  -0.884058  4.149979
C    -3.450183  -1.236075  5.513408
H    -4.786872  -1.067432  3.868612
H    -2.385612  -1.490091  5.576232
H    -4.012060  -2.125999  5.816254
H    -3.680990  -0.429512  6.224860
Ca    2.960686  0.725868  3.222468
