30
Energy: -38163.094182 eV PBE+vdW (tier 2 basis)
C    -0.614046  1.008896  0.857779
C    -0.209766  -0.355068  1.305542
O    1.018297  -0.723062  1.178870
H    -0.375132  1.152830  -0.204164
H    -0.010528  1.738462  1.417883
H    -1.671006  1.231626  1.024966
N    -1.077643  -1.192783  1.856245
C    -2.526097  -1.276894  1.642544
C    -2.977853  -2.446705  2.548437
O    -2.194838  -3.404735  2.673811
H    -0.722984  -2.093746  2.212417
H    -3.019867  -0.333722  1.897073
C    -2.841536  -1.661093  0.134390
C    -1.714423  -2.448613  -0.449075
N    -1.354009  -3.713576  -0.031146
C    -0.650156  -2.017595  -1.212755
C    -0.115210  -3.993740  -0.482567
N    0.363578  -2.969960  -1.207934
H    -2.963889  -0.745131  -0.456327
H    -3.798433  -2.198463  0.093479
H    -1.867635  -4.266217  0.659038
H    -0.568899  -1.093430  -1.778400
H    0.389180  -4.938200  -0.302013
N    -4.200691  -2.403691  3.086630
C    -5.175169  -1.310552  3.040076
H    -4.440698  -3.227865  3.635292
H    -4.815953  -0.424228  3.579342
H    -6.089818  -1.653547  3.531401
H    -5.436929  -1.041779  2.008846
Ca    2.134155  -1.831420  -0.227679
