30
Energy: -38163.1622596 eV PBE+vdW (tier 2 basis)
C    0.284645  -0.344670  -0.265258
C    0.152855  -0.134271  1.204748
O    1.191036  -0.020542  1.935797
H    0.795176  0.529996  -0.695017
H    -0.675408  -0.480712  -0.773466
H    0.926991  -1.213450  -0.459576
N    -1.070684  -0.052241  1.740099
C    -1.396869  0.333377  3.124959
C    -1.170992  -0.862026  4.080970
O    0.032497  -1.189051  4.363848
H    -1.857668  -0.161085  1.103288
H    -0.660710  1.092037  3.434930
C    -2.786934  0.984511  3.143469
C    -3.133089  1.559495  4.481317
N    -4.320129  2.223197  4.728661
C    -2.446293  1.622266  5.681159
C    -4.291056  2.644076  6.031133
N    -3.171903  2.290860  6.630421
H    -3.547861  0.258666  2.794825
H    -2.771088  1.778053  2.376601
H    -5.069147  2.399689  4.066228
H    -1.463017  1.226193  5.924320
H    -5.109465  3.196840  6.481591
N    -2.202242  -1.506375  4.577294
C    -2.146538  -2.615819  5.529318
H    -3.122403  -1.109989  4.392318
H    -2.853613  -3.391417  5.215380
H    -2.429366  -2.253908  6.526827
H    -1.134925  -3.024992  5.557843
Ca    2.010201  -0.701710  3.759973
