30
Energy: -38163.0257211 eV PBE+vdW (tier 2 basis)
C    -2.286972  -0.359591  -0.138836
C    -1.674375  -0.683834  1.190617
O    -0.678185  -1.378493  1.360649
H    -3.354989  -0.120056  -0.074869
H    -2.132153  -1.199634  -0.823359
H    -1.765461  0.510825  -0.564421
N    -2.302664  -0.154259  2.327695
C    -1.531650  -0.226288  3.548699
C    -1.355768  -1.693885  3.991769
O    -0.316465  -2.043798  4.655799
H    -2.984521  0.591877  2.217250
H    -0.501177  0.117007  3.355888
C    -2.138190  0.671127  4.668754
C    -1.309154  0.521897  5.901747
N    -1.718976  -0.146730  7.032522
C    0.054069  0.689619  6.071971
C    -0.635356  -0.412266  7.810265
N    0.474599  0.067821  7.244452
H    -3.185566  0.401714  4.863585
H    -2.128659  1.713144  4.318413
H    -2.681000  -0.383931  7.266762
H    0.738783  1.266968  5.452311
H    -0.693316  -0.919615  8.768629
N    -2.328157  -2.538980  3.726967
C    -2.317064  -3.974805  3.995174
H    -3.066103  -2.165180  3.127925
H    -1.751757  -4.179719  4.908173
H    -1.857255  -4.510976  3.153991
H    -3.347845  -4.319757  4.119982
Ca    1.379327  -1.600204  5.813496
