30
Energy: -38163.1648772 eV PBE+vdW (tier 2 basis)
C    -1.541045  -2.201242  -0.609046
C    -0.967220  -1.508431  0.581670
O    0.175106  -1.849238  1.033710
H    -2.556450  -1.875326  -0.856783
H    -1.533746  -3.287060  -0.450107
H    -0.884774  -2.002890  -1.469816
N    -1.670801  -0.521831  1.148269
C    -1.231324  0.457337  2.161907
C    -1.249391  -0.162967  3.580376
O    -0.530295  -1.204304  3.792047
H    -2.580182  -0.329325  0.731789
H    -0.167381  0.672107  1.965849
C    -2.072103  1.743197  1.902868
C    -1.959903  2.853976  2.889138
N    -0.831778  3.624762  3.106774
C    -2.891963  3.332569  3.797863
C    -1.135362  4.516401  4.105461
N    -2.363927  4.352001  4.547774
H    -3.136606  1.461278  1.864161
H    -1.806960  2.083013  0.888589
H    0.019627  3.629820  2.554328
H    -3.929876  3.024261  3.910208
H    -0.424271  5.257469  4.458040
N    -1.949800  0.398101  4.534344
C    -2.017763  -0.059656  5.921756
H    -2.369270  1.321212  4.319046
H    -1.813556  -1.131505  5.975199
H    -3.022519  0.147254  6.304246
H    -1.289064  0.488216  6.534119
Ca    0.930596  -2.446199  2.915221
