30
Energy: -38163.4406329 eV PBE+vdW (tier 2 basis)
C    -0.301888  2.544512  0.880371
C    -0.710837  1.152397  0.559079
O    0.128536  0.211572  0.462016
H    0.152830  2.959080  -0.035717
H    -1.140369  3.195931  1.147090
H    0.471835  2.561190  1.655150
N    -2.025231  0.860651  0.301309
C    -3.131191  1.161052  1.214609
C    -2.603869  1.112146  2.674739
O    -1.599054  0.396331  2.965049
H    -2.107338  -0.049462  -0.150259
H    -3.562462  2.152280  1.011900
C    -4.263578  0.081794  0.989286
C    -3.664900  -1.290678  0.963233
N    -3.284582  -1.939387  -0.205038
C    -2.975766  -1.957820  1.956592
C    -2.366358  -2.896567  0.103738
N    -2.122568  -2.908605  1.414858
H    -4.779712  0.314365  0.048274
H    -5.008031  0.177761  1.789559
H    -3.690104  -1.792202  -1.128522
H    -3.062012  -1.820486  3.030833
H    -1.917087  -3.554094  -0.634453
N    -3.260948  1.827986  3.573666
C    -2.962568  1.884431  5.006928
H    -4.036412  2.399971  3.244242
H    -2.033526  1.344929  5.202399
H    -2.852022  2.931278  5.311808
H    -3.782411  1.430833  5.577440
Ca    -0.353378  -1.262188  2.067821
