30
Energy: -38163.2967323 eV PBE+vdW (tier 2 basis)
C    0.034745  0.727276  0.116431
C    0.117088  0.339438  1.558049
O    1.273339  0.164068  2.097347
H    0.635017  1.628545  -0.064853
H    -0.992022  0.903233  -0.218691
H    0.470553  -0.079121  -0.490845
N    -1.011306  0.185032  2.228205
C    -1.278894  -0.366122  3.554316
C    -2.727117  -0.947296  3.384766
O    -3.396478  -0.522590  2.439332
H    -1.929193  0.247012  1.731849
H    -0.546009  -1.151098  3.787250
C    -1.285409  0.712625  4.684267
C    0.022916  1.417179  4.759795
N    0.253461  2.660016  4.212044
C    1.274825  0.958760  5.120749
C    1.586562  2.908407  4.211296
N    2.249995  1.880604  4.750406
H    -1.502111  0.214027  5.638274
H    -2.106997  1.419481  4.504071
H    -0.464893  3.308521  3.895635
H    1.519146  0.054140  5.674487
H    2.027222  3.833219  3.851681
N    -3.139981  -1.826143  4.305722
C    -4.480935  -2.416681  4.307693
H    -2.482839  -2.149622  5.008216
H    -4.948625  -2.274110  5.288441
H    -4.424941  -3.488768  4.083583
H    -5.079128  -1.918054  3.540840
Ca    3.068009  0.437021  3.121644
