30
Energy: -38162.4693954 eV PBE+vdW (tier 2 basis)
C    1.272575  1.786283  1.658032
C    0.802231  0.422809  2.037567
O    1.583711  -0.578643  1.914287
H    2.366327  1.782253  1.613525
H    0.896889  2.058305  0.658339
H    0.931333  2.549255  2.365176
N    -0.446316  0.199604  2.514625
C    -1.686125  0.700463  1.904401
C    -1.760969  0.133261  0.449119
O    -0.845838  -0.665848  0.027291
H    -0.544522  -0.733819  2.914934
H    -2.488677  0.209548  2.475107
C    -1.923330  2.224601  2.029654
C    -3.366555  2.579307  1.831986
N    -3.781558  3.849545  1.480868
C    -4.545131  1.857037  1.968176
C    -5.150260  3.838359  1.430627
N    -5.636166  2.646043  1.707172
H    -1.300641  2.773183  1.307925
H    -1.583157  2.515958  3.036719
H    -3.190634  4.662486  1.335002
H    -4.677950  0.820503  2.271231
H    -5.730510  4.722130  1.183550
N    -2.791041  0.479040  -0.284566
C    -3.084690  0.036315  -1.646340
H    -3.463130  1.121627  0.174634
H    -2.376945  -0.737128  -1.951252
H    -3.018375  0.889748  -2.332659
H    -4.106028  -0.361003  -1.677356
Ca    0.938738  -1.809755  0.269151
