30
Energy: -38162.7479562 eV PBE+vdW (tier 2 basis)
C    0.162284  0.109011  0.418282
C    -0.324794  0.065115  1.818014
O    0.419845  0.513961  2.773724
H    0.693106  -0.838297  0.222412
H    -0.649269  0.142554  -0.322101
H    0.885384  0.919834  0.283713
N    -1.503953  -0.473552  2.154975
C    -2.779814  -0.541823  1.396949
C    -2.713401  -1.454416  0.130537
O    -2.274227  -0.997425  -0.922519
H    -1.620278  -0.551230  3.164210
H    -3.483108  -0.974268  2.119444
C    -3.291594  0.881341  0.968112
C    -2.823701  1.939759  1.902090
N    -3.318593  2.143264  3.179350
C    -1.655957  2.668346  1.871031
C    -2.456390  2.918246  3.876335
N    -1.405115  3.243860  3.113162
H    -4.385982  0.840811  0.884921
H    -2.904273  1.085085  -0.039281
H    -4.220851  1.822484  3.524720
H    -1.000941  2.821887  1.017398
H    -2.633915  3.249651  4.894660
N    -3.171172  -2.707003  0.306559
C    -3.202569  -3.703411  -0.763365
H    -3.530111  -2.979799  1.215355
H    -2.545246  -4.546842  -0.518899
H    -2.858621  -3.229059  -1.686242
H    -4.225721  -4.071832  -0.901953
Ca    0.730971  2.436082  3.577214
