30
Energy: -38163.2006157 eV PBE+vdW (tier 2 basis)
C    0.279360  -0.178761  0.131283
C    0.002560  -0.291137  1.591878
O    0.674943  -1.105390  2.312665
H    0.098779  -1.148726  -0.352506
H    1.344616  0.052715  -0.008259
H    -0.325529  0.588632  -0.362185
N    -0.952555  0.475389  2.119120
C    -1.234356  0.711383  3.543435
C    -1.873634  -0.519150  4.221431
O    -1.126610  -1.496541  4.565332
H    -1.310890  1.235170  1.517188
H    -0.273366  0.853499  4.065372
C    -2.061191  2.035092  3.654587
C    -1.551688  3.103996  2.752709
N    -0.465788  3.920074  3.009690
C    -1.918233  3.407585  1.448819
C    -0.250996  4.675764  1.885253
N    -1.102037  4.376240  0.925585
H    -2.084202  2.341049  4.709625
H    -3.103642  1.856641  3.346586
H    0.007466  4.040091  3.899757
H    -2.767432  3.019673  0.888625
H    0.528275  5.430149  1.833058
N    -3.168101  -0.530909  4.466562
C    -3.905383  -1.610854  5.126217
H    -3.706836  0.282109  4.176986
H    -4.625461  -1.170610  5.823971
H    -3.207390  -2.249771  5.671524
H    -4.448443  -2.204794  4.379746
Ca    0.697763  -2.401604  3.954943
