30
Energy: -38162.5819415 eV PBE+vdW (tier 2 basis)
C    -0.069425  0.478551  -0.029358
C    0.018926  0.337405  1.461819
O    0.982181  0.679474  2.136013
H    -0.062048  1.547821  -0.280726
H    0.829840  0.042606  -0.481581
H    -0.961147  0.015236  -0.466252
N    -1.081638  -0.246041  2.099747
C    -1.096064  -0.251334  3.542326
C    -1.307610  -1.643125  4.130649
O    -2.118638  -1.835209  5.117081
H    -1.925356  -0.453172  1.574052
H    -0.048812  0.049924  3.782889
C    -2.051828  0.853575  4.066567
C    -2.120440  1.036252  5.546239
N    -3.298740  1.367403  6.197375
C    -1.201530  0.857009  6.576666
C    -3.064929  1.383594  7.555248
N    -1.806999  1.037647  7.812997
H    -3.065900  0.679392  3.676822
H    -1.699902  1.790004  3.606813
H    -4.157298  1.674632  5.739158
H    -0.141793  0.625721  6.498560
H    -3.814762  1.673978  8.287624
N    -0.629767  -2.681011  3.670984
C    0.447734  -2.737722  2.674150
H    -0.882262  -3.567045  4.108379
H    0.037039  -2.851390  1.664021
H    1.074768  -1.842214  2.722415
H    1.063417  -3.611787  2.907730
Ca    -2.596175  -1.236354  7.078460
