30
Energy: -38163.4974548 eV PBE+vdW (tier 2 basis)
C    -1.267750  -1.034702  3.546556
C    -0.574232  -0.021094  2.708121
O    0.662949  -0.088571  2.465464
H    -2.359535  -0.966316  3.502689
H    -0.973128  -0.832415  4.590704
H    -0.924331  -2.047851  3.311317
N    -1.272845  1.052216  2.216327
C    -2.472082  0.923401  1.385945
C    -2.398709  -0.415793  0.604109
O    -1.277118  -0.877035  0.237764
H    -0.634865  1.775833  1.890053
H    -3.387142  0.964291  1.994457
C    -2.500855  2.134480  0.378354
C    -1.377497  2.015493  -0.602107
N    -1.504107  1.415167  -1.837953
C    -0.008495  2.068799  -0.388198
C    -0.268807  1.070403  -2.289419
N    0.671465  1.427007  -1.415511
H    -2.427584  3.060484  0.965768
H    -3.476709  2.160643  -0.122717
H    -2.373956  1.277749  -2.347469
H    0.536995  2.602821  0.388435
H    -0.095392  0.589709  -3.247547
N    -3.547788  -1.014314  0.327833
C    -3.702009  -2.263887  -0.420864
H    -4.395949  -0.598377  0.708214
H    -4.443300  -2.124690  -1.215999
H    -4.048456  -3.058760  0.251348
H    -2.739795  -2.545439  -0.853718
Ca    0.929029  -0.384252  0.264043
