30
Energy: -38163.1526343 eV PBE+vdW (tier 2 basis)
C    -1.030775  -0.478962  -0.102094
C    -0.639551  -0.219951  1.312054
O    0.561271  -0.418676  1.691011
H    -0.261672  -0.098633  -0.784081
H    -2.005529  -0.056282  -0.367370
H    -1.080746  -1.571321  -0.237970
N    -1.574320  0.226370  2.161844
C    -1.560284  0.237778  3.635967
C    -0.653475  1.321354  4.228366
O    0.612168  1.272480  4.078719
H    -2.498513  0.331991  1.751912
H    -2.595510  0.483364  3.904973
C    -1.239656  -1.166655  4.272872
C    -1.895586  -2.296679  3.570518
N    -3.220440  -2.669063  3.730461
C    -1.424613  -3.117711  2.560586
C    -3.466881  -3.685217  2.845366
N    -2.401593  -3.967463  2.120070
H    -1.523765  -1.104655  5.334345
H    -0.155030  -1.341349  4.261164
H    -3.860067  -2.353506  4.453022
H    -0.417609  -3.159602  2.153317
H    -4.430061  -4.182497  2.784022
N    -1.221482  2.261820  4.963905
C    -0.517809  3.325314  5.683969
H    -2.237076  2.263139  5.024672
H    -0.601388  4.270707  5.132615
H    0.534798  3.055648  5.794542
H    -0.974484  3.445826  6.672103
Ca    2.098677  0.271432  2.935122
