30
Energy: -38163.1615466 eV PBE+vdW (tier 2 basis)
C    0.172415  -0.584730  -0.296455
C    0.087019  -0.304383  1.165300
O    1.146212  -0.113332  1.848519
H    0.633670  0.284581  -0.788332
H    -0.799876  -0.780548  -0.759897
H    0.839375  -1.438802  -0.472275
N    -1.118034  -0.242114  1.743502
C    -1.408607  0.204824  3.117842
C    -1.100373  -0.927243  4.126404
O    0.124719  -1.195561  4.376464
H    -1.923053  -0.413775  1.144181
H    -0.692787  1.006810  3.358817
C    -2.822376  0.802106  3.154743
C    -3.143710  1.436567  4.471729
N    -4.348158  2.064661  4.727864
C    -2.417082  1.594821  5.638883
C    -4.289782  2.559228  6.003155
N    -3.135607  2.285970  6.577281
H    -3.565158  0.029233  2.874861
H    -2.866362  1.552091  2.346262
H    -5.127509  2.173048  4.086113
H    -1.409636  1.253240  5.865155
H    -5.114138  3.102872  6.453874
N    -2.086597  -1.578250  4.699543
C    -1.952833  -2.629708  5.707867
H    -3.027258  -1.224652  4.531503
H    -0.924109  -2.994414  5.724008
H    -2.635458  -3.450267  5.461102
H    -2.219225  -2.224482  6.693145
Ca    2.058319  -0.669790  3.670843
