30
Energy: -38163.334435 eV PBE+vdW (tier 2 basis)
C    -0.754519  -0.126183  0.065403
C    -0.455613  0.022017  1.518252
O    0.675795  0.473006  1.903053
H    -1.731800  -0.578948  -0.130257
H    0.029881  -0.725115  -0.415342
H    -0.722693  0.870536  -0.399069
N    -1.392837  -0.311645  2.407167
C    -1.347224  -0.080711  3.861312
C    -0.418618  -1.091390  4.577886
O    0.845280  -0.897088  4.511403
H    -2.273098  -0.697792  2.058549
H    -0.854956  0.891568  4.017805
C    -2.779730  0.041765  4.407385
C    -3.685613  -1.118868  4.105434
N    -5.021358  -1.101298  4.453941
C    -3.521098  -2.341263  3.459339
C    -5.582352  -2.273334  4.023084
N    -4.699317  -3.040655  3.420079
H    -3.203391  0.968022  3.985296
H    -2.706958  0.222945  5.492352
H    -5.507630  -0.355814  4.943873
H    -2.624409  -2.768117  3.015008
H    -6.630557  -2.508716  4.180078
N    -0.941578  -2.087621  5.255490
C    -0.201763  -3.098702  6.009763
H    -1.962841  -2.198060  5.190057
H    -0.623868  -3.169123  7.018797
H    0.851997  -2.819094  6.068096
H    -0.303377  -4.073402  5.515617
Ca    2.224245  0.171080  3.301150
