30
Energy: -38162.5910247 eV PBE+vdW (tier 2 basis)
C    -0.562733  1.308305  1.543873
C    0.057342  -0.045886  1.364268
O    1.312715  -0.118435  1.112544
H    -1.212823  1.355992  2.427420
H    -1.165497  1.582894  0.664942
H    0.233963  2.050442  1.647383
N    -0.603091  -1.222474  1.406517
C    -2.057072  -1.262419  1.474669
C    -2.405812  -2.023409  2.750219
O    -1.406272  -2.611957  3.346956
H    -0.612216  -2.277707  2.808622
H    -2.497938  -0.258490  1.563162
C    -2.720106  -1.939723  0.187673
C    -1.762507  -2.852347  -0.482936
N    -1.468012  -4.135890  -0.072239
C    -0.743254  -2.524947  -1.357761
C    -0.296608  -4.522015  -0.656721
N    0.188238  -3.550815  -1.429731
H    -2.979333  -1.134102  -0.509367
H    -3.659506  -2.441335  0.452429
H    -2.051583  -4.730754  0.511203
H    -0.651686  -1.623597  -1.962069
H    0.140161  -5.507748  -0.524910
N    -3.593139  -2.127530  3.287893
C    -4.849328  -1.514869  2.842508
H    -3.634992  -2.671864  4.153297
H    -5.341500  -1.065826  3.712299
H    -5.512278  -2.277580  2.415274
H    -4.660844  -0.732533  2.102772
Ca    1.400712  -2.050383  0.150813
