30
Energy: -38162.3558428 eV PBE+vdW (tier 2 basis)
C    0.195421  1.317536  0.796443
C    0.086371  0.022636  1.572071
O    1.051542  -0.555452  2.016696
H    -0.682910  1.583826  0.194915
H    1.066929  1.236483  0.136273
H    0.416619  2.135470  1.496746
N    -1.188010  -0.595716  1.734386
C    -2.523384  -0.028431  1.702111
C    -3.138948  -0.063486  0.277370
O    -4.347866  0.315529  0.060512
H    -1.083456  -1.429081  2.312558
H    -3.160612  -0.732780  2.262269
C    -2.614218  1.341080  2.466058
C    -3.972009  1.952110  2.476111
N    -4.253522  3.168258  1.896862
C    -5.211428  1.441902  2.833430
C    -5.604950  3.346725  1.865172
N    -6.225577  2.300143  2.414231
H    -2.280656  1.134661  3.492661
H    -1.895947  2.052540  2.043811
H    -3.563784  3.844891  1.574180
H    -5.428557  0.546760  3.413826
H    -6.085363  4.241438  1.478974
N    -2.391878  -0.580651  -0.669452
C    -2.758164  -0.798235  -2.064420
H    -1.480484  -0.912517  -0.335927
H    -3.696453  -0.285029  -2.286511
H    -2.867779  -1.873308  -2.256463
H    -1.963685  -0.405659  -2.709315
Ca    -6.340452  0.810201  0.567088
