30
Energy: -38164.0577058 eV PBE+vdW (tier 2 basis)
C    -0.324939  0.260600  0.238504
C    -0.134824  0.117500  1.716632
O    1.015549  0.222026  2.215255
H    -1.359493  0.127889  -0.094038
H    0.316181  -0.468138  -0.275372
H    0.024106  1.257613  -0.064695
N    -1.243682  -0.117332  2.453860
C    -1.475413  -0.266324  3.909877
C    -0.710457  0.781130  4.746142
O    0.528038  0.677868  4.983033
H    -2.096791  -0.182476  1.904881
H    -2.541896  -0.036588  4.014077
C    -1.337783  -1.732653  4.441653
C    0.055340  -2.189815  4.711892
N    0.606867  -2.245189  5.974316
C    1.119157  -2.410497  3.856858
C    1.953040  -2.414341  5.854481
N    2.307169  -2.493376  4.572042
H    -1.818388  -2.388645  3.702265
H    -1.946405  -1.809905  5.353833
H    0.099640  -2.173238  6.853260
H    1.098330  -2.540386  2.778479
H    2.622961  -2.498916  6.705084
N    -1.399248  1.798239  5.254456
C    -2.823249  2.127779  5.109585
H    -0.836239  2.438046  5.815617
H    -2.996197  3.083683  5.611713
H    -3.460848  1.374667  5.589350
H    -3.099757  2.246231  4.055263
Ca    2.313231  -0.084453  3.924697
