30
Energy: -38162.9981057 eV PBE+vdW (tier 2 basis)
C    -0.100426  -0.536975  0.200561
C    -0.202607  0.020251  1.579180
O    0.811881  0.549328  2.139128
H    0.707307  -1.279917  0.162298
H    0.183801  0.276325  -0.483186
H    -1.030287  -0.992619  -0.154673
N    -1.380385  -0.032443  2.215779
C    -1.687836  0.608041  3.505231
C    -1.077005  -0.216593  4.668832
O    0.150907  0.036367  4.948835
H    -2.157137  -0.462139  1.717377
H    -1.114670  1.547177  3.535143
C    -3.171069  0.993083  3.558332
C    -3.502933  1.672824  4.846320
N    -4.792896  1.980078  5.233698
C    -2.710565  2.138605  5.882168
C    -4.718240  2.601824  6.452371
N    -3.472742  2.703220  6.870086
H    -3.806463  0.107635  3.396197
H    -3.353695  1.659302  2.697507
H    -5.642498  1.820622  4.700922
H    -1.627619  2.118181  5.973247
H    -5.599214  2.954100  6.979817
N    -1.687698  -1.180315  5.330023
C    -3.076374  -1.644173  5.281853
H    -1.103762  -1.599956  6.054922
H    -3.374056  -1.900497  4.259965
H    -3.745104  -0.879998  5.698801
H    -3.144516  -2.548161  5.892614
Ca    1.869207  0.785401  3.961409
