30
Energy: -38163.198761 eV PBE+vdW (tier 2 basis)
C    0.613413  -0.603256  1.196287
C    -0.071870  -0.604440  2.525199
O    0.098183  -1.604142  3.319369
H    0.441738  0.317327  0.630121
H    0.241290  -1.453995  0.607430
H    1.693154  -0.750758  1.330203
N    -0.836058  0.428322  2.833577
C    -1.775697  0.637712  3.933159
C    -2.819492  1.615684  3.290920
O    -2.464253  2.219012  2.273551
H    -1.024089  1.174699  2.125201
H    -2.224533  -0.320823  4.224799
C    -1.128389  1.324992  5.177614
C    -0.000543  0.513763  5.709778
N    1.324595  0.784354  5.448067
C    0.011068  -0.727472  6.315342
C    2.082760  -0.267936  5.843805
N    1.310507  -1.223654  6.370681
H    -1.899824  1.447295  5.948817
H    -0.794343  2.334041  4.899811
H    1.684096  1.653183  5.057409
H    -0.826970  -1.258473  6.762874
H    3.165467  -0.293484  5.767052
N    -4.013408  1.780851  3.878193
C    -4.567182  1.127085  5.058231
H    -4.597069  2.476462  3.415207
H    -5.643028  0.983437  4.911744
H    -4.421484  1.730421  5.965523
H    -4.123730  0.135870  5.204484
Ca    0.805692  -2.874078  4.812551
