30
Energy: -38164.2328575 eV PBE+vdW (tier 2 basis)
C    -0.376965  2.065880  -0.876416
C    -1.098452  1.278980  0.174232
O    -0.540751  0.283884  0.706902
H    -0.980400  2.855237  -1.336302
H    0.515354  2.520876  -0.423383
H    -0.019653  1.380240  -1.655688
N    -2.342504  1.694847  0.499826
C    -3.329702  1.211660  1.488863
C    -2.772290  1.160728  2.928463
O    -1.793214  0.438613  3.263701
H    -2.649691  2.516834  -0.012850
H    -4.096206  1.997472  1.482563
C    -4.108947  -0.084230  1.061727
C    -3.276006  -1.311411  0.952892
N    -2.676284  -1.751122  -0.208685
C    -2.732551  -2.105882  1.945425
C    -1.758489  -2.704185  0.110597
N    -1.745580  -2.930162  1.423678
H    -4.614666  0.139708  0.112379
H    -4.904223  -0.241472  1.804095
H    -2.890066  -1.432676  -1.150565
H    -3.020762  -2.153132  2.993295
H    -1.141701  -3.209623  -0.626157
N    -3.409572  1.903901  3.826554
C    -3.052400  1.947068  5.247589
H    -4.174988  2.496031  3.518037
H    -2.079838  2.436288  5.382703
H    -3.819561  2.515652  5.779207
H    -3.004108  0.931548  5.655861
Ca    -0.409785  -1.052548  2.405456
