30
Energy: -38162.8551859 eV PBE+vdW (tier 2 basis)
C    0.219104  -0.291420  0.267687
C    -0.055977  -0.167354  1.735296
O    0.811868  -0.178992  2.614129
H    0.581496  0.678133  -0.103803
H    -0.663320  -0.577661  -0.315616
H    1.023515  -1.017763  0.108995
N    -1.368146  -0.034668  2.143743
C    -1.552297  0.309362  3.533048
C    -0.744623  -0.609637  4.471957
O    -0.180651  -0.067537  5.497589
H    -2.116844  0.112287  1.473667
H    -1.105686  1.300135  3.725209
C    -3.054429  0.401973  3.940673
C    -3.108360  0.789926  5.383114
N    -3.439087  -0.071303  6.405121
C    -2.535290  1.877433  6.018089
C    -3.029676  0.461872  7.586654
N    -2.450689  1.648819  7.388030
H    -3.580340  -0.545571  3.763376
H    -3.538909  1.164578  3.314382
H    -3.936009  -0.953613  6.301612
H    -2.230869  2.824754  5.575754
H    -3.189675  -0.015561  8.548699
N    -0.769541  -1.933888  4.405496
C    -1.285848  -2.813781  3.354269
H    -0.170028  -2.383475  5.096894
H    -2.218025  -2.429901  2.935395
H    -1.476003  -3.794924  3.800329
H    -0.547384  -2.927834  2.549728
Ca    -0.115317  1.333077  7.043134
