30
Energy: -38162.9254562 eV PBE+vdW (tier 2 basis)
C    1.743569  0.268342  1.019531
C    0.719274  -0.248146  1.978276
O    0.769727  -1.473001  2.346670
H    1.575794  1.308448  0.722336
H    1.778054  -0.369099  0.126775
H    2.729725  0.191677  1.501359
N    -0.211269  0.603926  2.399814
C    -1.215772  0.623379  3.470834
C    -1.831851  -0.692143  3.936302
O    -1.924142  -1.734808  3.209517
H    -0.145252  1.561875  2.017343
H    -0.723629  1.075665  4.349020
C    -2.369396  1.590755  3.018613
C    -1.836637  2.867307  2.452832
N    -2.399540  3.507876  1.363166
C    -0.759428  3.670115  2.807193
C    -1.670973  4.642218  1.132172
N    -0.666401  4.756363  1.978682
H    -3.008110  1.772147  3.896467
H    -2.991804  1.069498  2.275460
H    -3.243294  3.234511  0.868836
H    -0.060074  3.537551  3.629894
H    -1.918030  5.341186  0.338990
N    -2.360495  -0.661055  5.151344
C    -3.141977  -1.737100  5.763922
H    -2.230566  0.183560  5.704522
H    -3.618950  -2.335885  4.983363
H    -3.913769  -1.290768  6.398900
H    -2.499932  -2.373764  6.386917
Ca    -0.520847  -3.112631  2.405949
