30
Energy: -38163.1651164 eV PBE+vdW (tier 2 basis)
C    0.001801  -0.368304  -0.270269
C    0.000590  0.045217  1.163597
O    1.074261  0.457771  1.713361
H    0.251072  0.512748  -0.880620
H    -0.957533  -0.772669  -0.609092
H    0.793192  -1.108075  -0.445796
N    -1.148302  -0.015986  1.846091
C    -1.460548  0.547446  3.174449
C    -0.919351  -0.361173  4.305683
O    0.343417  -0.586973  4.340972
H    -1.951552  -0.373556  1.331893
H    -0.886520  1.484060  3.272700
C    -2.983008  0.877838  3.148660
C    -3.620001  1.304685  4.425792
N    -3.362833  2.487141  5.096361
C    -4.541762  0.642971  5.223155
C    -4.132188  2.485192  6.233262
N    -4.839796  1.380680  6.340067
H    -3.528332  -0.016675  2.807053
H    -3.117553  1.638168  2.362310
H    -2.813973  3.272039  4.760521
H    -5.039514  -0.303338  5.018907
H    -4.135184  3.314996  6.933660
N    -1.737599  -0.835837  5.211602
C    -1.368529  -1.663062  6.358694
H    -2.708779  -0.475039  5.189068
H    -1.602297  -1.120907  7.283437
H    -0.304515  -1.903765  6.323057
H    -1.959428  -2.586713  6.336569
Ca    2.174762  -0.052878  3.443857
