30
Energy: -38162.4182169 eV PBE+vdW (tier 2 basis)
C    -0.004231  -0.325099  -0.104709
C    0.184891  -0.356716  1.374387
O    1.348881  -0.614404  1.862045
H    0.829036  0.245870  -0.536388
H    -0.946203  0.136267  -0.414332
H    0.057428  -1.339786  -0.524910
N    -0.823784  -0.112767  2.213015
C    -2.232862  -0.466125  1.965021
C    -3.320034  0.645982  2.004512
O    -4.177010  0.563609  1.135622
H    -0.543290  -0.037526  3.190493
H    -2.292232  -0.804050  0.925957
C    -2.618863  -1.684800  2.881289
C    -1.554669  -2.724979  2.788290
N    -1.393058  -3.580628  1.713051
C    -0.365501  -2.820687  3.478436
C    -0.154347  -4.122622  1.751433
N    0.520405  -3.662126  2.812412
H    -3.604088  -2.043799  2.555171
H    -2.725857  -1.365073  3.926437
H    -2.111960  -3.815186  1.030399
H    -0.118379  -2.357907  4.431545
H    0.205951  -4.851234  1.032014
N    -3.316141  1.587837  2.978412
C    -2.380593  1.796948  4.073112
H    -4.084273  2.249748  2.886846
H    -2.837119  2.488090  4.788376
H    -1.433081  2.246825  3.740372
H    -2.183413  0.867985  4.629750
Ca    2.383953  -2.277497  2.654622
