30
Energy: -38164.2329476 eV PBE+vdW (tier 2 basis)
C    -0.495414  2.186317  -0.941793
C    -1.136834  1.356940  0.127938
O    -0.506225  0.394496  0.638830
H    -0.128323  1.524181  -1.736752
H    -1.156175  2.943391  -1.376447
H    0.385939  2.687248  -0.516702
N    -2.392020  1.699438  0.493791
C    -3.319093  1.156904  1.509782
C    -2.716757  1.132687  2.931787
O    -1.687126  0.468443  3.233536
H    -2.761723  2.503884  -0.005266
H    -4.129326  1.897300  1.530648
C    -4.035027  -0.180440  1.099758
C    -3.136013  -1.356729  0.959548
N    -2.547049  -1.756410  -0.221834
C    -2.517328  -2.121620  1.931039
C    -1.566022  -2.655330  0.064603
N    -1.500223  -2.884926  1.375476
H    -4.581373  0.017081  0.167196
H    -4.797017  -0.385928  1.864886
H    -2.807472  -1.447578  -1.155148
H    -2.770463  -2.189457  2.986806
H    -0.943388  -3.121135  -0.693062
N    -3.369362  1.832657  3.853235
C    -2.971997  1.888767  5.263227
H    -4.179074  2.377742  3.572444
H    -3.726176  2.458668  5.811574
H    -2.907635  0.877091  5.679637
H    -1.998307  2.383055  5.365767
Ca    -0.245998  -0.936738  2.326495
