30
Energy: -38163.3336253 eV PBE+vdW (tier 2 basis)
C    -0.646760  0.527676  0.486985
C    -0.488666  0.607956  1.967069
O    0.529368  1.185718  2.478274
H    -0.721400  1.550758  0.089679
H    -1.530129  -0.039884  0.177318
H    0.251228  0.079555  0.041997
N    -1.432867  0.078256  2.746746
C    -1.536052  0.203853  4.210863
C    -0.526468  -0.714505  4.942134
O    0.695603  -0.336707  5.000707
H    -2.215912  -0.402247  2.297953
H    -1.207582  1.222070  4.470618
C    -3.009054  0.079408  4.635177
C    -3.706381  -1.173138  4.183695
N    -5.052646  -1.372890  4.415501
C    -3.312823  -2.307976  3.479414
C    -5.398358  -2.577816  3.865345
N    -4.367376  -3.163915  3.294617
H    -3.531412  0.964326  4.235570
H    -3.048848  0.188261  5.731456
H    -5.680698  -0.742859  4.906274
H    -2.331172  -2.567907  3.088888
H    -6.408832  -2.971768  3.915717
N    -0.946990  -1.823608  5.506190
C    -0.127004  -2.772979  6.257691
H    -1.932320  -2.073218  5.343772
H    0.869497  -2.356227  6.416678
H    -0.053877  -3.715943  5.700961
H    -0.605750  -2.970009  7.223821
Ca    1.990680  1.005760  3.986890
