30
Energy: -38163.1922576 eV PBE+vdW (tier 2 basis)
C    1.228407  0.628936  1.782219
C    -0.104510  1.228040  2.109791
O    -0.232624  2.201331  2.879024
H    1.896960  1.425836  1.430941
H    1.186644  -0.169352  1.033703
H    1.673730  0.231859  2.704812
N    -1.203043  0.675710  1.523038
C    -2.570633  1.161721  1.700108
C    -2.681219  2.683194  1.465720
O    -3.238732  3.449872  2.319635
H    -1.072253  -0.130965  0.919974
H    -3.134410  0.708357  0.868985
C    -3.285687  0.636615  2.982434
C    -3.173027  1.387636  4.272547
N    -2.025722  1.973231  4.759732
C    -4.153075  1.670481  5.227549
C    -2.327744  2.578096  5.953256
N    -3.621415  2.433550  6.254539
H    -2.927315  -0.392986  3.135361
H    -4.357744  0.543538  2.763183
H    -1.141072  2.040844  4.178454
H    -5.189376  1.339667  5.245980
H    -1.585716  3.082621  6.568256
N    -2.262210  3.197581  0.320849
C    -1.683510  2.534247  -0.849603
H    -2.374050  4.209226  0.255198
H    -2.148664  1.557673  -1.019471
H    -0.598661  2.415340  -0.739250
H    -1.882590  3.161717  -1.723625
Ca    -3.769738  4.017384  4.304660
