30
Energy: -38163.0627237 eV PBE+vdW (tier 2 basis)
C    -0.864922  -0.444770  -0.151817
C    -0.509988  -0.132752  1.261730
O    0.669008  -0.358149  1.689353
H    -0.057719  -0.132073  -0.823923
H    -1.810840  0.004731  -0.471926
H    -0.958391  -1.539495  -0.236109
N    -1.456848  0.389651  2.054518
C    -1.513225  0.461444  3.524614
C    -0.597493  1.524988  4.125537
O    0.669213  1.463031  3.963375
H    -2.358538  0.509099  1.600916
H    -2.549931  0.746087  3.731737
C    -1.266627  -0.926925  4.236150
C    -1.926615  -2.061146  3.546311
N    -3.271239  -2.379745  3.647257
C    -1.433604  -2.938256  2.595150
C    -3.507968  -3.421371  2.789668
N    -2.416696  -3.770011  2.135012
H    -1.599334  -0.811744  5.278929
H    -0.188772  -1.132536  4.281782
H    -3.935947  -2.014063  4.321848
H    -0.408556  -3.031794  2.245943
H    -4.484340  -3.886677  2.694742
N    -1.103910  2.474118  4.895568
C    -2.508867  2.749534  5.224143
H    -0.406848  3.087275  5.320192
H    -2.918039  1.980945  5.891543
H    -3.117870  2.831537  4.316699
H    -2.547708  3.710499  5.744422
Ca    2.184614  0.414569  2.915634
