30
Energy: -38162.9500214 eV PBE+vdW (tier 2 basis)
C    -0.344973  0.792806  0.327704
C    -0.213092  0.411640  1.760650
O    0.929547  0.406098  2.329961
H    0.353758  0.203852  -0.280249
H    -0.049775  1.847990  0.222726
H    -1.361445  0.671301  -0.059893
N    -1.310593  0.096135  2.456952
C    -1.352918  -0.089144  3.917218
C    -0.726954  -1.442121  4.320364
O    0.524828  -1.435546  4.595321
H    -2.206452  0.202200  1.984171
H    -0.660416  0.649372  4.351694
C    -2.741244  0.252830  4.472776
C    -2.981738  1.727305  4.372920
N    -4.166178  2.325055  4.756277
C    -2.190310  2.777064  3.937509
C    -4.033954  3.671888  4.545890
N    -2.850800  3.971254  4.049505
H    -2.779523  -0.088752  5.521584
H    -3.523088  -0.311598  3.939725
H    -4.982801  1.864907  5.146076
H    -1.177035  2.751004  3.544436
H    -4.828848  4.375926  4.771129
N    -1.387122  -2.583537  4.387139
C    -2.785003  -2.902623  4.076470
H    -0.813447  -3.365726  4.707251
H    -3.122479  -2.363549  3.186739
H    -3.438548  -2.678488  4.928209
H    -2.841224  -3.974992  3.867215
Ca    2.204528  -0.369019  3.821913
