30
Energy: -38163.2895635 eV PBE+vdW (tier 2 basis)
C    -3.747078  -0.372507  1.185608
C    -2.716617  -0.630811  2.240392
O    -3.012764  -0.990196  3.393795
H    -4.425555  -1.233612  1.132850
H    -3.327896  -0.174934  0.193365
H    -4.356659  0.488600  1.493799
N    -1.401372  -0.485352  1.885290
C    -0.291301  -0.631665  2.822866
C    -0.281520  -2.039616  3.462927
O    0.059595  -2.221116  4.676028
H    -1.189596  -0.114048  0.963460
H    0.610121  -0.617518  2.190394
C    -0.098585  0.569616  3.807929
C    -0.645673  0.497047  5.197125
N    -1.901396  0.041417  5.525800
C    -0.051891  0.829167  6.417023
C    -2.035209  0.098437  6.888316
N    -0.916840  0.550808  7.464574
H    -0.513689  1.454829  3.302888
H    0.976890  0.766193  3.902799
H    -2.553284  -0.340796  4.785401
H    0.921871  1.282776  6.590693
H    -2.952261  -0.168665  7.408583
N    -0.553280  -3.059939  2.672582
C    -0.533900  -4.465847  3.077697
H    -0.842973  -2.842798  1.721474
H    0.325367  -4.654844  3.728508
H    -0.446187  -5.083799  2.179845
H    -1.462343  -4.728836  3.601656
Ca    -0.089978  -1.685993  6.736334
