30
Energy: -38164.160242 eV PBE+vdW (tier 2 basis)
C    0.133017  0.383445  0.462275
C    -0.127991  -0.230433  1.802808
O    0.824442  -0.412498  2.605052
H    0.569325  1.380829  0.612651
H    -0.756950  0.474661  -0.168682
H    0.888631  -0.216104  -0.062840
N    -1.408903  -0.557951  2.082764
C    -2.078603  -1.124092  3.278864
C    -1.601611  -0.491064  4.605856
O    -0.475175  -0.744010  5.116627
H    -2.057838  -0.349965  1.328337
H    -3.123864  -0.816364  3.142717
C    -2.128663  -2.690134  3.304045
C    -0.892833  -3.349706  3.814116
N    -0.764373  -3.836700  5.097860
C    0.385808  -3.401771  3.292223
C    0.551805  -4.090428  5.337853
N    1.290287  -3.810586  4.264193
H    -2.347860  -3.025148  2.280653
H    -2.996124  -2.982979  3.912154
H    -1.522847  -3.992011  5.757829
H    0.704020  -3.195914  2.274097
H    0.921841  -4.492794  6.276215
N    -2.472223  0.309002  5.212102
C    -2.228689  0.987302  6.486702
H    -3.358502  0.495632  4.750881
H    -1.546584  0.387433  7.095072
H    -3.182431  1.105706  7.009722
H    -1.788233  1.978192  6.315134
Ca    1.540121  -1.339548  4.424722
