30
Energy: -38162.4140212 eV PBE+vdW (tier 2 basis)
C    0.056630  0.583184  -0.004355
C    -0.252315  -0.014448  1.322395
O    0.611639  0.022414  2.267956
H    0.937651  0.045734  -0.392442
H    0.359166  1.634609  0.088297
H    -0.750142  0.485114  -0.735293
N    -1.431077  -0.629536  1.557043
C    -2.723359  -0.045358  1.219282
C    -2.929399  1.196017  2.136485
O    -2.050329  1.510369  3.011388
H    -1.438452  -1.230219  2.383484
H    -2.695479  0.302652  0.175224
C    -3.848762  -1.088912  1.366634
C    -3.598634  -2.280795  0.504125
N    -4.262900  -3.481483  0.671134
C    -2.772326  -2.490123  -0.589428
C    -3.824236  -4.330653  -0.308856
N    -2.919038  -3.758193  -1.078041
H    -4.803922  -0.601091  1.106267
H    -3.942773  -1.373183  2.430480
H    -4.979342  -3.691954  1.358743
H    -2.074002  -1.800481  -1.054900
H    -4.197854  -5.344918  -0.409145
N    -4.025169  1.911801  1.986344
C    -4.368090  3.100477  2.776996
H    -4.683479  1.625268  1.264979
H    -5.368597  3.429316  2.485316
H    -3.653097  3.908338  2.580224
H    -4.365018  2.858438  3.845626
Ca    -0.085547  1.255197  3.870952
