30
Energy: -38163.3342233 eV PBE+vdW (tier 2 basis)
C    -0.768016  0.024205  0.178391
C    -0.457960  0.125399  1.632935
O    0.676094  0.564674  2.023508
H    0.012272  -0.559276  -0.327416
H    -0.739090  1.035340  -0.253991
H    -1.747060  -0.421650  -0.024246
N    -1.388007  -0.237963  2.517681
C    -1.331140  -0.055804  3.978273
C    -0.396303  -1.089212  4.653029
O    0.866912  -0.891764  4.583467
H    -2.270557  -0.613995  2.163664
H    -0.838713  0.911294  4.163694
C    -2.759654  0.045913  4.539166
C    -3.667359  -1.103416  4.201194
N    -5.002241  -1.096164  4.553388
C    -3.505730  -2.303971  3.514573
C    -5.565534  -2.252678  4.085260
N    -4.684758  -3.000436  3.454985
H    -3.186826  0.986563  4.154185
H    -2.679038  0.187479  5.629459
H    -5.486571  -0.366710  5.068705
H    -2.610556  -2.716728  3.054156
H    -6.613670  -2.492004  4.236654
N    -0.913616  -2.108478  5.300115
C    -0.167829  -3.144886  6.012932
H    -1.935321  -2.216896  5.239385
H    0.887829  -2.871312  6.064908
H    -0.280706  -4.103484  5.490562
H    -0.576084  -3.244666  7.025231
Ca    2.235231  0.218625  3.399152
