30
Energy: -38163.4981386 eV PBE+vdW (tier 2 basis)
C    -0.947194  -1.033097  3.619688
C    -0.343628  0.049810  2.798570
O    0.888096  0.070444  2.522010
H    -0.544107  -2.013394  3.343612
H    -2.041894  -1.036097  3.604048
H    -0.639791  -0.843838  4.662614
N    -1.122758  1.090991  2.361719
C    -2.333630  0.912147  1.557858
C    -2.197135  -0.394116  0.730279
O    -1.059292  -0.769375  0.318549
H    -0.541428  1.864553  2.044328
H    -3.232567  0.875048  2.190186
C    -2.466294  2.150562  0.592716
C    -1.364209  2.136694  -0.418513
N    -1.485545  1.571536  -1.671347
C    0.003870  2.271363  -0.236864
C    -0.243380  1.322908  -2.165212
N    0.695449  1.709925  -1.302789
H    -2.436947  3.059930  1.209247
H    -3.454786  2.129586  0.116775
H    -2.358289  1.395609  -2.163815
H    0.535007  2.813116  0.544345
H    -0.065562  0.887179  -3.143822
N    -3.312824  -1.057766  0.466272
C    -3.408475  -2.290724  -0.318757
H    -4.174572  -0.709728  0.882619
H    -4.178498  -2.174499  -1.089947
H    -3.685837  -3.126453  0.335715
H    -2.442671  -2.496849  -0.784815
Ca    1.110889  -0.136465  0.305732
