30
Energy: -38163.1831158 eV PBE+vdW (tier 2 basis)
C    0.655342  -0.503907  0.639282
C    0.096645  0.590250  1.495115
O    0.908316  1.417680  2.062013
H    1.292350  -1.147026  1.263248
H    -0.120327  -1.121108  0.175680
H    1.292720  -0.081345  -0.149188
N    -1.214146  0.653425  1.630727
C    -2.094743  1.410942  2.521033
C    -3.336916  0.452025  2.628942
O    -3.462404  -0.410717  1.756601
H    -1.810812  -0.087459  1.192705
H    -1.609528  1.551326  3.497652
C    -2.547617  2.783873  1.928134
C    -1.440402  3.777895  1.965337
N    -1.150066  4.558542  3.067925
C    -0.364479  3.954217  1.124498
C    0.065538  5.132672  2.901832
N    0.591107  4.768307  1.725121
H    -3.418329  3.143182  2.494040
H    -2.888719  2.630968  0.895880
H    -1.771753  4.731802  3.854846
H    -0.236480  3.556602  0.120925
H    0.507926  5.825544  3.611111
N    -4.188756  0.670426  3.638279
C    -5.409265  -0.115142  3.840713
H    -3.946603  1.353347  4.348493
H    -6.258359  0.557253  4.005722
H    -5.297733  -0.780795  4.705405
H    -5.586664  -0.715551  2.944825
Ca    2.170157  3.081771  1.947107
