30
Energy: -38164.159645 eV PBE+vdW (tier 2 basis)
C    2.067077  0.671706  1.205211
C    0.920813  0.212760  2.052209
O    1.141130  -0.301634  3.179518
H    2.635016  1.428481  1.764005
H    2.747223  -0.174436  1.038402
H    1.769269  1.090151  0.238420
N    -0.319154  0.386219  1.543538
C    -1.681773  0.120101  2.065204
C    -1.865857  0.539798  3.541587
O    -1.372478  -0.113570  4.502586
H    -0.326062  0.812820  0.620746
H    -2.309016  0.794345  1.467021
C    -2.222830  -1.314041  1.740051
C    -1.766783  -2.383405  2.673288
N    -2.541416  -2.877524  3.701557
C    -0.509026  -2.908955  2.901071
C    -1.746087  -3.600823  4.537359
N    -0.489179  -3.620069  4.094321
H    -1.921505  -1.549597  0.709822
H    -3.320506  -1.258545  1.730498
H    -3.542209  -2.736676  3.818006
H    0.371544  -2.840649  2.268521
H    -2.114984  -4.107717  5.424103
N    -2.620327  1.613989  3.748092
C    -2.940541  2.166211  5.065638
H    -2.978981  2.113748  2.938866
H    -2.229637  2.959992  5.329946
H    -2.893233  1.371472  5.814502
H    -3.950665  2.586459  5.036222
Ca    0.376176  -1.418614  4.867689
