30
Energy: -38162.1188408 eV PBE+vdW (tier 2 basis)
C    -0.081689  -0.950645  0.171631
C    0.025253  -0.337179  1.548958
O    1.021850  -0.372564  2.237877
H    -0.263989  -0.196795  -0.608695
H    0.870348  -1.441312  -0.047872
H    -0.880363  -1.704395  0.110984
N    -1.106949  0.331656  2.060571
C    -2.414027  0.455562  1.472730
C    -2.924845  1.905767  1.584333
O    -4.136197  2.160639  1.942054
H    -0.978015  0.626073  3.027784
H    -2.311164  0.257179  0.392071
C    -3.367548  -0.618700  2.084276
C    -4.789086  -0.643391  1.630224
N    -5.832331  -0.936011  2.495417
C    -5.422361  -0.329871  0.430457
C    -7.023325  -0.800658  1.816710
N    -6.802324  -0.394584  0.569482
H    -3.338574  -0.520363  3.179365
H    -2.898958  -1.589099  1.860797
H    -5.725839  -1.313203  3.437974
H    -4.968144  -0.076417  -0.524412
H    -7.991589  -1.031208  2.255411
N    -2.128125  2.924256  1.312081
C    -0.750208  2.954431  0.799067
H    -2.561192  3.834748  1.468246
H    -0.025643  2.774639  1.601185
H    -0.610296  2.213854  0.006673
H    -0.583393  3.950675  0.378702
Ca    -6.192265  1.770464  1.681769
