30
Energy: -38164.1598503 eV PBE+vdW (tier 2 basis)
C    2.080968  0.749832  1.067977
C    0.980734  0.281901  1.969264
O    1.260004  -0.256679  3.071929
H    1.732315  1.193236  0.129739
H    2.688140  1.488124  1.609946
H    2.741440  -0.098442  0.842914
N    -0.284587  0.474165  1.535289
C    -1.617014  0.206287  2.128949
C    -1.712963  0.603783  3.619700
O    -1.172155  -0.069105  4.540878
H    -0.340600  0.919409  0.623057
H    -2.273059  0.893555  1.578405
C    -2.184884  -1.219235  1.811966
C    -1.685846  -2.307086  2.700878
N    -2.405058  -2.811740  3.763750
C    -0.422447  -2.848079  2.846981
C    -1.570339  -3.556712  4.540103
N    -0.341274  -3.579897  4.025027
H    -1.942547  -1.439900  0.763049
H    -3.281003  -1.156950  1.863985
H    -3.396015  -2.663727  3.940059
H    0.420996  -2.776954  2.165988
H    -1.892807  -4.075448  5.438043
N    -2.442534  1.681995  3.885889
C    -2.678289  2.216194  5.228564
H    -2.842209  2.198154  3.106794
H    -3.672496  2.672590  5.256535
H    -1.926919  2.978057  5.474272
H    -2.624586  1.404238  5.958496
Ca    0.582030  -1.395567  4.782573
