30
Energy: -38163.0258593 eV PBE+vdW (tier 2 basis)
C    -2.256135  -0.422359  -0.296120
C    -1.611379  -0.722524  1.023775
O    -0.584648  -1.375018  1.178296
H    -1.780044  0.471651  -0.725940
H    -3.332766  -0.230874  -0.216509
H    -2.073679  -1.252871  -0.985393
N    -2.245004  -0.221182  2.170684
C    -1.454390  -0.261997  3.380493
C    -1.210870  -1.721305  3.818953
O    -0.148447  -2.027753  4.467711
H    -2.959155  0.495730  2.071285
H    -0.442027  0.124361  3.173699
C    -2.082071  0.608194  4.510331
C    -1.230339  0.492442  5.731376
N    -1.595812  -0.194543  6.866321
C    0.126826  0.717422  5.883083
C    -0.491267  -0.415072  7.628564
N    0.589449  0.112355  7.048456
H    -3.114462  0.295080  4.719363
H    -2.120968  1.650064  4.161600
H    -2.543611  -0.472690  7.113203
H    0.777898  1.324009  5.255159
H    -0.514491  -0.925627  8.586708
N    -2.150585  -2.606228  3.566720
C    -2.075700  -4.040452  3.833093
H    -2.912160  -2.263309  2.978873
H    -3.088868  -4.427442  3.977476
H    -1.484788  -4.222225  4.734681
H    -1.610717  -4.557061  2.982581
Ca    1.543208  -1.514774  5.602479
