30
Energy: -38163.1827025 eV PBE+vdW (tier 2 basis)
C    0.783762  -0.457793  0.757062
C    0.177678  0.608953  1.615229
O    0.956032  1.421663  2.246506
H    1.459153  -0.010344  0.015374
H    1.390374  -1.117827  1.393556
H    0.035309  -1.062691  0.236060
N    -1.138579  0.664354  1.686293
C    -2.065754  1.394023  2.552244
C    -3.308674  0.430305  2.569638
O    -3.386794  -0.407856  1.668328
H    -1.709393  -0.065056  1.197589
H    -1.631057  1.507098  3.555833
C    -2.492754  2.782628  1.976844
C    -1.393038  3.777931  2.100390
N    -1.162718  4.525628  3.239373
C    -0.276291  3.982402  1.321430
C    0.057409  5.107732  3.153066
N    0.643937  4.780464  1.994394
H    -3.393073  3.123052  2.506958
H    -2.779286  2.659141  0.924262
H    -1.824563  4.673489  3.998215
H    -0.095464  3.615569  0.314262
H    0.460064  5.780114  3.904484
N    -4.211948  0.619353  3.539488
C    -5.439145  -0.173131  3.656511
H    -4.008173  1.281804  4.280458
H    -5.573378  -0.741446  2.732607
H    -6.296006  0.493128  3.805205
H    -5.367352  -0.869132  4.501324
Ca    2.215722  3.091444  2.247018
