30
Energy: -38161.5588571 eV PBE+vdW (tier 2 basis)
C    -0.227743  0.083508  -0.166829
C    -0.324388  0.269131  1.307549
O    0.661853  0.900780  1.916507
H    0.611693  -0.588041  -0.398836
H    -0.014214  1.048555  -0.645611
H    -1.139058  -0.335565  -0.601881
N    -1.318055  -0.145670  2.035040
C    -2.568025  -0.816944  1.676791
C    -3.417917  -0.555862  2.965886
O    -2.820629  -0.078510  3.950937
H    -1.425865  0.075199  3.075036
H    -3.027155  -0.320906  0.810925
C    -2.364676  -2.330193  1.384868
C    -3.635269  -2.982263  0.947728
N    -4.128035  -4.146163  1.501986
C    -4.587568  -2.617340  0.003921
C    -5.313751  -4.431308  0.879277
N    -5.618833  -3.517602  -0.023531
H    -1.969500  -2.812837  2.290645
H    -1.587544  -2.433374  0.610691
H    -3.677690  -4.715015  2.211878
H    -4.574806  -1.764201  -0.669850
H    -5.902860  -5.310480  1.120772
N    -4.710594  -0.862007  2.915594
C    -5.630369  -0.696504  4.039731
H    -5.059655  -1.294192  2.059604
H    -6.548015  -0.211774  3.689211
H    -5.152506  -0.074462  4.800822
H    -5.883983  -1.671054  4.475880
Ca    2.101245  1.918095  2.830302
