30
Energy: -38162.4067425 eV PBE+vdW (tier 2 basis)
C    -0.030875  -1.265401  0.447080
C    -0.002467  0.013078  1.253993
O    0.954621  0.752328  1.282691
H    -0.176882  -1.016829  -0.613685
H    0.959634  -1.728543  0.522021
H    -0.790957  -1.995848  0.751639
N    -1.119859  0.346124  2.076354
C    -2.508647  -0.061297  1.969361
C    -2.789689  -1.366558  2.760317
O    -3.954727  -1.907033  2.782244
H    -0.964073  1.260347  2.500189
H    -3.083200  0.692713  2.533791
C    -3.045172  -0.014727  0.489476
C    -4.507746  -0.244973  0.378619
N    -5.472495  0.621840  0.846326
C    -5.203629  -1.394959  0.052008
C    -6.675520  -0.018036  0.857475
N    -6.548332  -1.263450  0.394620
H    -2.530966  -0.759870  -0.126826
H    -2.762046  0.972060  0.097262
H    -5.327614  1.596904  1.102469
H    -4.824065  -2.278907  -0.459257
H    -7.602985  0.452164  1.171979
N    -1.792104  -1.831836  3.476245
C    -1.809682  -2.977311  4.377900
H    -0.935706  -1.272962  3.391982
H    -2.841251  -3.254817  4.609000
H    -1.291572  -3.828368  3.917009
H    -1.289161  -2.708757  5.303631
Ca    -5.877198  -2.592600  2.244507
