30
Energy: -38163.1729845 eV PBE+vdW (tier 2 basis)
C    2.052713  0.954244  0.793503
C    1.185546  0.271560  1.798101
O    1.713182  -0.296050  2.809018
H    2.728973  0.206463  0.353786
H    1.493004  1.443866  -0.009830
H    2.686287  1.695181  1.298760
N    -0.140105  0.276094  1.602292
C    -1.204484  -0.459870  2.316763
C    -1.444465  0.023032  3.757176
O    -0.525904  -0.044529  4.638325
H    -0.447496  0.769568  0.767967
H    -2.114599  -0.237510  1.744943
C    -1.014762  -2.010049  2.294061
C    -2.080253  -2.700464  3.073448
N    -3.321078  -3.049979  2.565997
C    -2.166931  -2.993471  4.421867
C    -4.063446  -3.545092  3.605431
N    -3.393038  -3.507904  4.741312
H    -0.031223  -2.273704  2.707099
H    -0.988561  -2.327705  1.241881
H    -3.590299  -3.075899  1.586915
H    -1.397703  -2.874891  5.182207
H    -5.070710  -3.927542  3.471806
N    -2.650826  0.456328  4.063354
C    -3.103072  0.791136  5.415914
H    -3.354332  0.454258  3.329168
H    -2.293009  1.273072  5.969611
H    -3.415624  -0.124102  5.937569
H    -3.952615  1.475553  5.340270
Ca    1.494833  -0.608594  4.881285
