30
Energy: -38163.0879584 eV PBE+vdW (tier 2 basis)
C    0.106332  -0.250917  0.214319
C    -0.008120  -0.161271  1.704413
O    1.015402  -0.462752  2.430107
H    0.328718  -1.292375  -0.058785
H    0.944435  0.364554  -0.139677
H    -0.806106  0.061108  -0.302974
N    -1.164744  0.224771  2.207933
C    -1.711091  0.228641  3.565918
C    -3.250470  0.093274  3.289728
O    -3.641622  0.356348  2.149301
H    -1.975735  0.390320  1.565931
H    -1.319234  -0.630958  4.126255
C    -1.441518  1.559111  4.339751
C    -0.025433  1.636543  4.790098
N    0.438913  1.052515  5.953019
C    1.113178  2.008042  4.111240
C    1.793472  1.040173  5.936932
N    2.246769  1.602031  4.809005
H    -2.127923  1.623306  5.194541
H    -1.680148  2.405792  3.683195
H    -0.136738  0.735799  6.730210
H    1.176267  2.557321  3.175246
H    2.403709  0.668907  6.754630
N    -4.067070  -0.266229  4.292116
C    -3.741671  -0.640859  5.662084
H    -5.051193  -0.274548  4.027690
H    -2.743275  -1.089779  5.721202
H    -4.456072  -1.398679  6.000798
H    -3.803654  0.216104  6.348939
Ca    2.885622  0.025710  3.228834
