30
Energy: -38163.093598 eV PBE+vdW (tier 2 basis)
C    -0.470958  1.043044  1.047221
C    -0.104749  -0.347328  1.443630
O    1.105683  -0.754256  1.273572
H    -1.516041  1.295912  1.243723
H    -0.248429  1.212798  -0.014442
H    0.168317  1.733634  1.617115
N    -0.987801  -1.170194  1.992537
C    -2.443412  -1.196558  1.815585
C    -2.913147  -2.377949  2.697013
O    -2.161305  -3.365650  2.772920
H    -0.657120  -2.093702  2.312330
H    -2.896304  -0.245263  2.112433
C    -2.811810  -1.521418  0.305467
C    -1.729581  -2.329478  -0.332285
N    -1.404849  -3.619303  0.036055
C    -0.670052  -1.912105  -1.109970
C    -0.188924  -3.928552  -0.456630
N    0.308242  -2.899466  -1.161843
H    -2.916215  -0.583481  -0.253351
H    -3.788334  -2.022902  0.274175
H    -1.920798  -4.175910  0.721186
H    -0.569574  -0.973534  -1.648121
H    0.285205  -4.895696  -0.319372
N    -4.120051  -2.309996  3.267722
C    -5.056445  -1.183107  3.280009
H    -4.374886  -3.142292  3.797099
H    -5.968732  -1.508880  3.787196
H    -5.336660  -0.875088  2.264710
H    -4.651709  -0.325995  3.834066
Ca    2.144442  -1.857283  -0.194752
