30
Energy: -38163.0256588 eV PBE+vdW (tier 2 basis)
C    -2.331186  -0.379355  -0.167575
C    -1.724034  -0.722077  1.159725
O    -0.751395  -1.450075  1.326637
H    -3.391014  -0.106770  -0.099569
H    -2.205116  -1.223973  -0.852341
H    -1.784679  0.474501  -0.595380
N    -2.328556  -0.169177  2.298602
C    -1.554378  -0.264873  3.515988
C    -1.426209  -1.736701  3.961424
O    -0.395905  -2.120428  4.620784
H    -2.985007  0.599642  2.189766
H    -0.513808  0.042782  3.317325
C    -2.124298  0.654979  4.637088
C    -1.294326  0.480136  5.866116
N    -1.720728  -0.171649  7.000584
C    0.074742  0.601367  6.028754
C    -0.642699  -0.472625  7.773153
N    0.480005  -0.032087  7.200379
H    -3.179195  0.421742  4.837921
H    -2.081180  1.695347  4.284377
H    -2.689046  -0.375264  7.240443
H    0.775493  1.153688  5.404218
H    -0.712920  -0.975803  8.732894
N    -2.428219  -2.548732  3.703668
C    -2.464514  -3.983552  3.975061
H    -3.156149  -2.151314  3.107583
H    -3.505799  -4.293055  4.105518
H    -1.902130  -4.205594  4.885859
H    -2.027200  -4.536791  3.132937
Ca    1.320450  -1.732291  5.768061
