30
Energy: -38163.3341507 eV PBE+vdW (tier 2 basis)
C    -0.810189  0.539995  0.449822
C    -0.584189  0.606146  1.921744
O    0.465429  1.162969  2.390548
H    0.060633  0.084148  -0.039076
H    -0.889321  1.567254  0.064237
H    -1.714230  -0.013422  0.176287
N    -1.501347  0.086478  2.739492
C    -1.537575  0.204107  4.207428
C    -0.512637  -0.735862  4.887975
O    0.717258  -0.379580  4.894048
H    -2.311621  -0.377839  2.323156
H    -1.180540  1.214907  4.458357
C    -2.992425  0.101612  4.695669
C    -3.730295  -1.135657  4.267074
N    -5.068811  -1.313590  4.554890
C    -3.387078  -2.272443  3.539990
C    -5.458673  -2.508736  4.012999
N    -4.463367  -3.108769  3.395373
H    -3.516558  0.998078  4.325247
H    -2.982010  0.203152  5.793316
H    -5.664191  -0.676116  5.075825
H    -2.427635  -2.546688  3.106445
H    -6.472808  -2.885557  4.104215
N    -0.926830  -1.840927  5.464541
C    -0.090346  -2.808235  6.173855
H    -1.922411  -2.073025  5.344414
H    -0.536094  -3.012437  7.154110
H    0.915596  -2.403594  6.301745
H    -0.047137  -3.744921  5.603489
Ca    1.989405  0.946552  3.830785
