30
Energy: -38163.1721241 eV PBE+vdW (tier 2 basis)
C    -0.591181  -1.771647  -0.753977
C    -1.091385  -1.078342  0.469282
O    -2.166058  -1.474186  1.026929
H    -1.351279  -1.674325  -1.543048
H    -0.483621  -2.845081  -0.549327
H    0.359838  -1.376645  -1.125296
N    -0.384990  -0.045872  0.949457
C    -0.727840  0.923213  2.011907
C    -0.755947  0.321126  3.426943
O    -1.572708  -0.608438  3.733083
H    0.460912  0.172299  0.428913
H    0.093255  1.651124  1.985972
C    -2.048322  1.710520  1.736474
C    -2.372255  2.638799  2.855826
N    -1.876316  3.927002  2.973938
C    -3.051510  2.423402  4.040726
C    -2.292506  4.416304  4.183839
N    -2.992563  3.521033  4.854308
H    -2.880718  1.007929  1.591579
H    -1.931256  2.232763  0.776140
H    -1.414651  4.467894  2.248657
H    -3.597852  1.533211  4.345376
H    -2.069048  5.426881  4.511697
N    0.054370  0.839400  4.327821
C    0.041567  0.510697  5.755271
H    0.658029  1.603995  4.036263
H    1.024798  0.740454  6.175247
H    -0.174484  -0.552415  5.889330
H    -0.723875  1.111904  6.265271
Ca    -3.070406  -1.838998  2.894399
