30
Energy: -38163.0220398 eV PBE+vdW (tier 2 basis)
C    0.163626  0.255204  0.162927
C    0.045213  0.055565  1.635632
O    1.081633  -0.219260  2.326199
H    0.444284  -0.708244  -0.289647
H    -0.761599  0.604601  -0.306361
H    0.976427  0.959556  -0.053785
N    -1.162957  0.164062  2.196954
C    -1.610793  -0.213601  3.557267
C    -1.051442  0.706535  4.652863
O    0.186522  0.693251  4.957156
H    -1.917353  0.361689  1.544648
H    -2.698469  -0.064437  3.528025
C    -1.377421  -1.698577  3.906549
C    -2.153847  -2.606058  3.008406
N    -2.043115  -3.983677  3.061932
C    -3.100798  -2.374853  2.025716
C    -2.908768  -4.501809  2.135441
N    -3.555868  -3.551265  1.494025
H    -1.672290  -1.831144  4.962570
H    -0.297425  -1.931257  3.860722
H    -1.469091  -4.525703  3.699384
H    -3.510155  -1.430522  1.674038
H    -3.019602  -5.569845  1.976228
N    -1.913732  1.470920  5.297822
C    -1.602584  2.365589  6.414259
H    -2.886841  1.434581  5.000852
H    -1.704079  3.409374  6.091460
H    -0.582056  2.180845  6.755470
H    -2.307117  2.174316  7.231585
Ca    2.051693  0.056164  4.163660
