30
Energy: -38164.1592937 eV PBE+vdW (tier 2 basis)
C    2.325329  0.719599  1.439454
C    1.104022  0.295935  2.195014
O    1.220721  -0.212584  3.340278
H    2.994579  -0.144689  1.332078
H    2.116117  1.137891  0.449648
H    2.866321  1.466074  2.037418
N    -0.086572  0.493690  1.586928
C    -1.492645  0.261892  1.998004
C    -1.788635  0.710620  3.447197
O    -1.383895  0.068816  4.456155
H    -0.008973  0.911947  0.663589
H    -2.054341  0.937705  1.339573
C    -2.035043  -1.166980  1.651430
C    -1.688141  -2.227698  2.639832
N    -2.558481  -2.678106  3.610099
C    -0.469182  -2.782677  2.980547
C    -1.855631  -3.404841  4.522334
N    -0.567804  -3.468218  4.184806
H    -1.648912  -1.429014  0.656535
H    -3.125999  -1.088547  1.543164
H    -3.560988  -2.507780  3.640735
H    0.461867  -2.751803  2.421586
H    -2.310460  -3.882063  5.385320
N    -2.541219  1.798278  3.574885
C    -2.955680  2.375882  4.854934
H    -2.825870  2.289837  2.732029
H    -3.930840  2.854987  4.725382
H    -2.228357  3.127315  5.189145
H    -3.030460  1.584415  5.605404
Ca    0.294173  -1.273884  4.982496
