30
Energy: -38163.0877153 eV PBE+vdW (tier 2 basis)
C    0.006745  0.056995  0.087524
C    -0.040624  0.110287  1.582920
O    1.044559  -0.090973  2.251443
H    0.312135  -0.954189  -0.217686
H    0.764489  0.754628  -0.293842
H    -0.956044  0.288683  -0.378146
N    -1.204808  0.360539  2.150836
C    -1.677767  0.278216  3.533627
C    -3.204985  -0.022040  3.330068
O    -3.681424  0.219953  2.217808
H    -2.060566  0.448569  1.553322
H    -1.165205  -0.542906  4.052668
C    -1.516612  1.615410  4.325987
C    -0.096980  1.838176  4.712270
N    0.483219  1.287807  5.839068
C    0.960985  2.342629  3.990071
C    1.828967  1.422540  5.760009
N    2.164147  2.049650  4.625260
H    -2.163702  1.588037  5.212828
H    -1.877050  2.443229  3.701751
H    -0.016777  0.896991  6.634662
H    0.919180  2.912642  3.065306
H    2.514455  1.105079  6.539859
N    -3.923686  -0.491539  4.361574
C    -3.487660  -0.858498  5.702601
H    -4.913322  -0.603916  4.145979
H    -4.091427  -1.702488  6.052711
H    -3.612606  -0.031201  6.416688
H    -2.442409  -1.188946  5.700135
Ca    2.886773  0.582633  2.976703
