30
Energy: -38163.0223588 eV PBE+vdW (tier 2 basis)
C    -0.506193  1.424685  -0.455429
C    -0.587438  0.404671  0.627390
O    0.246150  -0.579600  0.639369
H    -0.457253  0.943015  -1.439269
H    0.440877  1.971977  -0.327681
H    -1.322765  2.151761  -0.427678
N    -1.474443  0.486916  1.606780
C    -2.831661  1.027031  1.630548
C    -3.351658  0.535760  3.018822
O    -2.842871  -0.492205  3.490029
H    -1.423479  -0.222337  2.366105
H    -2.834124  2.122449  1.567529
C    -3.756224  0.436274  0.483929
C    -3.233158  -0.838604  -0.097705
N    -2.995021  -1.013874  -1.449073
C    -2.654890  -1.941729  0.494736
C    -2.274813  -2.142421  -1.637442
N    -2.021836  -2.728655  -0.460353
H    -3.853618  1.181692  -0.315994
H    -4.765221  0.298514  0.896984
H    -3.348359  -0.418288  -2.195325
H    -2.668441  -2.195859  1.553183
H    -1.980334  -2.512976  -2.614127
N    -4.347546  1.235761  3.567313
C    -4.997184  0.874471  4.828750
H    -4.636026  2.101812  3.121552
H    -6.079641  0.787731  4.679859
H    -4.796638  1.639994  5.587816
H    -4.594095  -0.083633  5.165877
Ca    0.139902  -2.674334  0.414505
