30
Energy: -38164.0589626 eV PBE+vdW (tier 2 basis)
C    -0.354566  0.168875  0.180152
C    -0.163982  0.090527  1.663027
O    0.993590  0.153297  2.151978
H    0.057813  1.123056  -0.176380
H    -1.397895  0.087778  -0.141350
H    0.233212  -0.626962  -0.296820
N    -1.279890  -0.042614  2.414781
C    -1.510566  -0.106783  3.877119
C    -0.678004  0.930715  4.659462
O    0.552963  0.762618  4.898541
H    -2.138811  -0.085374  1.872684
H    -2.560444  0.192197  3.974211
C    -1.458425  -1.551671  4.478194
C    -0.093514  -2.080299  4.761800
N    0.463316  -2.113075  6.022656
C    0.948518  -2.402561  3.912212
C    1.795939  -2.368357  5.903820
N    2.134854  -2.525315  4.624436
H    -1.985005  -2.211326  3.774204
H    -2.062464  -1.547581  5.396662
H    -0.031900  -1.971650  6.900028
H    0.911670  -2.578745  2.840872
H    2.466058  -2.455524  6.754005
N    -1.300179  2.011774  5.119271
C    -2.701846  2.421243  4.961445
H    -0.696120  2.641771  5.647911
H    -2.976375  2.503436  3.903174
H    -2.812599  3.410098  5.414993
H    -3.382098  1.734203  5.480245
Ca    2.281751  -0.152751  3.868667
