30
Energy: -38164.1348725 eV PBE+vdW (tier 2 basis)
C    0.530079  -1.078134  0.700820
C    0.258734  -0.088616  1.792652
O    1.185768  0.653919  2.208766
H    1.400545  -1.686871  0.977839
H    0.806228  -0.528844  -0.210464
H    -0.314995  -1.736066  0.473371
N    -1.002668  -0.053318  2.278500
C    -1.665936  0.767491  3.311742
C    -1.574639  2.282245  3.046075
O    -0.471766  2.870902  2.858533
H    -1.629629  -0.714958  1.829474
H    -2.721795  0.493577  3.206937
C    -1.313949  0.384320  4.795897
C    0.097124  0.646395  5.186901
N    1.109361  -0.288855  5.137396
C    0.744471  1.845525  5.420966
C    2.301970  0.355561  5.253747
N    2.120488  1.667290  5.402946
H    -1.576895  -0.673656  4.930686
H    -1.991706  0.955256  5.446488
H    0.991505  -1.294515  5.042464
H    0.297789  2.813821  5.635811
H    3.260131  -0.154651  5.239010
N    -2.705448  2.982721  3.057038
C    -4.088434  2.520790  3.231375
H    -2.571773  3.982588  2.904802
H    -4.239417  2.059184  4.214720
H    -4.742019  3.395095  3.167482
H    -4.380284  1.824574  2.435019
Ca    1.697159  2.557231  3.104008
