30
Energy: -38163.2002535 eV PBE+vdW (tier 2 basis)
C    -0.030713  -0.258814  -0.026433
C    -0.251613  -0.440244  1.436696
O    0.372118  -1.357916  2.072040
H    1.044961  -0.124296  -0.206582
H    -0.577137  0.594758  -0.440130
H    -0.330446  -1.172385  -0.558628
N    -1.106094  0.373852  2.056922
C    -1.303683  0.537101  3.505285
C    -2.023125  -0.675452  4.132922
O    -1.352904  -1.732881  4.386337
H    -1.417913  1.201618  1.522315
H    -0.312316  0.557913  3.987786
C    -2.000633  1.918103  3.741008
C    -1.436502  2.995769  2.883069
N    -0.270830  3.694729  3.135757
C    -1.830770  3.415681  1.620094
C    -0.037801  4.501118  2.050853
N    -0.953797  4.341385  1.117886
H    -1.948249  2.153247  4.812973
H    -3.067901  1.853334  3.476414
H    0.250203  3.713485  4.006833
H    -2.735467  3.141667  1.079840
H    0.803756  5.185891  2.006707
N    -3.304406  -0.595554  4.429095
C    -4.103510  -1.654829  5.049917
H    -3.783300  0.275055  4.211146
H    -4.826156  -1.194447  5.731087
H    -3.448553  -2.328107  5.608148
H    -4.646489  -2.218865  4.280316
Ca    0.353268  -2.752911  3.631326
