30
Energy: -38163.2969989 eV PBE+vdW (tier 2 basis)
C    -0.370312  1.688415  0.346442
C    -0.113948  0.906423  1.594748
O    1.098120  0.610893  1.914256
H    -0.024357  1.099745  -0.515390
H    0.214491  2.617577  0.358629
H    -1.428451  1.929026  0.205094
N    -1.151916  0.540722  2.326298
C    -1.259541  -0.373260  3.460736
C    -2.725603  -0.914143  3.311713
O    -3.501924  -0.251214  2.618823
H    -2.123648  0.721469  1.985952
H    -0.514311  -1.175276  3.365978
C    -1.109864  0.335848  4.844607
C    0.207235  1.018769  4.957197
N    0.384504  2.371309  4.764919
C    1.488054  0.504992  5.014523
C    1.710383  2.640053  4.671492
N    2.421858  1.516405  4.807168
H    -1.212591  -0.420094  5.634361
H    -1.937658  1.045830  4.978105
H    -0.358900  3.066569  4.739016
H    1.787271  -0.514437  5.250914
H    2.115273  3.638963  4.540986
N    -3.032046  -2.029713  3.984441
C    -4.369981  -2.627014  3.982522
H    -2.296656  -2.525747  4.477529
H    -4.355580  -3.590456  3.458828
H    -5.051748  -1.945729  3.467212
H    -4.711408  -2.778226  5.012824
Ca    3.010254  0.620303  2.744075
