30
Energy: -38161.4053222 eV PBE+vdW (tier 2 basis)
C    0.328187  -0.149790  0.346936
C    0.075479  -0.209132  1.813216
O    1.021699  0.219257  2.623354
H    1.181981  -0.795030  0.095072
H    0.600364  0.876047  0.062993
H    -0.534215  -0.463886  -0.246766
N    -1.027925  -0.650645  2.346002
C    -2.244267  -1.200951  1.743134
C    -3.253511  -1.044065  2.917984
O    -2.761910  -1.003761  4.062209
H    -1.195225  -0.669145  3.387919
H    -2.530624  -0.626059  0.855210
C    -2.020581  -2.709275  1.371734
C    -3.188573  -3.364159  0.729801
N    -4.110623  -4.141152  1.404240
C    -3.654650  -3.326698  -0.578300
C    -5.056202  -4.535090  0.495882
N    -4.807061  -4.046019  -0.707515
H    -1.717003  -3.238928  2.286625
H    -1.164732  -2.750436  0.682277
H    -4.060890  -4.432051  2.375380
H    -3.204045  -2.823856  -1.429945
H    -5.885992  -5.183285  0.760446
N    -4.567293  -0.982688  2.683989
C    -5.307903  -0.921572  1.425666
H    -5.118233  -0.916417  3.539404
H    -4.633071  -0.783798  0.577999
H    -6.003789  -0.075287  1.459815
H    -5.877125  -1.844549  1.260819
Ca    2.449684  0.920865  3.821449
