30
Energy: -38163.1466412 eV PBE+vdW (tier 2 basis)
C    -0.103229  -0.464600  -0.174845
C    -0.248777  -0.492980  1.307072
O    0.564396  -1.167801  2.024827
H    -0.921593  0.058818  -0.679312
H    -0.024002  -1.487479  -0.563880
H    0.842757  0.044483  -0.415885
N    -1.225836  0.218458  1.875061
C    -1.365962  0.515889  3.313044
C    -1.929704  -0.702594  4.075294
O    -1.138859  -1.662834  4.361263
H    -1.769342  0.817099  1.254060
H    -0.352367  0.661939  3.721641
C    -2.143704  1.828371  3.491393
C    -1.439112  2.967974  2.821867
N    -2.034487  4.195341  2.598666
C    -0.149564  3.115617  2.338805
C    -1.098494  5.004166  2.012452
N    0.046215  4.374657  1.838829
H    -2.257902  2.009210  4.573591
H    -3.164987  1.721947  3.076996
H    -2.978068  4.471154  2.852157
H    0.659839  2.389991  2.328309
H    -1.310458  6.031960  1.734954
N    -3.199843  -0.723473  4.423214
C    -3.874340  -1.794913  5.159272
H    -3.765040  0.083508  4.166671
H    -4.588842  -2.303748  4.500100
H    -4.416463  -1.359823  6.006474
H    -3.132773  -2.508564  5.523418
Ca    0.759541  -2.394773  3.717494
