30
Energy: -38163.0936758 eV PBE+vdW (tier 2 basis)
C    -0.244631  0.869103  1.137952
C    0.009719  -0.551371  1.514718
O    1.195133  -1.037643  1.380765
H    0.419407  1.501519  1.745720
H    -1.276325  1.190141  1.303185
H    0.027856  1.044617  0.088928
N    -0.948522  -1.322497  2.010199
C    -2.394365  -1.244577  1.777238
C    -2.978170  -2.409684  2.610983
O    -2.299132  -3.448531  2.691098
H    -0.694330  -2.273228  2.319945
H    -2.792991  -0.271010  2.079691
C    -2.723326  -1.510213  0.246596
C    -1.674356  -2.377652  -0.368453
N    -1.452899  -3.693946  -0.017655
C    -0.559439  -2.018808  -1.096388
C    -0.242741  -4.076443  -0.471620
N    0.350401  -3.070166  -1.134316
H    -2.740731  -0.555443  -0.292829
H    -3.729870  -1.941951  0.165527
H    -2.031440  -4.226765  0.635787
H    -0.374363  -1.078826  -1.609016
H    0.158626  -5.076596  -0.338831
N    -4.199148  -2.271118  3.137162
C    -5.056311  -1.082856  3.142126
H    -4.530718  -3.095345  3.635781
H    -5.276666  -0.735191  2.124869
H    -4.615092  -0.267438  3.730189
H    -6.006989  -1.355376  3.608564
Ca    2.213412  -2.178704  -0.072914
