30
Energy: -38163.2316867 eV PBE+vdW (tier 2 basis)
C    -0.813539  -1.103745  0.121681
C    -0.494889  -0.543668  1.465055
O    0.658107  -0.043198  1.701992
H    -1.806087  -1.562795  0.071646
H    -0.052365  -1.841588  -0.163355
H    -0.759274  -0.289810  -0.616533
N    -1.432850  -0.558034  2.413211
C    -1.325350  0.058344  3.740549
C    -0.433957  -0.822314  4.639062
O    0.829855  -0.624003  4.607489
H    -2.318868  -1.042319  2.228934
H    -0.770588  1.000837  3.623584
C    -2.745865  0.422501  4.264979
C    -3.738529  -0.692731  4.244999
N    -4.103690  -1.433381  5.369655
C    -4.403410  -1.307314  3.198801
C    -4.982920  -2.406400  4.942162
N    -5.154155  -2.368261  3.641036
H    -3.105221  1.240775  3.624730
H    -2.637460  0.853620  5.269914
H    -4.024724  -1.115301  6.333115
H    -4.439715  -0.999979  2.154462
H    -5.461682  -3.097357  5.629884
N    -0.975001  -1.764814  5.380948
C    -0.241515  -2.686930  6.249986
H    -1.992785  -1.878839  5.321949
H    -0.819474  -2.842811  7.166722
H    0.733407  -2.261868  6.499914
H    -0.107069  -3.653563  5.747042
Ca    2.201613  0.081944  3.132386
