30
Energy: -38163.0225076 eV PBE+vdW (tier 2 basis)
C    -0.483885  1.498233  -0.540684
C    -0.506967  0.480348  0.546894
O    0.352092  -0.481801  0.537668
H    0.449790  2.073404  -0.439286
H    -1.320229  2.201450  -0.493437
H    -0.446637  1.014669  -1.524061
N    -1.366909  0.543168  1.551552
C    -2.736559  1.047570  1.613884
C    -3.201986  0.548299  3.018573
O    -2.653081  -0.464589  3.477289
H    -1.275060  -0.161744  2.311072
H    -2.769847  2.142272  1.547350
C    -3.678808  0.427878  0.497219
C    -3.139295  -0.834852  -0.095748
N    -2.934945  -1.008349  -1.452871
C    -2.515759  -1.920487  0.482951
C    -2.191001  -2.118308  -1.658640
N    -1.889610  -2.693817  -0.487672
H    -3.820040  1.167321  -0.301702
H    -4.670949  0.264798  0.940761
H    -3.324663  -0.424608  -2.190321
H    -2.492667  -2.171287  1.542028
H    -1.914582  -2.484281  -2.642306
N    -4.198938  1.224199  3.594613
C    -4.800750  0.850590  4.876063
H    -4.522088  2.081663  3.156099
H    -4.377326  -0.105295  5.194055
H    -5.886734  0.754364  4.763741
H    -4.581457  1.613964  5.632204
Ca    0.293890  -2.579772  0.324710
