30
Energy: -38163.0224593 eV PBE+vdW (tier 2 basis)
C    -1.204824  1.315753  -0.978226
C    -0.911565  0.642872  0.318194
O    0.147738  -0.083938  0.433973
H    -2.180846  1.808902  -0.998954
H    -1.116471  0.608571  -1.811433
H    -0.432483  2.084650  -1.136978
N    -1.690440  0.788823  1.378690
C    -3.132396  0.994040  1.491645
C    -3.366294  0.809537  3.024568
O    -2.564666  0.094427  3.643947
H    -1.382450  0.348594  2.269503
H    -3.427251  1.997308  1.159540
C    -3.978340  -0.089012  0.696924
C    -3.196749  -1.320177  0.364774
N    -3.050283  -1.800692  -0.924146
C    -2.295333  -2.055566  1.105697
C    -2.080275  -2.742076  -0.947015
N    -1.571629  -2.908502  0.280536
H    -4.351443  0.360733  -0.232298
H    -4.866727  -0.333853  1.295602
H    -3.616900  -1.530041  -1.725478
H    -2.140633  -2.004941  2.182026
H    -1.793041  -3.289322  -1.839181
N    -4.448602  1.396785  3.540614
C    -4.852247  1.270203  4.942401
H    -4.994395  2.016115  2.948606
H    -5.885458  0.909322  5.002357
H    -4.778986  2.242544  5.444047
H    -4.184548  0.558355  5.433885
Ca    0.574538  -2.125415  0.750179
