30
Energy: -38163.0219305 eV PBE+vdW (tier 2 basis)
C    1.948243  0.083728  1.468312
C    0.545583  -0.115893  1.932638
O    -0.230577  -0.901562  1.294804
H    2.426218  -0.888583  1.295797
H    2.556792  0.676267  2.158945
H    1.914691  0.602102  0.497700
N    0.133222  0.550851  3.015258
C    -1.236829  0.736610  3.546399
C    -1.829459  -0.546286  4.148580
O    -2.149698  -1.535010  3.410196
H    0.831187  1.165504  3.426031
H    -1.106556  1.454126  4.367590
C    -2.217368  1.383361  2.545393
C    -1.790987  2.764855  2.167779
N    -2.457140  3.518768  1.218623
C    -0.775337  3.592614  2.614002
C    -1.828781  4.733579  1.143774
N    -0.808246  4.801680  1.972992
H    -3.211629  1.388117  3.026147
H    -2.316176  0.744243  1.648496
H    -3.289137  3.253135  0.702002
H    -0.025061  3.408894  3.379735
H    -2.158835  5.518762  0.470824
N    -2.040567  -0.560118  5.452042
C    -2.656279  -1.649866  6.211722
H    -1.757252  0.261487  5.982272
H    -1.900618  -2.134558  6.842682
H    -3.084794  -2.378693  5.520885
H    -3.444557  -1.237325  6.851508
Ca    -1.787053  -2.295786  1.459872
