30
Energy: -38162.0452135 eV PBE+vdW (tier 2 basis)
C    -0.110880  -0.008402  -0.373124
C    0.127199  0.263639  1.098393
O    1.229723  0.488018  1.550755
H    -1.134194  0.160225  -0.732461
H    0.575186  0.625554  -0.944500
H    0.161666  -1.051128  -0.590898
N    -0.957503  0.197646  1.990047
C    -2.365749  0.011296  1.729906
C    -2.658692  -1.260314  0.911019
O    -3.528410  -1.257394  -0.038510
H    -0.678692  0.406094  2.946710
H    -2.831195  -0.191041  2.711355
C    -2.993413  1.330073  1.176576
C    -4.455230  1.339209  0.875883
N    -4.976412  2.014848  -0.216757
C    -5.558590  0.702935  1.438359
C    -6.331991  1.779793  -0.278963
N    -6.704015  0.952631  0.694132
H    -2.437004  1.634391  0.279525
H    -2.776461  2.097713  1.934856
H    -4.462007  2.678180  -0.797584
H    -5.599173  0.096138  2.339795
H    -6.986871  2.244502  -1.012688
N    -2.048599  -2.396459  1.197987
C    -1.101925  -2.730612  2.272386
H    -2.299388  -3.164469  0.575085
H    -0.079531  -2.439516  2.004309
H    -1.384674  -2.246452  3.211308
H    -1.140216  -3.815153  2.412568
Ca    -5.482064  -0.761623  -0.662577
