30
Energy: -38164.0593648 eV PBE+vdW (tier 2 basis)
C    -0.404794  0.191545  0.131399
C    -0.174396  0.136318  1.609633
O    0.995761  0.208057  2.066468
H    -1.456114  0.102887  -0.160738
H    0.172537  -0.609695  -0.349212
H    -0.005106  1.141430  -0.250252
N    -1.269194  0.013720  2.393460
C    -1.458208  -0.024474  3.862631
C    -0.601013  1.024723  4.601793
O    0.633968  0.853099  4.816608
H    -2.142780  -0.039119  1.876222
H    -2.504228  0.278938  3.984907
C    -1.391841  -1.458640  4.486884
C    -0.020570  -1.988403  4.735858
N    0.573941  -2.006885  5.979633
C    0.994024  -2.326791  3.859603
C    1.901335  -2.269787  5.824127
N    2.200805  -2.445452  4.537365
H    -1.943395  -2.128239  3.811975
H    -1.965914  -1.435968  5.424107
H    0.106131  -1.850614  6.869445
H    0.924225  -2.517462  2.792396
H    2.596467  -2.348726  6.654818
N    -1.205237  2.120716  5.049913
C    -2.607306  2.536527  4.913821
H    -0.585268  2.758371  5.550191
H    -2.907226  2.588318  3.860558
H    -2.699553  3.539803  5.338954
H    -3.279543  1.871205  5.470080
Ca    2.330490  -0.081400  3.750351
