30
Energy: -38163.4404285 eV PBE+vdW (tier 2 basis)
C    -0.326758  2.564914  0.880328
C    -0.728386  1.173556  0.546624
O    0.115221  0.236656  0.448358
H    0.142874  2.983744  -0.026214
H    -1.170307  3.214034  1.136288
H    0.434342  2.579280  1.667693
N    -2.040052  0.878510  0.279087
C    -3.152426  1.168757  1.187900
C    -2.633359  1.112206  2.650700
O    -1.628030  0.397582  2.942168
H    -2.116082  -0.028847  -0.179048
H    -3.586219  2.159691  0.989175
C    -4.279479  0.086840  0.948891
C    -3.675617  -1.283219  0.916925
N    -3.286199  -1.922524  -0.253531
C    -2.989944  -1.954780  1.909698
C    -2.366446  -2.878619  0.054046
N    -2.130259  -2.898829  1.366447
H    -4.791211  0.323896  0.006600
H    -5.028694  0.174624  1.745646
H    -3.686914  -1.770415  -1.178314
H    -3.082938  -1.825166  2.984335
H    -1.910571  -3.529495  -0.685987
N    -3.298074  1.820200  3.550239
C    -3.008472  1.869259  4.985538
H    -4.072573  2.392733  3.219472
H    -2.879103  2.913278  5.293166
H    -3.841439  1.431351  5.549131
H    -2.091881  1.310951  5.186771
Ca    -0.371005  -1.250167  2.040867
