30
Energy: -38162.6260198 eV PBE+vdW (tier 2 basis)
C    -0.447261  0.717637  0.058114
C    -0.144433  -0.013323  1.321288
O    1.027639  -0.466347  1.540749
H    0.024350  0.164420  -0.766010
H    0.014430  1.716618  0.064156
H    -1.518158  0.816173  -0.140356
N    -1.103758  -0.213006  2.254084
C    -1.966785  0.869910  2.726550
C    -1.078073  1.813752  3.595592
O    0.198461  1.651147  3.619216
H    -0.837029  -0.883137  2.978436
H    -2.297340  1.454118  1.855621
C    -3.223849  0.289273  3.445261
C    -4.261222  1.292598  3.817860
N    -5.165604  1.850741  2.929352
C    -4.552738  1.898630  5.032969
C    -5.941182  2.733392  3.634786
N    -5.583989  2.791612  4.901933
H    -2.907181  -0.238227  4.357252
H    -3.635530  -0.474704  2.768723
H    -5.316061  1.580015  1.962392
H    -4.097947  1.695880  6.000095
H    -6.747084  3.296335  3.173530
N    -1.664387  2.770180  4.272591
C    -0.979587  3.744506  5.125721
H    -2.700200  2.745551  4.293500
H    -1.730326  4.434545  5.519623
H    -0.476514  3.243774  5.962249
H    -0.243079  4.307640  4.541379
Ca    2.001808  0.632790  3.117113
