30
Energy: -38164.2332037 eV PBE+vdW (tier 2 basis)
C    -0.531723  2.204637  -0.818905
C    -1.192817  1.354050  0.221806
O    -0.565652  0.391808  0.737277
H    -0.137497  1.557375  -1.613150
H    -1.188263  2.961521  -1.260248
H    0.333293  2.707727  -0.363893
N    -2.461405  1.677752  0.557221
C    -3.410056  1.111065  1.539554
C    -2.847267  1.073992  2.977412
O    -1.818821  0.417228  3.298923
H    -2.826358  2.484744  0.058794
H    -4.228940  1.842122  1.547768
C    -4.099055  -0.228232  1.091612
C    -3.183234  -1.392618  0.961027
N    -2.557131  -1.769759  -0.208610
C    -2.583236  -2.163800  1.939238
C    -1.574347  -2.661697  0.093251
N    -1.542490  -2.908328  1.402284
H    -4.621245  -0.023910  0.146759
H    -4.879809  -0.452517  1.832147
H    -2.795076  -1.451281  -1.144671
H    -2.864853  -2.248731  2.986518
H    -0.925593  -3.110309  -0.652775
N    -3.533435  1.753829  3.889516
C    -3.176237  1.795421  5.310711
H    -4.340938  2.294017  3.593298
H    -3.103445  0.778725  5.713118
H    -2.215659  2.306757  5.447939
H    -3.956283  2.341973  5.846509
Ca    -0.337425  -0.959561  2.413569
