30
Energy: -38163.4401869 eV PBE+vdW (tier 2 basis)
C    -0.667580  2.775665  0.811979
C    -0.895332  1.343980  0.485280
O    0.055341  0.513788  0.406628
H    -1.585598  3.319684  1.056455
H    0.079277  2.886917  1.605175
H    -0.244448  3.242530  -0.094031
N    -2.158328  0.892601  0.202248
C    -3.311077  1.054446  1.092433
C    -2.811743  1.067990  2.563145
O    -1.732340  0.481241  2.874408
H    -2.118918  -0.020350  -0.249329
H    -3.855908  1.985891  0.879889
C    -4.298335  -0.154815  0.845401
C    -3.535499  -1.443514  0.832397
N    -3.055356  -2.038654  -0.327577
C    -2.789088  -2.022286  1.839694
C    -2.032437  -2.875901  -0.000008
N    -1.814787  -2.859849  1.315676
H    -4.820135  0.014338  -0.105966
H    -5.064719  -0.152016  1.630555
H    -3.457628  -1.940907  -1.259000
H    -2.912701  -1.898310  2.911899
H    -1.491268  -3.471993  -0.728651
N    -3.570938  1.694871  3.448006
C    -3.311840  1.784360  4.887240
H    -4.404150  2.167311  3.102216
H    -4.079333  1.229110  5.440458
H    -2.326218  1.366130  5.101878
H    -3.340856  2.835931  5.194544
Ca    -0.274058  -1.010189  2.003957
