30
Energy: -38163.1465888 eV PBE+vdW (tier 2 basis)
C    -0.550999  -0.581593  -0.311298
C    -0.557613  -0.632579  1.177102
O    0.254546  -1.394970  1.802444
H    -1.353749  0.036182  -0.726051
H    -0.618090  -1.597184  -0.721470
H    0.416412  -0.168301  -0.635590
N    -1.407935  0.148793  1.847701
C    -1.386279  0.419387  3.297591
C    -1.981615  -0.765668  4.087963
O    -1.253520  -1.795255  4.285520
H    -1.949660  0.809834  1.291827
H    -0.330097  0.467209  3.610410
C    -2.025778  1.788465  3.573055
C    -1.290087  2.880812  2.859750
N    -1.793801  4.160169  2.717492
C    -0.043927  2.930226  2.257424
C    -0.849889  4.901136  2.058747
N    0.213578  4.180729  1.764091
H    -2.021915  1.949759  4.664295
H    -3.086787  1.780739  3.256403
H    -2.681312  4.509008  3.065788
H    0.693954  2.138450  2.155568
H    -0.996009  5.950344  1.821869
N    -3.212933  -0.689121  4.549225
C    -3.906966  -1.719158  5.325351
H    -3.728754  0.167330  4.357315
H    -4.365526  -1.253784  6.204936
H    -3.190868  -2.480132  5.641870
H    -4.692665  -2.179246  4.712818
Ca    0.503283  -2.672583  3.449856
