30
Energy: -38162.9344644 eV PBE+vdW (tier 2 basis)
C    -0.918150  0.317372  -1.068856
C    -0.708370  -0.105804  0.344260
O    0.290752  -0.866641  0.639478
H    -0.088532  0.987836  -1.342863
H    -1.855361  0.859538  -1.223809
H    -0.859050  -0.543852  -1.744757
N    -1.499669  0.297201  1.325471
C    -2.921483  0.628574  1.338758
C    -3.207683  0.760981  2.867027
O    -2.458612  0.147629  3.643029
H    -1.248486  0.024643  2.298397
H    -3.126156  1.562437  0.803242
C    -3.836765  -0.527483  0.745139
C    -3.139515  -1.848902  0.678739
N    -2.990758  -2.570581  -0.491916
C    -2.317911  -2.491841  1.580972
C    -2.093701  -3.563361  -0.298486
N    -1.635802  -3.531144  0.959503
H    -4.167312  -0.241879  -0.261639
H    -4.745653  -0.597421  1.358464
H    -3.511756  -2.417386  -1.352996
H    -2.190525  -2.251364  2.634888
H    -1.822109  -4.286528  -1.060846
N    -4.269841  1.474384  3.255445
C    -5.141709  2.316487  2.433770
H    -4.415898  1.484463  4.263175
H    -5.924149  2.722918  3.080454
H    -5.638122  1.743886  1.639888
H    -4.594370  3.161690  1.995801
Ca    0.552330  -2.829383  1.365049
