30
Energy: -38162.8016006 eV PBE+vdW (tier 2 basis)
C    0.344517  0.929981  0.745202
C    -0.379812  -0.062398  1.603599
O    0.038398  -0.489860  2.684026
H    1.419114  0.720233  0.775418
H    -0.005039  0.940582  -0.293421
H    0.198644  1.933274  1.171162
N    -1.596846  -0.539342  1.161646
C    -2.348645  -1.313821  2.122063
C    -1.485863  -2.405301  2.777148
O    -1.660456  -2.626713  4.037843
H    -2.048173  -0.156448  0.337131
H    -2.616530  -0.671006  2.978963
C    -3.677360  -1.886962  1.526871
C    -4.497043  -2.406809  2.660566
N    -5.277421  -1.601107  3.466415
C    -4.368116  -3.582951  3.370921
C    -5.547105  -2.257398  4.623257
N    -4.982590  -3.471030  4.613718
H    -3.481374  -2.683686  0.798616
H    -4.202090  -1.081005  0.994192
H    -5.629415  -0.677076  3.222870
H    -3.883978  -4.502325  3.049011
H    -6.171007  -1.851957  5.414251
N    -0.746968  -3.266503  2.089215
C    -0.357181  -3.255279  0.676774
H    -0.221353  -3.910840  2.678289
H    -1.180081  -2.926646  0.039254
H    0.509508  -2.599726  0.519999
H    -0.083342  -4.277292  0.397135
Ca    -2.829791  -3.349067  5.605930
