30
Energy: -38163.4399278 eV PBE+vdW (tier 2 basis)
C    0.130800  2.246233  0.806828
C    -0.491979  0.923953  0.538186
O    0.185582  -0.143271  0.506020
H    -0.596235  3.037128  1.017574
H    0.879518  2.177029  1.603030
H    0.667424  2.534871  -0.113275
N    -1.831238  0.835317  0.259746
C    -2.890342  1.354873  1.129157
C    -2.404761  1.293150  2.603214
O    -1.536120  0.438651  2.951963
H    -2.051696  -0.070534  -0.152281
H    -3.150763  2.391617  0.870389
C    -4.178985  0.463140  0.923334
C    -3.810722  -0.987594  0.973137
N    -3.518839  -1.743748  -0.155300
C    -3.257165  -1.708968  2.012319
C    -2.773547  -2.820415  0.218851
N    -2.559225  -2.809209  1.535140
H    -4.633591  0.730803  -0.039829
H    -4.912000  0.716221  1.699514
H    -3.878072  -1.577225  -1.094537
H    -3.339910  -1.508477  3.076860
H    -2.423089  -3.575951  -0.477894
N    -2.951886  2.150228  3.450833
C    -2.673567  2.229858  4.886978
H    -3.616317  2.824192  3.074882
H    -2.379317  3.254376  5.142119
H    -3.572585  1.964012  5.456478
H    -1.862191  1.542339  5.134646
Ca    -0.559182  -1.440600  2.162915
