30
Energy: -38163.2315193 eV PBE+vdW (tier 2 basis)
C    -0.838927  0.056400  0.300009
C    -0.552946  0.207894  1.754982
O    0.569517  0.670341  2.148846
H    -1.811730  -0.402347  0.096130
H    -0.047960  -0.541105  -0.171936
H    -0.807054  1.051285  -0.168023
N    -1.492228  -0.132677  2.643265
C    -1.395230  0.058775  4.097583
C    -0.441359  -1.001095  4.692086
O    0.805491  -0.710354  4.761452
H    -2.347406  -0.571860  2.299549
H    -0.887584  1.020268  4.263857
C    -2.809510  0.178151  4.734199
C    -3.758392  -0.940926  4.459031
N    -4.534970  -1.029819  3.306489
C    -4.050674  -2.098754  5.160483
C    -5.254910  -2.200317  3.393202
N    -4.963165  -2.870403  4.484677
H    -3.227271  1.138413  4.396022
H    -2.672903  0.278241  5.819635
H    -4.769867  -0.257742  2.687759
H    -3.704854  -2.381537  6.153375
H    -5.972541  -2.497718  2.634229
N    -0.917952  -2.162716  5.071972
C    -0.143448  -3.264184  5.643353
H    -1.935662  -2.300531  4.957463
H    -0.709422  -3.695213  6.476191
H    0.819197  -2.894805  6.004280
H    0.015224  -4.043108  4.886140
Ca    2.117536  0.471442  3.583699
