30
Energy: -38163.1731958 eV PBE+vdW (tier 2 basis)
C    2.004886  0.995816  0.589627
C    1.174649  0.284262  1.605351
O    1.739361  -0.325239  2.570817
H    2.666195  1.713068  1.093564
H    2.654909  0.259141  0.095057
H    1.416314  1.518566  -0.171075
N    -0.158095  0.308211  1.467897
C    -1.198520  -0.443455  2.201205
C    -1.369921  -0.010103  3.667019
O    -0.415274  -0.120806  4.504382
H    -0.495940  0.835101  0.666432
H    -2.130124  -0.192020  1.678126
C    -1.026950  -1.993330  2.114387
C    -2.067312  -2.701676  2.911508
N    -3.329761  -3.025015  2.441402
C    -2.103799  -3.040428  4.251498
C    -4.035130  -3.550479  3.491567
N    -3.320720  -3.557175  4.600900
H    -0.030129  -2.281486  2.476055
H    -1.047757  -2.272326  1.051194
H    -3.637443  -3.014483  1.473449
H    -1.304740  -2.953249  4.984817
H    -5.050016  -3.920936  3.384528
N    -2.555524  0.427785  4.040427
C    -2.943780  0.721563  5.422047
H    -3.290030  0.460348  3.337990
H    -3.249987  -0.206345  5.924648
H    -3.783504  1.421931  5.407084
H    -2.102407  1.170279  5.956555
Ca    1.607548  -0.713523  4.637544
