30
Energy: -38163.2313125 eV PBE+vdW (tier 2 basis)
C    -0.772602  -0.150683  0.266686
C    -0.489317  0.052951  1.715792
O    0.655135  0.468101  2.098979
H    -1.769868  -0.559133  0.074367
H    -0.015791  -0.816843  -0.167907
H    -0.676574  0.816842  -0.247628
N    -1.453422  -0.190408  2.609425
C    -1.356602  0.065093  4.053826
C    -0.470688  -1.017846  4.708903
O    0.790513  -0.796918  4.776408
H    -2.330183  -0.595190  2.278044
H    -0.794940  1.002475  4.179125
C    -2.766296  0.297158  4.669142
C    -3.777375  -0.776301  4.437120
N    -4.549397  -0.873965  3.282230
C    -4.142821  -1.880360  5.189126
C    -5.337940  -1.994703  3.416462
N    -5.094367  -2.628262  4.541075
H    -3.124154  1.262931  4.281560
H    -2.632499  0.440939  5.750014
H    -4.733473  -0.119732  2.625455
H    -3.821841  -2.135515  6.197729
H    -6.066347  -2.285069  2.665066
N    -1.017205  -2.129317  5.141091
C    -0.312999  -3.243624  5.775057
H    -2.040276  -2.213567  5.022706
H    -0.204453  -4.071857  5.062685
H    -0.903961  -3.591272  6.629309
H    0.671280  -2.915759  6.117127
Ca    2.178462  0.247834  3.557025
