29
Energy: -573095.467196 eV PBE+vdW (tier 2 basis)
C    0.223316  1.301967  -0.901972
C    -0.403376  0.894327  0.395319
O    0.105993  -0.026312  1.074148
H    0.441299  0.406284  -1.496343
H    1.190462  1.778081  -0.682795
H    -0.388531  1.996158  -1.488225
N    -1.523356  1.565240  0.784464
C    -2.270014  1.427246  2.040291
C    -1.355550  1.744766  3.257380
O    -0.702465  0.868226  3.933078
H    -1.852184  2.287894  0.150685
H    -2.978928  2.261156  2.007224
C    -3.170732  0.136345  2.209432
C    -3.164210  -0.951329  1.098208
C    -2.763411  -2.365563  1.490462
O    -1.810403  -2.682756  2.251762
O    -3.399291  -3.385384  0.982780
H    -4.200890  0.504716  2.278103
H    -3.009519  -0.310016  3.204617
H    -2.482090  -0.678562  0.275195
H    -4.158890  -0.994836  0.637473
N    -1.239659  3.001670  3.647140
C    -1.901157  4.202241  3.118963
H    -0.602085  3.137504  4.434579
H    -1.599035  4.396723  2.082826
H    -1.582937  5.050649  3.731006
H    -2.992853  4.122911  3.195199
H    -4.157737  -3.139052  0.416490
Hg    -0.645768  -1.070296  3.038510
