29
Energy: -573094.76954 eV PBE+vdW (tier 2 basis)
C    -0.603338  1.561162  0.856845
C    -0.109935  0.594035  1.883639
O    1.128855  0.725356  2.225060
H    -0.398782  1.166793  -0.150109
H    -0.043666  2.499401  0.951571
H    -1.675614  1.761494  0.960035
N    -0.877520  -0.338736  2.429749
C    -2.196793  -0.845837  2.050870
C    -2.703661  -1.516894  3.360322
O    -1.865801  -1.891340  4.185847
H    -0.555636  -0.854946  3.269273
H    -2.856692  -0.020768  1.749262
C    -2.120457  -1.872622  0.887193
C    -1.246413  -3.141094  1.123070
C    0.218577  -2.805808  1.255568
O    0.769591  -2.793895  2.373638
O    0.927326  -2.428297  0.202769
H    -1.798514  -1.341189  -0.020716
H    -3.137658  -2.231920  0.674167
H    -1.387684  -3.820536  0.268945
H    -1.548739  -3.676798  2.029987
N    -4.034218  -1.683841  3.493123
C    -4.654339  -2.288657  4.664633
H    -4.650972  -1.272128  2.795437
H    -5.089583  -1.510921  5.311120
H    -3.897085  -2.840250  5.227872
H    -5.462378  -2.957008  4.341102
H    0.460202  -2.558464  -0.647128
Hg    2.296071  -1.091821  2.741960
