29
Energy: -573094.739884 eV PBE+vdW (tier 2 basis)
C    0.929891  0.117344  0.991381
C    0.333889  -0.212443  2.327396
O    0.972922  -0.483843  3.333483
H    1.696502  -0.629541  0.751989
H    1.444469  1.085516  1.067493
H    0.195880  0.166847  0.179572
N    -1.071108  -0.200760  2.402101
C    -1.673980  -0.401052  3.702592
C    -2.739797  -1.493892  3.542249
O    -4.049787  -1.306558  3.528745
H    -1.625876  0.117198  1.612214
H    -0.837615  -0.832488  4.290855
C    -2.019106  0.961220  4.374058
C    -2.127976  0.986721  5.941579
C    -3.254765  1.834277  6.499468
O    -4.487874  1.640693  6.227905
O    -3.052801  2.813190  7.322997
H    -2.874272  1.457862  3.880391
H    -1.173180  1.607097  4.107325
H    -1.169392  1.316876  6.361323
H    -2.285795  -0.024769  6.359036
N    -2.377107  -2.731310  3.282515
C    -1.035045  -3.273784  3.049979
H    -3.157216  -3.375865  3.128723
H    -1.041218  -4.321470  3.367128
H    -0.278072  -2.724477  3.617425
H    -0.795333  -3.224030  1.979267
H    -2.110855  2.964908  7.545011
Hg    -4.722873  0.102784  4.841188
