29
Energy: -573094.692826 eV PBE+vdW (tier 2 basis)
C    0.403453  -0.278404  0.530438
C    0.039223  -0.574023  1.945023
O    0.808043  -1.205232  2.751282
H    0.696000  -1.212051  0.031052
H    1.273333  0.396087  0.509789
H    -0.411592  0.192333  -0.028510
N    -1.145818  -0.194136  2.419205
C    -1.675733  -0.485050  3.756657
C    -3.211590  -0.625699  3.509181
O    -3.667340  -0.083765  2.498122
H    -1.881887  0.141278  1.778092
H    -1.236642  -1.421866  4.122779
C    -1.483215  0.677828  4.769933
C    -0.206027  0.656838  5.659233
C    1.098248  0.741810  4.911915
O    1.971120  -0.123629  5.078643
O    1.318714  1.705691  4.025482
H    -2.319149  0.666202  5.484594
H    -1.586551  1.629563  4.227916
H    -0.165145  -0.250273  6.272270
H    -0.264223  1.511579  6.354155
N    -3.987378  -1.261713  4.407081
C    -3.592809  -2.141432  5.499427
H    -4.975447  -1.273739  4.144084
H    -3.589561  -3.193747  5.177960
H    -4.323639  -2.035821  6.310861
H    -2.603773  -1.879661  5.886428
H    0.625083  2.394780  4.028760
Hg    3.027572  -0.817894  3.107597
