29
Energy: -573094.982715 eV PBE+vdW (tier 2 basis)
C    -1.282717  1.021683  1.022358
C    -0.741007  0.604990  2.355984
O    0.296334  1.272807  2.736551
H    -1.676646  2.045272  1.105611
H    -2.085646  0.350174  0.695965
H    -0.474162  1.041066  0.281589
N    -1.355274  -0.374507  3.015425
C    -1.178113  -0.736046  4.420391
C    0.028865  -1.683179  4.666985
O    1.023617  -1.223165  5.357157
H    -2.234956  -0.804218  2.593565
H    -0.872441  0.174826  4.966955
C    -2.517077  -1.070100  5.139414
C    -3.448173  -2.227835  4.750848
C    -4.075626  -2.176911  3.373246
O    -3.580323  -1.615568  2.390912
O    -5.217168  -2.840643  3.322747
H    -3.091339  -0.132096  5.100484
H    -2.256646  -1.205750  6.199386
H    -4.263893  -2.246431  5.487345
H    -2.968880  -3.211464  4.856903
N    0.133231  -2.924277  4.234963
C    -0.762212  -3.748062  3.423568
H    1.012164  -3.372437  4.511452
H    -1.238011  -4.520591  4.040650
H    -0.148906  -4.249010  2.664019
H    -1.513272  -3.137135  2.920278
H    -5.582601  -2.815385  2.412457
Hg    1.398210  0.803991  4.556168
