29
Energy: -573094.486272 eV PBE+vdW (tier 2 basis)
C    -0.273908  0.933673  1.074300
C    -0.331784  0.165582  2.356540
O    0.754414  0.113023  3.039503
H    -1.217166  1.450513  0.863063
H    -0.031176  0.258268  0.240080
H    0.535726  1.669625  1.139446
N    -1.441351  -0.427873  2.791359
C    -2.682982  -0.746167  2.093835
C    -3.830657  -0.208728  3.007109
O    -3.662768  -0.269299  4.222810
H    -1.435042  -0.768534  3.755968
H    -2.670288  -0.268017  1.107810
C    -2.883333  -2.283843  1.984226
C    -1.778991  -3.071693  1.263677
C    -0.462029  -3.160719  2.008542
O    -0.400944  -3.056390  3.245013
O    0.665950  -3.319798  1.334800
H    -3.826423  -2.461325  1.448806
H    -3.025424  -2.691136  2.995110
H    -1.583070  -2.684058  0.251129
H    -2.128885  -4.109464  1.120919
N    -4.975042  0.258585  2.452351
C    -5.293746  0.508299  1.057580
H    -5.641457  0.598735  3.150078
H    -4.769823  -0.187281  0.394634
H    -5.051732  1.544377  0.769647
H    -6.373678  0.371735  0.919147
H    0.531188  -3.463298  0.376353
Hg    1.376888  -1.765668  4.145096
