29
Energy: -573095.093535 eV PBE+vdW (tier 2 basis)
C    0.167574  -0.037678  -0.204762
C    0.239942  -0.005856  1.286727
O    1.363738  -0.380849  1.789143
H    0.945698  0.615226  -0.623227
H    -0.817797  0.244317  -0.590922
H    0.402798  -1.059835  -0.539949
N    -0.834499  0.411068  1.982225
C    -1.361407  0.100080  3.349879
C    -1.002911  1.102635  4.471295
O    0.192069  1.526699  4.769509
H    -1.567869  0.770564  1.374021
H    -2.441760  0.232703  3.212684
C    -1.183198  -1.384190  3.763009
C    -2.037428  -1.823796  4.974108
C    -3.518055  -1.503036  4.856784
O    -3.962712  -0.368386  4.665639
O    -4.286491  -2.571240  4.994642
H    -0.135989  -1.635852  3.988302
H    -1.453715  -1.987255  2.884346
H    -1.681897  -1.344903  5.899777
H    -1.908787  -2.903208  5.112857
N    -2.007264  1.513752  5.202825
C    -1.907577  2.398959  6.365688
H    -2.925982  1.071976  4.982742
H    -1.983544  3.445282  6.041158
H    -0.951443  2.251646  6.877655
H    -2.740769  2.174178  7.037817
H    -5.232573  -2.310590  4.955530
Hg    1.711661  0.482703  3.719793
