29
Energy: -573095.135509 eV PBE+vdW (tier 2 basis)
C    -0.363473  0.772720  0.225686
C    -0.193150  0.087326  1.548010
O    0.770596  -0.771673  1.570641
H    -0.573561  0.020139  -0.546105
H    0.580049  1.263522  -0.050173
H    -1.171272  1.512286  0.260356
N    -1.021024  0.406653  2.541134
C    -0.874923  0.091103  3.965881
C    -1.373006  -1.331898  4.332151
O    -0.508291  -2.228394  4.684512
H    -1.660201  1.250079  2.375363
H    0.203556  0.070816  4.213490
C    -1.487795  1.183072  4.879224
C    -1.056113  2.631181  4.582834
C    -1.856036  3.288175  3.473584
O    -2.331602  2.676556  2.510647
O    -1.988567  4.590080  3.644239
H    -1.180073  0.930656  5.903286
H    -2.581960  1.130704  4.865501
H    0.010797  2.703116  4.312805
H    -1.164164  3.235082  5.492381
N    -2.641909  -1.689920  4.342146
C    -3.861316  -0.924086  4.066039
H    -2.786482  -2.663096  4.627020
H    -3.665153  -0.095526  3.381723
H    -4.304581  -0.554733  5.000596
H    -4.575263  -1.608489  3.593536
H    -2.486729  4.980593  2.894303
Hg    1.177963  -2.023193  3.293271
