29
Energy: -573094.678822 eV PBE+vdW (tier 2 basis)
C    -0.726777  -0.562046  0.170085
C    -0.302982  -0.151351  1.534119
O    0.939863  -0.189063  1.822979
H    -0.129850  -1.433668  -0.134606
H    -0.478411  0.236583  -0.547134
H    -1.792006  -0.807354  0.118971
N    -1.191704  0.243709  2.483010
C    -2.221203  1.267414  2.302557
C    -1.543397  2.616664  1.949240
O    -0.358749  2.915181  2.321933
H    -0.799210  0.228215  3.430987
H    -2.860487  0.980544  1.457417
C    -3.145878  1.405518  3.551996
C    -2.561606  1.236365  4.993457
C    -1.224812  1.900199  5.231107
O    -0.186970  1.259900  4.956192
O    -1.112205  3.133102  5.665623
H    -3.939328  0.652439  3.467758
H    -3.642115  2.382123  3.481442
H    -2.421869  0.170433  5.215783
H    -3.318014  1.609025  5.698013
N    -2.214947  3.520105  1.245950
C    -3.601752  3.503906  0.770607
H    -1.690313  4.380195  1.072240
H    -3.634198  3.993536  -0.208563
H    -4.255145  4.054762  1.459989
H    -3.975534  2.482361  0.657185
H    -1.964441  3.524659  5.943299
Hg    1.309511  1.571042  3.202539
