29
Energy: -573094.901424 eV PBE+vdW (tier 2 basis)
C    -0.006767  -0.445591  -0.423628
C    -0.516536  0.517767  0.601235
O    -0.384438  1.742797  0.507765
H    -0.548709  -0.265852  -1.363110
H    -0.124773  -1.497780  -0.142200
H    1.050451  -0.231695  -0.622986
N    -1.176543  -0.014693  1.700309
C    -1.884170  0.858248  2.622662
C    -0.890724  1.526734  3.639030
O    -0.777460  1.347517  4.943208
H    -1.170289  -1.020631  1.828327
H    -2.179545  1.728336  2.012067
C    -3.238816  0.263505  3.098173
C    -3.342046  -1.255046  3.504430
C    -4.136966  -1.542806  4.767415
O    -3.814178  -1.100430  5.918212
O    -5.189483  -2.297167  4.773545
H    -3.920150  0.395046  2.247881
H    -3.677889  0.923340  3.866861
H    -2.353288  -1.712286  3.688263
H    -3.771198  -1.821902  2.669078
N    -0.059691  2.366146  3.090931
C    0.992683  3.118475  3.779664
H    -0.129481  2.399481  2.035300
H    1.296416  3.941912  3.128087
H    1.857939  2.469869  3.970787
H    0.620047  3.511421  4.731057
H    -5.443381  -2.648639  3.895363
Hg    -2.190223  0.194321  5.816542
