29
Energy: -573094.606408 eV PBE+vdW (tier 2 basis)
C    -0.210466  0.157537  0.093701
C    -0.307790  0.105263  1.579325
O    0.585339  0.509595  2.364188
H    0.553125  -0.564420  -0.234703
H    0.131716  1.152660  -0.217188
H    -1.151463  -0.085543  -0.411007
N    -1.453868  -0.365132  2.158255
C    -1.579376  -0.581047  3.590579
C    -2.692814  -1.627985  3.860863
O    -3.540530  -1.436509  4.722735
H    -2.292199  -0.412004  1.577744
H    -0.613919  -1.012510  3.911729
C    -1.848700  0.691256  4.446248
C    -0.935111  0.845841  5.678885
C    0.503740  1.046816  5.246235
O    1.229661  0.054983  5.056004
O    0.975774  2.246769  4.972511
H    -2.878523  0.590163  4.833531
H    -1.802523  1.583509  3.810064
H    -0.985197  -0.040966  6.322849
H    -1.263716  1.709941  6.274656
N    -2.661167  -2.760636  3.100869
C    -3.621673  -3.837662  3.269452
H    -1.819981  -2.955369  2.560226
H    -3.708592  -4.387836  2.325445
H    -4.584756  -3.416489  3.578767
H    -3.291498  -4.542670  4.051291
H    0.358046  2.969644  5.202176
Hg    2.783410  0.264331  3.288735
