29
Energy: -573094.675163 eV PBE+vdW (tier 2 basis)
C    -0.805912  1.500435  0.617020
C    -0.200939  0.735820  1.741426
O    0.856867  1.192693  2.288338
H    0.007813  1.899139  -0.005920
H    -1.340650  2.377649  1.014273
H    -1.473203  0.888247  0.002593
N    -0.719562  -0.434461  2.187299
C    -2.124516  -0.752325  2.421682
C    -2.485618  -0.298871  3.871074
O    -1.733951  0.440467  4.609257
H    -0.054939  -1.014808  2.703816
H    -2.724353  -0.114815  1.753924
C    -2.415438  -2.257209  2.148006
C    -3.440069  -2.562974  1.053702
C    -4.882713  -2.254713  1.393581
O    -5.263058  -1.706982  2.431330
O    -5.714732  -2.639453  0.442316
H    -2.706610  -2.757799  3.081525
H    -1.468952  -2.724640  1.843641
H    -3.398819  -3.634585  0.805559
H    -3.206868  -2.047371  0.108161
N    -3.678075  -0.628860  4.312719
C    -4.214873  -0.323494  5.636073
H    -4.329724  -1.070333  3.603596
H    -4.989294  -1.062871  5.864819
H    -4.675372  0.675257  5.636638
H    -3.421344  -0.352893  6.388685
H    -6.641275  -2.437451  0.694902
Hg    0.499880  0.831914  4.519573
