29
Energy: -573094.999848 eV PBE+vdW (tier 2 basis)
C    0.099229  -1.997702  -0.012927
C    -0.150283  -1.075573  1.137654
O    0.620603  -0.159008  1.455399
H    1.106061  -2.423334  0.079632
H    0.090689  -1.402754  -0.937388
H    -0.637370  -2.803344  -0.102959
N    -1.310958  -1.268353  1.864585
C    -1.731634  -0.291567  2.861939
C    -0.919235  -0.542267  4.179887
O    -1.346169  -1.107183  5.295998
H    -1.883237  -2.087840  1.682673
H    -1.360280  0.681036  2.498136
C    -3.276412  -0.236106  2.904069
C    -3.914571  1.083348  3.462165
C    -5.142246  0.891598  4.337980
O    -5.139052  0.223086  5.422465
O    -6.288049  1.427254  4.056431
H    -3.698507  -1.137272  3.385069
H    -3.601035  -0.331133  1.859454
H    -4.156338  1.749692  2.624533
H    -3.200163  1.655309  4.081783
N    0.350381  -0.261311  4.088558
C    1.366190  -0.462354  5.120631
H    0.650877  -0.017243  3.095617
H    0.921276  -0.401547  6.117426
H    1.832975  -1.448996  4.993081
H    2.133313  0.308117  4.993871
H    -6.298198  1.948831  3.227549
Hg    -3.267076  -0.639887  5.795656
