29
Energy: -573094.758792 eV PBE+vdW (tier 2 basis)
C    -0.559368  1.148084  -0.809058
C    -0.221420  0.306203  0.368018
O    0.900726  0.491742  0.947083
H    -1.393548  0.741975  -1.389017
H    0.332031  1.223160  -1.449505
H    -0.776572  2.175830  -0.478597
N    -1.055325  -0.664496  0.828773
C    -2.465059  -0.473072  1.173083
C    -2.579132  0.604160  2.289656
O    -1.681909  0.799145  3.172371
H    -0.582232  -1.342251  1.436887
H    -3.001142  -0.091488  0.292068
C    -3.160279  -1.808650  1.584763
C    -2.383611  -2.900302  2.392156
C    -1.522937  -2.375862  3.516770
O    -0.351748  -2.025772  3.252823
O    -1.968401  -2.225543  4.741411
H    -3.493159  -2.308140  0.666245
H    -4.071759  -1.538684  2.134439
H    -1.714519  -3.455046  1.721442
H    -3.125590  -3.620336  2.764313
N    -3.692962  1.322062  2.311777
C    -4.006631  2.359282  3.300984
H    -4.407154  1.115016  1.616090
H    -3.077246  2.791494  3.681247
H    -4.575408  1.931599  4.136819
H    -4.608321  3.133410  2.815071
H    -2.858247  -2.608098  4.878250
Hg    0.534922  0.113578  3.151635
