29
Energy: -573095.237009 eV PBE+vdW (tier 2 basis)
C    -3.832787  -0.501977  -0.207528
C    -2.884682  -0.460659  0.949351
O    -1.682859  -0.801851  0.738376
H    -4.869690  -0.313256  0.093388
H    -3.760084  -1.479834  -0.699726
H    -3.525050  0.254628  -0.943583
N    -3.359763  -0.063722  2.157394
C    -2.458643  0.140084  3.276394
C    -2.118933  -1.174101  4.020738
O    -0.932891  -1.641708  3.928315
H    -4.338092  0.208938  2.210984
H    -1.526785  0.406169  2.774740
C    -2.644352  1.369962  4.178713
C    -1.303569  1.708294  4.887866
C    -0.156126  2.145282  3.991858
O    0.448544  1.475692  3.123121
O    0.210914  3.386512  4.224506
H    -3.411584  1.231183  4.949759
H    -2.964845  2.214847  3.552645
H    -0.942527  0.843435  5.467248
H    -1.479823  2.517241  5.604982
N    -3.000366  -1.824496  4.759652
C    -4.380544  -1.476735  5.100254
H    -2.639233  -2.685151  5.178894
H    -5.022404  -2.341278  4.892726
H    -4.734845  -0.628714  4.510920
H    -4.453484  -1.230354  6.167149
H    0.979972  3.639219  3.666007
Hg    0.159530  -0.708649  2.170855
