29
Energy: -573095.515481 eV PBE+vdW (tier 2 basis)
C    -0.215496  0.866839  -0.184412
C    -0.150566  0.235668  1.172082
O    0.934119  -0.399530  1.418363
H    -0.096140  0.089415  -0.950837
H    0.639528  1.550120  -0.290038
H    -1.141691  1.423753  -0.361889
N    -1.208047  0.407803  1.985049
C    -1.523645  0.188016  3.432189
C    -0.354662  0.504643  4.386330
O    0.577269  -0.312363  4.598021
H    -1.946677  0.932691  1.521705
H    -2.273592  0.969979  3.616304
C    -2.321493  -1.110688  3.769263
C    -1.848984  -2.547029  3.402312
C    -0.920737  -3.281407  4.355737
O    0.327663  -3.381221  4.208231
O    -1.395764  -3.910233  5.396505
H    -3.286290  -0.993965  3.257554
H    -2.554982  -1.055360  4.843115
H    -1.407660  -2.578963  2.393548
H    -2.761337  -3.158604  3.322758
N    -0.418492  1.670963  5.023336
C    0.574125  2.128679  5.999393
H    -1.220745  2.274616  4.864237
H    0.200700  1.972007  7.019588
H    0.757464  3.196915  5.843340
H    1.499983  1.564729  5.862372
H    -2.372256  -3.912274  5.448879
Hg    1.086110  -1.859221  2.926166
