29
Energy: -573095.229271 eV PBE+vdW (tier 2 basis)
C    -0.882453  -0.937143  -0.231039
C    -0.749062  0.239009  0.686105
O    -0.206674  1.275796  0.129510
H    0.098549  -1.186410  -0.654822
H    -1.535517  -0.655336  -1.070493
H    -1.311286  -1.802846  0.285352
N    -1.183633  0.124225  1.939186
C    -1.560250  1.172979  2.907259
C    -0.405028  1.541888  3.875772
O    0.405328  2.510540  3.598867
H    -1.609499  -0.819946  2.206288
H    -1.746695  2.111335  2.353841
C    -2.947163  0.866130  3.541429
C    -3.244146  -0.363837  4.422057
C    -3.112623  -1.740604  3.796489
O    -2.416694  -2.010518  2.816207
O    -3.824317  -2.641441  4.451312
H    -3.649951  0.856750  2.695538
H    -3.213848  1.755442  4.130813
H    -4.283976  -0.261044  4.766105
H    -2.683247  -0.387464  5.372111
N    -0.239566  0.901038  5.010748
C    0.819043  1.178750  5.990960
H    -0.932369  0.197557  5.254545
H    1.724878  1.503345  5.470583
H    1.014021  0.262016  6.554953
H    0.495311  1.970283  6.679567
H    -3.701927  -3.527493  4.047886
Hg    0.478617  2.803815  1.452854
