29
Energy: -573094.815596 eV PBE+vdW (tier 2 basis)
C    0.206459  -0.285992  0.085964
C    -0.357411  0.640360  1.119230
O    -0.474913  1.859972  0.769609
H    0.331234  -1.308081  0.461384
H    1.165564  0.108100  -0.273026
H    -0.478142  -0.303088  -0.775455
N    -0.704183  0.129621  2.315615
C    -1.623265  0.678509  3.336340
C    -0.832814  1.391596  4.462115
O    -0.443136  2.609365  4.333243
H    -0.488792  -0.859977  2.427194
H    -2.235284  1.460169  2.855275
C    -2.562146  -0.449010  3.796786
C    -3.670233  -0.002621  4.778398
C    -3.848860  -0.932828  5.968406
O    -4.916814  -1.294247  6.395735
O    -2.658124  -1.288056  6.529782
H    -1.961634  -1.264989  4.228888
H    -3.027932  -0.871375  2.896667
H    -4.640422  0.076072  4.278060
H    -3.463602  0.989516  5.213557
N    -0.549227  0.751215  5.576037
C    0.218308  1.331082  6.686230
H    -0.990092  -0.156406  5.743314
H    0.594308  0.512222  7.305420
H    -0.423072  1.983881  7.292866
H    1.054361  1.916886  6.291870
H    -2.840509  -1.869973  7.297854
Hg    -0.589048  3.464334  2.294471
