29
Energy: -573094.761283 eV PBE+vdW (tier 2 basis)
C    -1.006492  1.465291  0.095510
C    -0.996995  0.706484  1.382559
O    -0.218687  0.999658  2.356680
H    -1.598935  0.977558  -0.685605
H    0.025998  1.589423  -0.256114
H    -1.424913  2.471593  0.262114
N    -1.826611  -0.327439  1.526774
C    -1.945383  -1.247365  2.659960
C    -2.853101  -2.369229  2.103741
O    -3.596754  -2.090742  1.152629
H    -2.417108  -0.628167  0.735544
H    -0.948194  -1.626021  2.926977
C    -2.593877  -0.650597  3.953909
C    -3.736144  0.359916  3.746936
C    -3.214609  1.752729  3.449962
O    -2.265026  2.201184  4.112360
O    -3.728239  2.490999  2.480265
H    -1.802424  -0.187671  4.552234
H    -2.976025  -1.487973  4.551999
H    -4.301969  0.433101  4.690438
H    -4.455413  0.044572  2.976134
N    -2.821285  -3.570321  2.705594
C    -3.635120  -4.699253  2.272344
H    -2.093533  -3.749256  3.395323
H    -4.533837  -4.322985  1.772678
H    -3.894059  -5.306101  3.147438
H    -3.078904  -5.330459  1.561611
H    -4.516998  2.081545  2.071838
Hg    -0.340233  3.119190  3.156919
