29
Energy: -573094.667183 eV PBE+vdW (tier 2 basis)
C    0.281450  0.262531  0.549038
C    -0.024773  0.108661  2.004647
O    1.007285  0.015169  2.780283
H    0.319828  -0.729518  0.073574
H    1.273672  0.713648  0.434429
H    -0.466049  0.881120  0.039299
N    -1.254945  0.072126  2.489701
C    -2.553635  -0.076194  1.827480
C    -3.530983  0.519350  2.880249
O    -3.135405  0.577902  4.053248
H    -1.440608  0.203467  3.507802
H    -2.576537  0.492183  0.888953
C    -2.880857  -1.564447  1.523755
C    -2.916681  -2.539452  2.740636
C    -1.560496  -2.703819  3.378464
O    -1.293770  -2.144349  4.461090
O    -0.594520  -3.366467  2.761519
H    -2.174714  -1.924825  0.761170
H    -3.873821  -1.615699  1.056092
H    -3.270803  -3.519446  2.386327
H    -3.610766  -2.194034  3.515390
N    -4.764680  0.914255  2.516301
C    -5.383705  0.975199  1.200839
H    -5.314895  1.271854  3.300472
H    -5.761794  1.990662  1.021336
H    -6.236987  0.282802  1.149415
H    -4.672006  0.722871  0.410086
H    -0.901949  -3.859684  1.974261
Hg    0.809110  -1.217591  4.599451
