29
Energy: -573094.658852 eV PBE+vdW (tier 2 basis)
C    0.180743  -0.133636  0.343168
C    0.108063  0.123623  1.813193
O    1.149042  0.233072  2.552291
H    0.868087  -0.969599  0.158575
H    0.590119  0.752763  -0.168830
H    -0.793804  -0.361385  -0.101056
N    -1.089346  0.235097  2.388070
C    -1.404177  0.420452  3.807270
C    -2.931552  0.194226  3.852794
O    -3.560347  0.370213  2.796324
H    -1.945880  0.087414  1.830655
H    -0.852242  -0.322824  4.397133
C    -1.086451  1.839457  4.389654
C    -1.318916  3.033149  3.446004
C    -0.156221  3.242580  2.495917
O    1.004919  3.150273  2.926853
O    -0.348100  3.493769  1.212121
H    -0.047367  1.845293  4.734523
H    -1.706443  1.981024  5.283773
H    -1.387984  3.946386  4.060091
H    -2.264946  2.961816  2.888146
N    -3.549317  -0.120531  5.005237
C    -2.978758  -0.605987  6.254982
H    -4.564697  -0.195803  4.907331
H    -3.059825  -1.701715  6.318603
H    -3.546916  -0.175312  7.089679
H    -1.928607  -0.318684  6.355014
H    -1.292036  3.620530  0.989134
Hg    2.655914  1.816491  1.950927
