29
Energy: -573094.737125 eV PBE+vdW (tier 2 basis)
C    0.466320  -0.550453  0.130177
C    0.354939  -0.946691  1.569324
O    1.406535  -1.440031  2.096423
H    0.778320  -1.419181  -0.464070
H    1.262448  0.203477  0.037096
H    -0.466723  -0.133463  -0.265627
N    -0.816666  -0.752619  2.201744
C    -1.088709  -0.628170  3.648972
C    -1.662052  -1.936802  4.246411
O    -0.971628  -3.023017  4.228706
H    -1.559335  -0.403296  1.599263
H    -0.114584  -0.501143  4.155247
C    -1.884296  0.661330  3.923375
C    -3.181166  0.867956  3.092273
C    -4.356164  1.325973  3.941157
O    -4.970500  2.349570  3.791597
O    -4.645971  0.405387  4.910081
H    -1.207732  1.505419  3.738964
H    -2.092747  0.693436  5.001828
H    -3.520920  -0.059574  2.599578
H    -3.039983  1.621729  2.311083
N    -2.851440  -1.964337  4.806692
C    -3.430155  -3.155238  5.439591
H    -3.440142  -1.122125  4.800691
H    -3.901287  -3.796189  4.682576
H    -4.187051  -2.825844  6.156683
H    -2.646165  -3.724341  5.949315
H    -5.411304  0.725070  5.433539
Hg    1.190484  -2.839126  3.798942
