29
Energy: -573094.692471 eV PBE+vdW (tier 2 basis)
C    -0.274396  -0.412729  -0.074944
C    0.007759  -0.345203  1.396966
O    1.178183  -0.710755  1.745463
H    0.374488  0.307312  -0.593133
H    -1.323304  -0.214912  -0.321305
H    0.001662  -1.411113  -0.440942
N    -0.977732  0.089923  2.200201
C    -1.252193  0.064092  3.669280
C    -0.596450  1.214810  4.458859
O    0.663986  1.431652  4.535178
H    -1.799781  0.371059  1.671086
H    -2.326005  0.293050  3.683850
C    -1.201224  -1.323219  4.366001
C    0.114774  -1.994712  4.779671
C    -0.152253  -3.333706  5.508556
O    -1.261640  -3.808360  5.576236
O    0.973065  -3.843859  6.001076
H    -1.767075  -2.012828  3.724231
H    -1.812779  -1.211642  5.273195
H    0.706055  -1.402487  5.503879
H    0.741191  -2.298334  3.919972
N    -1.408349  2.014495  5.129350
C    -0.966300  3.119641  5.988652
H    -2.411691  1.895344  5.008392
H    -1.741823  3.305204  6.737193
H    -0.813816  4.026206  5.388611
H    -0.026330  2.850651  6.479493
H    0.784172  -4.700162  6.442141
Hg    2.029473  -0.071961  3.672426
