29
Energy: -573094.377176 eV PBE+vdW (tier 2 basis)
C    -1.162978  -0.655354  -0.461249
C    -0.515727  -0.394158  0.865931
O    0.540719  -0.887318  1.219451
H    -1.518697  0.271330  -0.930747
H    -2.013225  -1.343436  -0.336061
H    -0.434297  -1.141744  -1.116718
N    -1.150394  0.467256  1.792398
C    -2.555180  0.767924  1.848648
C    -2.905621  2.126679  1.149679
O    -4.089784  2.445165  0.842229
H    -0.626428  0.514527  2.669983
H    -3.116805  0.030038  1.246888
C    -3.093868  0.750770  3.301626
C    -3.693708  -0.617538  3.751477
C    -5.029235  -0.746494  3.067516
O    -5.051420  -0.808473  1.818485
O    -6.165620  -0.646837  3.718733
H    -3.850036  1.537757  3.431112
H    -2.280487  1.007798  3.995123
H    -3.787509  -0.647993  4.844484
H    -3.042737  -1.450611  3.450873
N    -1.905513  2.957373  0.927076
C    -2.015382  4.286232  0.321006
H    -0.992941  2.643705  1.265188
H    -2.217330  5.041456  1.092348
H    -2.828960  4.291726  -0.410705
H    -1.064172  4.520414  -0.167320
H    -6.058578  -0.645284  4.691708
Hg    -5.935607  0.998229  0.603591
