29
Energy: -573095.211918 eV PBE+vdW (tier 2 basis)
C    0.749125  -0.094105  0.260170
C    0.581089  -0.000501  1.743702
O    1.337756  0.848169  2.330863
H    1.804721  -0.275171  0.021082
H    0.481068  0.877333  -0.182346
H    0.120506  -0.873229  -0.185808
N    -0.333431  -0.789046  2.338229
C    -0.972645  -0.652232  3.661103
C    -0.264664  -1.493896  4.759069
O    0.649995  -0.949248  5.514167
H    -0.782905  -1.450583  1.708915
H    -0.812729  0.389428  3.985191
C    -2.529711  -0.784770  3.575851
C    -3.211556  -1.626622  2.488232
C    -3.158904  -3.135273  2.605514
O    -2.418124  -3.766477  3.358964
O    -4.010778  -3.717559  1.777746
H    -2.900522  0.238082  3.429257
H    -2.892004  -1.085310  4.568227
H    -2.889795  -1.356486  1.467847
H    -4.276571  -1.348784  2.485812
N    -0.612773  -2.728107  4.977956
C    -0.012563  -3.607277  5.983359
H    -1.397081  -3.122117  4.377765
H    -0.511888  -3.461693  6.951184
H    1.054097  -3.390308  6.097532
H    -0.163270  -4.641114  5.658849
H    -3.961868  -4.692933  1.872678
Hg    1.615730  0.671970  4.487691
