29
Energy: -573095.091772 eV PBE+vdW (tier 2 basis)
C    -0.664167  -1.197573  0.582572
C    -1.216879  -0.731570  1.892378
O    -1.562140  -1.459131  2.810126
H    -0.183862  -0.404483  -0.001972
H    -1.489595  -1.615454  -0.012708
H    0.042963  -2.015930  0.759098
N    -1.378083  0.673903  2.041035
C    -1.821747  1.133246  3.329594
C    -3.236095  1.739240  3.302175
O    -3.885240  2.011125  4.407088
H    -0.808529  1.282971  1.457720
H    -1.975268  0.152114  3.855416
C    -0.748334  1.995250  4.074568
C    0.294068  1.190817  4.887434
C    0.044193  0.784922  6.332349
O    -1.027160  0.872226  7.014271
O    1.025934  0.280096  7.017671
H    -1.184552  2.807273  4.682733
H    -0.187802  2.552334  3.310681
H    1.231187  1.770934  4.916050
H    0.549212  0.256219  4.356364
N    -3.837473  1.920601  2.159671
C    -5.211394  2.391417  1.951485
H    -3.277867  1.660287  1.342909
H    -5.189887  3.420544  1.571354
H    -5.761936  2.358181  2.894517
H    -5.692358  1.743479  1.210745
H    1.875175  0.226692  6.531749
Hg    -2.770361  1.431855  6.037949
