29
Energy: -573095.098683 eV PBE+vdW (tier 2 basis)
C    0.782445  2.246228  1.426912
C    0.337409  0.956517  2.025460
O    1.280414  0.327208  2.684006
H    1.618389  2.045690  0.739844
H    -0.025256  2.741424  0.877639
H    1.168664  2.907656  2.214150
N    -0.910467  0.552602  1.864472
C    -1.577982  -0.761128  1.944320
C    -2.378626  -0.771762  0.569461
O    -2.675353  0.330338  0.110778
H    -1.504571  1.122621  1.215252
H    -0.847214  -1.585672  1.940950
C    -2.657898  -0.880162  3.053952
C    -2.287643  -0.898670  4.570986
C    -1.687957  -2.182824  5.093644
O    -0.449271  -2.483712  5.031449
O    -2.412102  -3.105375  5.649738
H    -3.263277  -1.769020  2.827677
H    -3.334809  -0.023239  2.928424
H    -3.216581  -0.701249  5.125780
H    -1.615651  -0.063762  4.829166
N    -2.713664  -1.951039  0.033893
C    -2.301419  -3.290041  0.451437
H    -3.258912  -1.870782  -0.823802
H    -2.736440  -4.010343  -0.247109
H    -1.210444  -3.413421  0.412397
H    -2.673966  -3.546479  1.452944
H    -3.353721  -2.861062  5.763794
Hg    0.692576  -1.170422  3.915136
