29
Energy: -573094.896697 eV PBE+vdW (tier 2 basis)
C    0.484707  1.528375  0.755571
C    0.411940  0.654426  1.969362
O    1.481958  0.678221  2.695963
H    -0.277485  1.270548  0.011868
H    1.485341  1.453317  0.311538
H    0.351436  2.575109  1.069529
N    -0.720297  -0.016981  2.196340
C    -1.102648  -1.238504  2.977685
C    -1.387967  -1.063409  4.481126
O    -0.470219  -1.037988  5.404550
H    -1.360519  0.021007  1.391700
H    -2.075032  -1.459466  2.527790
C    -0.233491  -2.482833  2.680790
C    -0.013638  -2.763992  1.179074
C    -1.239686  -2.595894  0.290352
O    -1.996664  -1.629289  0.340940
O    -1.368819  -3.596318  -0.571818
H    -0.740841  -3.337219  3.153461
H    0.757980  -2.430519  3.160420
H    0.389018  -3.776852  1.064957
H    0.752805  -2.086885  0.769104
N    -2.631619  -1.059722  4.914162
C    -3.895962  -1.214897  4.180504
H    -2.714445  -1.006844  5.934002
H    -4.678092  -0.722286  4.767226
H    -4.150470  -2.277883  4.076840
H    -3.847813  -0.736925  3.197856
H    -2.130197  -3.423238  -1.166340
Hg    1.308976  -0.200972  4.608256
