29
Energy: -573094.978594 eV PBE+vdW (tier 2 basis)
C    0.795349  0.166882  -0.145069
C    0.336966  1.057470  0.970440
O    1.066297  2.119281  1.109358
H    0.401496  -0.850493  -0.042317
H    1.891543  0.146762  -0.170841
H    0.455093  0.598104  -1.098945
N    -0.752433  0.693699  1.648127
C    -1.337931  0.990629  2.995254
C    -2.067100  2.337658  3.192654
O    -1.490373  3.464604  3.475493
H    -0.984788  -0.301062  1.474404
H    -2.144399  0.246433  3.032166
C    -0.361320  0.643403  4.158028
C    -0.488493  -0.803176  4.670971
C    -0.438154  -1.923394  3.643167
O    -0.792994  -1.832375  2.469517
O    -0.012668  -3.053593  4.192182
H    -0.555657  1.309167  5.010526
H    0.675813  0.833973  3.842870
H    -1.448917  -0.928192  5.199941
H    0.281830  -0.986125  5.430712
N    -3.384002  2.310281  3.202527
C    -4.256383  3.462146  3.456133
H    -3.840163  1.407893  3.076380
H    -4.513320  3.505783  4.523233
H    -5.171736  3.335534  2.869402
H    -3.742649  4.383988  3.170632
H    -0.064347  -3.781037  3.536201
Hg    0.405070  3.548918  2.508477
