29
Energy: -573095.210995 eV PBE+vdW (tier 2 basis)
C    0.025846  -0.743942  0.694046
C    -0.549653  -0.549295  2.055093
O    0.167562  -0.900987  3.056654
H    1.119523  -0.713923  0.762149
H    -0.321220  0.010138  -0.020885
H    -0.243989  -1.746572  0.325257
N    -1.763361  -0.008355  2.259977
C    -2.944677  0.018184  1.378265
C    -3.783797  1.245719  1.730597
O    -4.151779  1.485660  2.953433
H    -1.972741  0.166699  3.243935
H    -2.593588  0.120501  0.345322
C    -3.793479  -1.299028  1.442516
C    -4.529930  -1.676505  2.760244
C    -3.560204  -1.568987  3.928742
O    -2.858091  -2.614904  4.183432
O    -3.351348  -0.445777  4.468606
H    -3.112436  -2.113674  1.159117
H    -4.554062  -1.246800  0.649630
H    -4.896627  -2.704270  2.661528
H    -5.389145  -1.022540  2.955897
N    -4.197675  2.085205  0.814882
C    -3.912737  2.085396  -0.628502
H    -4.784956  2.844783  1.170404
H    -2.858184  2.321485  -0.816605
H    -4.526902  2.865694  -1.085975
H    -4.184522  1.126870  -1.084667
H    -3.902813  0.752166  3.635559
Hg    -0.951325  -1.747990  4.811856
