29
Energy: -573094.578498 eV PBE+vdW (tier 2 basis)
C    0.750634  -1.307682  -0.212830
C    0.478353  -0.230482  0.770124
O    1.322099  0.730679  0.812508
H    1.684371  -1.809832  0.088352
H    0.921512  -0.887853  -1.211794
H    -0.044564  -2.076762  -0.211644
N    -0.552300  -0.253111  1.636916
C    -1.844808  -0.972748  1.602850
C    -1.654471  -2.517604  1.765260
O    -1.287942  -3.194419  0.800223
H    -0.498664  0.463381  2.359291
H    -2.376739  -0.600686  2.489012
C    -2.698261  -0.678819  0.357181
C    -3.216268  0.785824  0.239334
C    -2.094996  1.767428  0.008165
O    -1.620233  2.427543  0.948068
O    -1.532456  1.878079  -1.187571
H    -3.590268  -1.319812  0.402695
H    -2.162212  -0.986947  -0.550894
H    -3.749630  1.089290  1.148074
H    -3.930213  0.836556  -0.596380
N    -1.929459  -3.034056  2.974700
C    -1.891100  -4.468139  3.247688
H    -2.318458  -2.427398  3.692227
H    -1.625440  -4.616826  4.299860
H    -1.152333  -4.936827  2.588960
H    -2.871832  -4.929735  3.060362
H    -2.018729  1.401773  -1.890311
Hg    0.705557  2.928395  0.847323
