29
Energy: -573094.615853 eV PBE+vdW (tier 2 basis)
C    0.260303  -0.900490  0.991663
C    -0.148489  -0.466172  2.363686
O    0.631885  -0.789374  3.327105
H    0.027166  -0.138018  0.238705
H    -0.245134  -1.841803  0.726872
H    1.338156  -1.096710  0.986251
N    -1.261162  0.234470  2.588573
C    -2.420997  0.465202  1.734663
C    -2.599772  2.015537  1.606622
O    -2.471570  2.694776  2.620044
H    -1.380869  0.602299  3.534127
H    -2.244541  -0.002902  0.757627
C    -3.710790  -0.081049  2.403368
C    -3.743222  -1.587215  2.701754
C    -2.813094  -2.053908  3.804717
O    -2.421526  -1.287549  4.700427
O    -2.373847  -3.301941  3.809356
H    -4.553804  0.144893  1.735646
H    -3.892659  0.487534  3.326335
H    -3.546548  -2.192529  1.802155
H    -4.766100  -1.856138  3.020009
N    -2.925785  2.508311  0.390878
C    -3.095150  3.932999  0.141836
H    -2.937795  1.880898  -0.410009
H    -2.155863  4.386550  -0.212723
H    -3.388737  4.425549  1.074863
H    -3.857948  4.067336  -0.634215
H    -2.776326  -3.860180  3.113823
Hg    -0.140263  -1.420125  5.376771
