29
Energy: -573095.213071 eV PBE+vdW (tier 2 basis)
C    0.480285  0.498388  -0.186598
C    0.310568  0.548127  1.301231
O    1.295850  0.551760  2.086264
H    -0.454307  0.341043  -0.735478
H    1.187491  -0.302144  -0.437928
H    0.918322  1.448888  -0.526743
N    -0.957812  0.574829  1.771602
C    -1.558575  0.622201  3.128201
C    -2.417193  1.892818  3.205466
O    -1.907392  3.069298  3.044068
H    -1.657794  0.437370  1.044686
H    -2.252113  -0.232775  3.141826
C    -0.679504  0.421671  4.398937
C    -0.031205  1.630502  5.119629
C    1.000486  2.292414  4.208397
O    2.213016  1.947622  4.420933
O    0.628349  3.015641  3.247223
H    0.076229  -0.342126  4.183133
H    -1.358182  -0.021187  5.142914
H    0.465537  1.262615  6.022941
H    -0.768451  2.386853  5.420763
N    -3.704253  1.788263  3.437548
C    -4.643377  2.908618  3.586842
H    -4.093509  0.849746  3.511488
H    -5.265435  2.984485  2.685940
H    -4.087372  3.837673  3.729746
H    -5.284885  2.712309  4.452711
H    -0.866857  3.082708  3.050249
Hg    2.992825  2.163728  2.377276
