29
Energy: -573095.580623 eV PBE+vdW (tier 2 basis)
C    -1.471536  0.231921  0.099795
C    -1.055771  0.061008  1.528519
O    0.160847  -0.047614  1.809851
H    -1.138859  1.224245  -0.238823
H    -2.552126  0.147357  -0.058128
H    -0.946871  -0.504979  -0.520439
N    -2.044731  0.035301  2.462761
C    -1.942759  -0.027895  3.928606
C    -1.174986  1.201421  4.495378
O    0.098979  1.278629  4.622395
H    -2.987782  0.143140  2.100295
H    -2.978992  0.114842  4.256060
C    -1.499598  -1.407391  4.567249
C    -1.145270  -2.603648  3.640644
C    0.244562  -3.206670  3.779923
O    1.319750  -2.563447  3.911778
O    0.401671  -4.500577  3.718619
H    -2.343561  -1.728779  5.188633
H    -0.703734  -1.237140  5.311250
H    -1.234471  -2.328135  2.576232
H    -1.882689  -3.402283  3.788738
N    -1.897144  2.241012  4.867128
C    -1.331061  3.494009  5.386805
H    -2.910306  2.168411  4.818369
H    -0.512237  3.827728  4.740535
H    -0.948661  3.341875  6.404050
H    -2.123229  4.246738  5.402910
H    -0.436747  -4.999401  3.648945
Hg    1.169314  -0.423680  3.874919
