29
Energy: -573095.199836 eV PBE+vdW (tier 2 basis)
C    -0.847783  2.373806  1.728463
C    0.043501  1.207391  1.920128
O    1.314712  1.513695  1.988095
H    -0.483496  3.205820  2.344402
H    -1.894899  2.166543  1.963025
H    -0.776021  2.704717  0.679819
N    -0.363493  -0.042367  2.004111
C    -1.743072  -0.550907  1.958744
C    -1.715462  -1.897376  2.736883
O    -0.616297  -2.495184  2.870340
H    0.313175  -0.800606  2.168875
H    -2.392581  0.141323  2.512314
C    -2.309661  -0.678127  0.512833
C    -1.447429  -1.345664  -0.574697
C    -0.918829  -2.704156  -0.073831
O    -1.767675  -3.579680  0.254560
O    0.328939  -2.784341  0.126253
H    -2.515913  0.342706  0.156278
H    -3.281032  -1.185731  0.581258
H    -0.588305  -0.734883  -0.867096
H    -2.067006  -1.526361  -1.462533
N    -2.869600  -2.346711  3.213548
C    -3.013881  -3.628782  3.901088
H    -3.712167  -1.797464  3.062527
H    -3.957069  -3.625239  4.454834
H    -2.182612  -3.770872  4.599335
H    -3.041863  -4.457592  3.176756
H    1.928701  0.758757  2.094458
Hg    -0.088530  -4.592795  1.547762
