29
Energy: -573094.896476 eV PBE+vdW (tier 2 basis)
C    0.226958  -0.062227  0.325577
C    0.009914  0.253821  1.757124
O    0.986569  0.665115  2.461770
H    1.130912  -0.687485  0.247880
H    0.463277  0.861801  -0.224759
H    -0.617936  -0.587264  -0.128343
N    -1.223093  0.111844  2.343050
C    -2.465954  0.726789  1.854274
C    -2.168135  2.177338  1.412100
O    -1.318680  2.883389  2.034620
H    -1.190315  -0.100351  3.340025
H    -2.858688  0.145694  1.006428
C    -3.549341  0.714682  2.970269
C    -3.554893  1.853308  4.042740
C    -2.741966  1.662874  5.307906
O    -1.512347  1.893325  5.450658
O    -3.327040  1.250286  6.403988
H    -3.553593  -0.279777  3.441016
H    -4.515381  0.793359  2.456543
H    -4.601262  1.988086  4.348517
H    -3.246536  2.811152  3.601221
N    -2.869353  2.658592  0.395806
C    -2.783174  4.030415  -0.117706
H    -3.499935  2.022901  -0.088840
H    -2.135586  4.619227  0.535551
H    -3.786478  4.470627  -0.145844
H    -2.369150  4.018180  -1.133282
H    -4.294229  1.135753  6.314414
Hg    -0.021566  2.082548  3.862297
