29
Energy: -573095.20443 eV PBE+vdW (tier 2 basis)
C    -1.668548  -1.887233  0.526957
C    -0.744722  -1.038525  1.343209
O    0.505596  -1.195065  1.086641
H    -2.706004  -1.807276  0.872088
H    -1.335437  -2.931585  0.554218
H    -1.615069  -1.553065  -0.520339
N    -1.267008  -0.191710  2.236808
C    -0.576786  0.905477  2.933262
C    0.069680  0.413364  4.250554
O    1.361591  0.344031  4.348204
H    -2.264786  -0.283824  2.442944
H    0.271034  1.192616  2.289518
C    -1.406184  2.223406  2.988546
C    -2.495925  2.485685  4.044346
C    -3.562488  1.426208  4.158425
O    -3.288969  0.219201  4.229430
O    -4.791128  1.901264  4.198382
H    -1.831746  2.343032  1.980922
H    -0.669716  3.032022  3.093798
H    -2.957138  3.455492  3.821297
H    -2.050471  2.594388  5.047369
N    -0.697972  0.065329  5.252921
C    -0.235220  -0.450188  6.540213
H    -1.724746  0.123538  5.065166
H    0.773295  -0.862220  6.441881
H    -0.940546  -1.217233  6.877513
H    -0.216599  0.361401  7.281087
H    -5.435172  1.172465  4.334399
Hg    2.066184  -0.431999  2.423244
