29
Energy: -573095.195888 eV PBE+vdW (tier 2 basis)
C    1.660450  -1.029759  1.525442
C    0.834713  -0.946387  2.761235
O    1.493122  -1.216948  3.863126
H    2.094238  -2.037843  1.452958
H    2.499300  -0.323562  1.596240
H    1.070030  -0.822469  0.626585
N    -0.443389  -0.632496  2.684047
C    -1.525802  -0.618581  3.677191
C    -2.802430  -0.764251  2.762242
O    -2.702958  -0.285147  1.634074
H    -0.861202  -0.414494  1.754752
H    -1.435148  -1.491504  4.344729
C    -1.590614  0.751285  4.436224
C    -2.343530  0.806315  5.778356
C    -1.679496  0.365192  7.068261
O    -0.554230  -0.204865  7.226174
O    -2.290398  0.574736  8.197031
H    -2.087826  1.462644  3.760333
H    -0.581039  1.184794  4.546727
H    -3.300711  0.261097  5.722084
H    -2.636167  1.855942  5.953306
N    -3.921391  -1.319446  3.253795
C    -4.135974  -2.132896  4.447666
H    -4.688395  -1.306347  2.579441
H    -4.378619  -3.165291  4.164732
H    -4.969393  -1.732191  5.038886
H    -3.239565  -2.163199  5.075719
H    -3.143914  1.048734  8.113571
Hg    0.624847  -0.788810  5.641807
