29
Energy: -573094.703806 eV PBE+vdW (tier 2 basis)
C    -1.141440  0.253964  -0.409411
C    -1.006399  -0.173466  1.013695
O    -0.234242  -1.051830  1.405663
H    -0.390553  1.037838  -0.600374
H    -2.129825  0.666731  -0.644709
H    -0.914179  -0.587194  -1.072396
N    -1.790322  0.483322  1.962912
C    -1.599981  0.307726  3.370925
C    -2.189578  -1.082497  3.914589
O    -3.161906  -1.023594  4.708928
H    -2.568001  1.049953  1.631173
H    -0.513519  0.148450  3.524579
C    -2.033297  1.520781  4.201721
C    -3.433096  2.168572  3.988583
C    -4.564287  1.258813  4.413956
O    -5.106870  0.510383  3.584334
O    -4.948058  1.199183  5.675891
H    -1.309931  2.317262  3.971408
H    -1.897939  1.269781  5.262172
H    -3.603035  2.454710  2.943060
H    -3.467830  3.099735  4.572726
N    -1.571223  -2.170582  3.501379
C    -2.039645  -3.525967  3.768301
H    -0.797437  -2.016456  2.829112
H    -1.247434  -4.225029  3.485752
H    -2.938837  -3.764446  3.177262
H    -2.269672  -3.631642  4.835398
H    -4.507723  1.853161  6.254456
Hg    -5.448512  -1.660379  4.514159
