29
Energy: -573094.936082 eV PBE+vdW (tier 2 basis)
C    0.209842  -0.967790  0.654583
C    0.066560  -0.223337  1.943433
O    1.044947  0.221000  2.570567
H    0.788676  -0.353934  -0.047455
H    -0.742267  -1.254000  0.195537
H    0.803412  -1.873578  0.843299
N    -1.208898  -0.031885  2.420042
C    -1.553102  0.462246  3.757026
C    -1.157025  1.948759  3.974116
O    -2.039220  2.837116  4.411911
H    -1.981471  -0.351305  1.843560
H    -2.654681  0.457947  3.756607
C    -1.029194  -0.543075  4.838721
C    -1.344324  -0.347029  6.356607
C    -2.754796  -0.647816  6.829144
O    -3.715277  0.190821  6.854293
O    -3.088202  -1.823031  7.270882
H    0.065482  -0.569019  4.765704
H    -1.383007  -1.533457  4.521292
H    -1.072301  0.663404  6.704645
H    -0.662879  -1.018945  6.899546
N    0.040583  2.346273  3.670823
C    0.559440  3.708664  3.782926
H    0.642869  1.561798  3.243141
H    1.617868  3.647434  4.056597
H    -0.001920  4.280327  4.526864
H    0.479355  4.208713  2.807716
H    -2.344864  -2.458361  7.322912
Hg    -3.282797  1.949751  5.787763
