29
Energy: -573095.11011 eV PBE+vdW (tier 2 basis)
C    -0.858481  -0.199421  -0.461413
C    -0.634066  -0.309344  1.018216
O    0.542616  -0.705700  1.337316
H    -0.103971  0.480221  -0.881279
H    -1.857864  0.167432  -0.719669
H    -0.696342  -1.183147  -0.922250
N    -1.655330  0.022972  1.819775
C    -1.931804  0.180563  3.286083
C    -0.857321  0.966932  4.055911
O    0.265544  0.474950  4.370199
H    -2.472109  0.285831  1.272426
H    -2.816833  0.830766  3.266763
C    -2.458248  -1.089889  4.009998
C    -1.572085  -2.327539  4.257847
C    -0.638726  -2.222346  5.442190
O    -0.873979  -1.951424  6.569870
O    0.742830  -2.568223  5.066647
H    -3.326439  -1.431260  3.429826
H    -2.862531  -0.751654  4.976164
H    -1.062925  -2.679935  3.347941
H    -2.249681  -3.154979  4.528755
N    -1.189314  2.188688  4.453040
C    -0.321370  3.055055  5.256445
H    -2.120272  2.536724  4.238801
H    -0.480998  2.865919  6.326152
H    -0.567936  4.097177  5.032795
H    0.724606  2.855895  5.007047
H    1.300062  -2.511583  5.878081
Hg    1.160442  -1.330359  3.260811
