29
Energy: -573095.0173 eV PBE+vdW (tier 2 basis)
C    -0.175057  0.515690  -0.193946
C    -0.003163  0.018124  1.207874
O    1.177194  -0.254519  1.582576
H    0.418572  1.431220  -0.322778
H    -1.222550  0.721243  -0.441614
H    0.231285  -0.231162  -0.888993
N    -1.105933  -0.111799  1.982451
C    -1.046519  -0.450664  3.396010
C    -1.000893  -1.973440  3.646547
O    0.125502  -2.520541  3.898714
H    -1.998782  0.123728  1.554266
H    -0.050651  -0.130375  3.695367
C    -1.919127  0.394165  4.345931
C    -1.106537  1.591200  4.905529
C    0.133045  1.227697  5.729423
O    1.077732  0.515960  5.345992
O    0.250692  1.729073  6.943180
H    -2.267599  -0.233220  5.177635
H    -2.819047  0.778978  3.846371
H    -1.778587  2.218874  5.504214
H    -0.753790  2.226997  4.076886
N    -2.103065  -2.696132  3.598821
C    -2.159707  -4.150130  3.807758
H    -2.986204  -2.209701  3.460492
H    -2.315238  -4.373475  4.870998
H    -1.220163  -4.601314  3.476310
H    -2.994357  -4.551682  3.225593
H    -0.500720  2.297142  7.202100
Hg    1.840291  -1.050645  3.631114
