29
Energy: -573094.702733 eV PBE+vdW (tier 2 basis)
C    -0.339141  1.329360  0.064306
C    -0.652882  0.515055  1.275250
O    0.043276  0.568002  2.353981
H    -0.864161  0.978950  -0.830683
H    0.742127  1.313597  -0.119962
H    -0.647890  2.373095  0.242029
N    -1.687841  -0.318040  1.239361
C    -2.163213  -1.210329  2.292540
C    -3.273137  -2.027937  1.583862
O    -3.745964  -1.582827  0.532662
H    -2.229720  -0.437242  0.368401
H    -1.340387  -1.869554  2.608754
C    -2.727684  -0.527811  3.580704
C    -3.526669  0.800504  3.392439
C    -2.623755  1.948305  3.797053
O    -1.930039  2.526296  2.945602
O    -2.464936  2.267407  5.068662
H    -1.883502  -0.381087  4.265217
H    -3.385002  -1.251928  4.081170
H    -4.430106  0.794196  4.016393
H    -3.844515  0.951852  2.354784
N    -3.686022  -3.171465  2.164340
C    -4.713313  -4.025576  1.582311
H    -3.140841  -3.549366  2.937206
H    -5.400625  -3.409750  0.992413
H    -5.240885  -4.545836  2.389499
H    -4.263901  -4.778750  0.915579
H    -3.095309  1.816428  5.664849
Hg    0.435691  2.653299  3.167228
