29
Energy: -573094.69416 eV PBE+vdW (tier 2 basis)
C    -0.283107  1.504578  0.498003
C    -1.005124  0.197706  0.666781
O    -1.239995  -0.430655  -0.414982
H    0.691185  1.312071  0.028598
H    -0.138313  2.039685  1.443044
H    -0.854774  2.137173  -0.194374
N    -1.316118  -0.175830  1.919158
C    -2.122719  -1.263421  2.552401
C    -1.513745  -2.677456  2.420757
O    -1.650874  -3.445096  1.405548
H    -0.993464  0.501555  2.605739
H    -2.005694  -1.022703  3.617477
C    -3.656895  -1.175814  2.358501
C    -4.326300  -1.352514  0.988782
C    -5.833085  -1.012681  1.061953
O    -6.296553  -0.395277  1.992469
O    -6.483640  -1.461347  -0.007490
H    -3.956086  -0.192828  2.748588
H    -4.091361  -1.906275  3.057376
H    -4.302363  -2.394397  0.609765
H    -3.940185  -0.652484  0.226593
N    -0.871102  -3.148677  3.477114
C    -0.267076  -4.482810  3.557565
H    -0.850933  -2.581500  4.321965
H    0.553711  -4.446273  4.279927
H    0.107795  -4.775806  2.572468
H    -1.013205  -5.216026  3.891928
H    -7.430229  -1.207287  0.048487
Hg    -2.073098  -2.468958  -0.534464
