29
Energy: -573095.041154 eV PBE+vdW (tier 2 basis)
C    -1.420239  -0.441888  0.022752
C    -0.972150  -0.292531  1.445098
O    0.259340  -0.434267  1.688057
H    -1.065839  -1.404974  -0.366968
H    -0.936723  0.341433  -0.578031
H    -2.506360  -0.373018  -0.101289
N    -1.919080  -0.012013  2.367258
C    -1.835011  0.231580  3.822127
C    -0.953157  1.470135  4.136176
O    0.318742  1.429474  4.261892
H    -2.858499  0.064795  1.986827
H    -2.860369  0.522829  4.077175
C    -1.483795  -0.985286  4.755955
C    -1.338137  -2.391100  4.112359
C    -0.203391  -3.210884  4.672997
O    -0.211460  -4.269636  5.203824
O    1.093127  -2.572332  4.472840
H    -2.278206  -1.037526  5.509927
H    -0.591270  -0.735044  5.348944
H    -1.179499  -2.336089  3.025205
H    -2.244966  -2.987041  4.260471
N    -1.569501  2.626491  4.296833
C    -0.889471  3.895853  4.586514
H    -2.586217  2.638595  4.265708
H    -0.660695  3.965628  5.657878
H    -1.555787  4.715117  4.302960
H    0.041159  3.954307  4.013781
H    1.789004  -3.157446  4.849923
Hg    1.314455  -0.448160  3.684806
