29
Energy: -573095.345381 eV PBE+vdW (tier 2 basis)
C    0.247950  1.790431  1.799093
C    -0.351234  0.423359  1.906478
O    0.413340  -0.526248  2.253584
H    1.167846  1.737125  1.204002
H    0.531453  2.130916  2.805604
H    -0.442993  2.515583  1.353983
N    -1.670915  0.274201  1.630577
C    -2.349381  -0.985056  1.875155
C    -2.181973  -1.981884  0.699987
O    -1.396251  -2.977633  0.821892
H    -2.195032  1.107488  1.372815
H    -1.771794  -1.417474  2.694718
C    -3.750901  -0.959178  2.494450
C    -4.062383  -2.343744  3.124714
C    -3.174894  -2.780675  4.281231
O    -1.942081  -2.996320  4.275743
O    -3.862094  -2.959142  5.388871
H    -4.541623  -0.723825  1.768748
H    -3.781404  -0.175501  3.264577
H    -3.997491  -3.137975  2.362998
H    -5.094903  -2.343978  3.489990
N    -2.859010  -1.791129  -0.416967
C    -2.763639  -2.645364  -1.608687
H    -3.525318  -1.022567  -0.447469
H    -2.909112  -2.021606  -2.495909
H    -3.537472  -3.423196  -1.580580
H    -1.777289  -3.116779  -1.637837
H    -3.284144  -3.284699  6.114823
Hg    -0.125259  -2.746129  2.691416
