25
Energy: -35690.5982574 eV PBE+vdW (tier 2 basis)
N    0.117529  2.488712  3.486727
C    -0.214779  1.083357  3.030721
C    0.412636  1.009460  1.601160
O    0.588663  -0.176941  1.108568
H    0.946348  2.527204  4.093011
H    0.351866  2.966296  2.566278
H    0.277036  0.368115  3.699982
C    -1.760062  0.876233  3.042034
C    -2.127996  -0.339948  2.230761
C    -1.892410  -1.631184  2.724813
C    -2.523286  -0.190705  0.894978
C    -1.847761  -2.734215  1.868615
C    -2.498350  -1.281450  0.018837
C    -2.082771  -2.531302  0.503280
O    -1.662715  -3.438206  -0.474729
H    -2.242445  1.765298  2.609271
H    -2.095394  0.784363  4.085010
H    -1.663869  -1.781406  3.780716
H    -2.797770  0.791116  0.508027
H    -1.591548  -3.722900  2.253099
H    -2.799273  -1.179427  -1.026333
H    -1.792395  -4.368222  -0.208439
O    0.671649  2.076354  1.051754
H    -0.654904  2.965708  3.967260
Ca    0.233002  -1.702310  -0.250401
