25
Energy: -35690.0042642 eV PBE+vdW (tier 2 basis)
N    2.044933  -0.755320  0.365092
C    0.824334  -0.333858  1.021887
C    0.730134  1.159017  1.335248
O    1.787102  1.889072  1.369112
H    2.030561  -0.625696  -0.644797
H    2.878648  -0.300660  0.740114
H    -0.027578  -0.550963  0.360312
C    0.646109  -1.142044  2.343026
C    0.899657  -2.649700  2.054317
C    1.594484  -3.386611  3.115438
C    -0.207075  -3.378946  1.417086
C    1.312632  -4.686540  3.413057
C    -0.494256  -4.674954  1.713160
C    0.267180  -5.350948  2.710950
O    -0.062455  -6.605240  2.935492
H    -0.345632  -0.974826  2.779508
H    1.394996  -0.804692  3.074312
H    2.394441  -2.876821  3.655208
H    -0.798246  -2.868545  0.655032
H    1.872638  -5.219484  4.183045
H    -1.297571  -5.219556  1.218648
H    0.486659  -7.024589  3.627493
O    -0.417250  1.690330  1.568686
H    1.687163  -2.516503  1.221497
Ca    0.533392  3.630076  1.744078
