25
Energy: -35691.1069984 eV PBE+vdW (tier 2 basis)
N    -0.529566  0.891282  2.437430
C    0.131715  -0.375116  2.005743
C    -0.050743  -0.460119  0.497737
O    -1.066167  -0.001126  -0.057789
H    -0.498636  0.946082  3.460769
H    0.038634  1.686926  2.123379
H    1.205299  -0.397336  2.240622
C    -0.553025  -1.603985  2.698726
C    -2.061270  -1.558111  2.593461
C    -2.838090  -0.875009  3.558806
C    -2.744523  -2.091202  1.480613
C    -4.209887  -0.669700  3.393194
C    -4.120435  -1.901574  1.295742
C    -4.878354  -1.202148  2.263802
O    -6.196076  -0.994576  2.190912
H    -0.242331  -1.595163  3.752675
H    -0.144423  -2.524736  2.262603
H    -2.365192  -0.496878  4.466905
H    -2.197072  -2.660244  0.728023
H    -4.797501  -0.159414  4.156931
H    -4.613408  -2.342990  0.427634
H    -6.617146  -1.487439  1.462061
O    0.913169  -1.080702  -0.130416
H    0.739269  -1.137855  -1.096313
Ca    -2.752242  0.668132  1.306751
