25
Energy: -35690.5871586 eV PBE+vdW (tier 2 basis)
N    0.140416  2.455292  3.551077
C    -0.183410  1.030271  3.154967
C    0.512704  0.876124  1.762866
O    0.715994  -0.336524  1.351558
H    0.411675  2.884124  2.616915
H    -0.645648  2.959413  3.978962
H    0.269361  0.349224  3.884541
C    -1.729678  0.836957  3.102184
C    -2.080762  -0.380910  2.284764
C    -1.823726  -1.669673  2.773064
C    -2.481858  -0.232297  0.949853
C    -1.783323  -2.765795  1.905549
C    -2.450316  -1.312599  0.062067
C    -2.036427  -2.562291  0.540868
O    -1.570666  -3.563337  -0.319679
H    -2.184523  1.726240  2.641445
H    -2.111207  0.758986  4.130361
H    -1.593085  -1.824651  3.827718
H    -2.752326  0.751583  0.565443
H    -1.556087  -3.770041  2.267281
H    -2.708959  -1.171719  -0.989244
H    -2.135324  -3.675526  -1.108097
O    0.797129  1.910255  1.166937
H    0.947443  2.521101  4.183946
Ca    0.446603  -2.064208  0.244656
