25
Energy: -35690.8467979 eV PBE+vdW (tier 2 basis)
N    -0.009084  2.409880  3.630260
C    -0.115062  1.047553  2.983171
C    0.747968  1.200396  1.691884
O    0.898299  0.123201  0.995208
H    0.550582  2.938320  2.876874
H    -0.911858  2.869983  3.797138
H    0.354234  0.315047  3.651607
C    -1.588577  0.678496  2.696006
C    -1.794523  -0.614251  1.928965
C    -1.461188  -1.871049  2.474726
C    -2.388991  -0.605177  0.648639
C    -1.708495  -3.067253  1.784607
C    -2.651635  -1.787869  -0.055223
C    -2.353156  -3.043850  0.524057
O    -2.681001  -4.132033  -0.182553
H    -2.056012  1.497532  2.129316
H    -2.127548  0.604955  3.653567
H    -1.010185  -1.936234  3.466323
H    -2.669490  0.344141  0.189072
H    -1.461287  -4.020290  2.256392
H    -3.150030  -1.760780  -1.025056
H    -2.568850  -4.958841  0.322248
O    1.193740  2.315136  1.442100
H    0.517716  2.404524  4.511296
Ca    0.125434  -1.595537  0.174376
