25
Energy: -35690.490581 eV PBE+vdW (tier 2 basis)
N    -0.475946  0.393188  0.213508
C    -0.179015  0.082828  1.658610
C    1.311832  0.116852  1.899242
O    1.748385  0.158455  3.098993
H    -1.351524  -0.144221  -0.030084
H    -0.631726  1.392788  0.036627
H    -0.676422  0.837230  2.279436
C    -0.778476  -1.334105  1.993394
C    -2.182977  -1.444460  1.471345
C    -2.434044  -2.040607  0.216163
C    -3.270983  -0.912452  2.185878
C    -3.720688  -2.107601  -0.306564
C    -4.561023  -0.981244  1.677758
C    -4.797368  -1.576514  0.423221
O    -6.017251  -1.681268  -0.131938
H    -0.723804  -1.446258  3.083524
H    -0.136255  -2.106897  1.545366
H    -1.620107  -2.521014  -0.333856
H    -3.114832  -0.462511  3.168008
H    -3.918294  -2.593209  -1.260785
H    -5.395151  -0.585695  2.259039
H    -6.706603  -1.323346  0.454128
O    2.131201  0.024900  0.909490
H    0.302645  0.076493  -0.385716
Ca    3.797851  0.020227  2.375658
