25
Energy: -35688.4273619 eV PBE+vdW (tier 2 basis)
N    -0.073225  -0.486439  -0.034922
C    -0.129258  -0.137156  1.379386
C    1.269508  0.124603  1.948624
O    1.717352  -0.396875  2.951559
H    0.764768  -0.116057  -0.482197
H    -0.875143  -0.114936  -0.544000
H    -0.697797  0.794282  1.559063
C    -0.869263  -1.240480  2.208375
C    -0.146357  -2.545683  2.159388
C    0.638011  -2.983110  3.246201
C    -0.135785  -3.318201  0.972874
C    1.408378  -4.155591  3.169249
C    0.626445  -4.495682  0.875862
C    1.416587  -4.886924  1.968185
O    1.807233  -6.238257  2.113776
H    -1.873769  -1.334466  1.772958
H    -0.979109  -0.892825  3.242187
H    0.665534  -2.389922  4.158733
H    -0.728423  -2.994437  0.119496
H    2.034054  -4.478962  4.004968
H    0.612638  -5.088517  -0.042642
H    2.267007  -6.599805  1.330476
O    1.929923  1.021515  1.200438
H    2.801149  1.195556  1.612843
Ca    -0.426629  -6.028730  2.887332
