25
Energy: -35689.5392447 eV PBE+vdW (tier 2 basis)
N    0.004902  0.167488  -0.005342
C    -0.013667  0.023656  1.438329
C    1.225357  0.787893  1.902380
O    2.411977  0.342666  1.647552
H    -0.905368  0.090249  -0.450275
H    0.713164  -0.371705  -0.494884
H    -0.863148  0.613658  1.809928
C    -0.167856  -1.379383  2.083807
C    0.785415  -2.532354  1.569867
C    1.142867  -3.441971  2.683757
C    0.232804  -3.225814  0.381076
C    0.950915  -4.784790  2.640205
C    0.033702  -4.567667  0.334907
C    0.387409  -5.368378  1.466083
O    0.225198  -6.668428  1.492619
H    -1.206299  -1.707826  1.945318
H    -0.030317  -1.275938  3.170269
H    1.573215  -2.992680  3.580333
H    -0.038740  -2.619567  -0.483367
H    1.210178  -5.440308  3.470783
H    -0.389275  -5.044521  -0.550989
H    -0.164269  -7.026672  0.668810
O    1.094475  1.929143  2.472202
H    1.727017  -2.025701  1.257553
Ca    3.193343  2.307952  2.221082
