25
Energy: -35690.0411631 eV PBE+vdW (tier 2 basis)
N    -1.105072  0.855229  0.890989
C    -0.212472  0.134684  1.866931
C    1.133584  -0.113709  1.157214
O    1.212366  -0.078020  -0.052371
H    -0.803752  0.477022  -0.031230
H    -0.747971  1.819144  0.835466
H    -0.061434  0.779041  2.742697
C    -0.813411  -1.227604  2.296172
C    -2.286573  -1.133884  2.608905
C    -3.240078  -1.813646  1.821773
C    -2.779250  -0.305377  3.646934
C    -4.621968  -1.659806  2.026518
C    -4.149563  -0.134317  3.865612
C    -5.096948  -0.840006  3.078343
O    -6.382986  -0.657000  3.381594
H    -0.251839  -1.591698  3.168050
H    -0.661647  -1.965160  1.495719
H    -2.902715  -2.478940  1.024194
H    -2.080269  0.219900  4.301107
H    -5.324592  -2.220996  1.406910
H    -4.512877  0.490024  4.683185
H    -6.979948  -1.258435  2.897423
O    2.102476  -0.398900  2.023047
H    2.934012  -0.588684  1.537776
Ca    -3.479072  0.802139  1.301043
