25
Energy: -35688.9674053 eV PBE+vdW (tier 2 basis)
N    -0.864229  0.773458  -0.187598
C    -0.498551  0.393787  1.172965
C    0.969926  0.221322  0.864320
O    1.846287  1.122595  0.951952
H    -1.268423  1.699476  -0.292723
H    -1.351142  0.054181  -0.718329
H    -0.582853  1.255883  1.846884
C    -1.231831  -0.821690  1.777919
C    -1.158287  -2.075835  0.937188
C    -0.164676  -3.056541  1.179533
C    -2.048858  -2.305998  -0.126318
C    -0.045194  -4.192645  0.373155
C    -1.941342  -3.434531  -0.932285
C    -0.926419  -4.382411  -0.702398
O    -0.758178  -5.494755  -1.439658
H    -2.277437  -0.509347  1.911270
H    -0.832416  -1.004399  2.786288
H    0.444556  -2.993942  2.086057
H    -2.877400  -1.616759  -0.300189
H    0.688154  -4.966312  0.596739
H    -2.664544  -3.595673  -1.733426
H    -1.456625  -5.588039  -2.110902
O    1.450568  -0.939975  0.331070
H    0.777932  -1.749762  0.443661
Ca    3.489997  0.124535  -0.002607
