25
Energy: -35689.7734334 eV PBE+vdW (tier 2 basis)
N    0.348243  -0.768293  0.115438
C    0.187320  -0.205724  1.443258
C    1.336052  0.731362  1.780613
O    1.967084  1.329300  0.832384
H    -0.544865  -1.066686  -0.275252
H    0.766245  -0.098137  -0.530305
H    -0.684531  0.489142  1.512254
C    -0.116604  -1.265202  2.517265
C    0.988434  -2.362929  2.796760
C    0.491732  -3.206750  3.913310
C    1.385366  -3.123847  1.584826
C    0.307481  -4.545035  3.797025
C    1.187856  -4.464627  1.469521
C    0.636740  -5.191350  2.562932
O    0.476662  -6.481288  2.378085
H    -1.037060  -1.784274  2.217305
H    -0.329981  -0.757703  3.466345
H    0.234701  -2.707227  4.849108
H    1.832417  -2.570397  0.762361
H    -0.082954  -5.135705  4.627662
H    1.465107  -5.016623  0.572164
H    0.117608  -6.939667  3.164669
O    1.630749  1.006634  3.003124
H    1.873157  -1.804143  3.164603
Ca    2.969040  2.575170  2.292545
