25
Energy: -35688.3510668 eV PBE+vdW (tier 2 basis)
N    -0.763590  0.727776  0.656224
C    -0.042551  0.288035  1.831248
C    1.450545  0.037928  1.527255
O    1.861492  -0.147908  0.406784
H    -0.280133  0.404213  -0.188188
H    -0.831281  1.742739  0.604414
H    -0.121655  1.035969  2.631184
C    -0.639948  -1.073158  2.365118
C    -2.100758  -0.879713  2.571531
C    -2.642094  -0.610004  3.838513
C    -2.960514  -0.809208  1.441888
C    -4.001592  -0.281863  4.006789
C    -4.321277  -0.492558  1.588469
C    -4.817445  -0.190090  2.868520
O    -6.205489  -0.299760  3.128976
H    -0.126260  -1.360783  3.289746
H    -0.447061  -1.843125  1.604081
H    -1.996196  -0.634736  4.717357
H    -2.577713  -1.057943  0.455885
H    -4.411831  -0.046128  4.991636
H    -4.977742  -0.456058  0.714914
H    -6.760719  0.237987  2.530373
O    2.182301  0.025045  2.653969
H    3.116894  -0.146951  2.414589
Ca    -5.317750  -2.467654  3.224850
