25
Energy: -35690.9154267 eV PBE+vdW (tier 2 basis)
N    -0.545215  2.772942  2.644549
C    -0.158026  1.353750  3.017084
C    0.549871  0.760051  1.803933
O    1.220003  -0.296186  1.956695
H    -1.377390  3.112122  3.145702
H    0.222312  3.435284  2.829940
H    0.489068  1.401467  3.898172
C    -1.418568  0.445322  3.302280
C    -1.750143  -0.599760  2.247930
C    -1.299777  -1.930347  2.394962
C    -2.489227  -0.295228  1.088712
C    -1.562654  -2.909456  1.432024
C    -2.766163  -1.260261  0.109551
C    -2.338124  -2.595300  0.290487
O    -2.590852  -3.595774  -0.564198
H    -2.294715  1.090188  3.468719
H    -1.232909  -0.059962  4.256861
H    -0.722446  -2.210152  3.276773
H    -2.867392  0.715119  0.928999
H    -1.237909  -3.939800  1.580716
H    -3.368451  -0.988829  -0.759231
H    -3.235435  -3.347379  -1.252302
O    0.184788  1.202686  0.660870
H    -0.713673  2.771777  1.616916
Ca    0.134026  -1.045275  0.127858
