25
Energy: -35690.8519266 eV PBE+vdW (tier 2 basis)
N    0.361434  -0.306391  -0.137464
C    0.676367  -0.793212  1.258805
C    2.156603  -1.272940  1.142104
O    2.703982  -1.652509  2.248756
H    1.268909  -0.581694  -0.647529
H    0.228031  0.709834  -0.195627
H    0.622425  0.065321  1.939629
C    -0.296683  -1.913529  1.692580
C    0.015882  -2.560882  3.028442
C    -0.049291  -1.842730  4.244136
C    0.328637  -3.931829  3.107812
C    0.182919  -2.459478  5.477912
C    0.556082  -4.573974  4.337075
C    0.443199  -3.851075  5.546660
O    0.591279  -4.377090  6.768187
H    -0.305354  -2.695941  0.919169
H    -1.315833  -1.498278  1.738122
H    -0.302351  -0.781142  4.241036
H    0.388175  -4.527383  2.195340
H    0.094649  -1.897012  6.408182
H    0.758722  -5.646696  4.353084
H    0.636837  -5.351269  6.756921
O    2.664800  -1.263854  0.026164
H    -0.449112  -0.763253  -0.572008
Ca    2.600695  -2.652993  4.041509
