25
Energy: -35690.2654226 eV PBE+vdW (tier 2 basis)
N    -0.448239  -0.038570  -0.018179
C    0.160936  -0.273470  1.258785
C    1.676581  -0.297966  1.159943
O    2.410396  -0.469194  2.169174
H    -0.158298  0.829437  -0.465743
H    -1.465565  -0.057997  0.025778
H    -0.031689  0.499577  2.041741
C    -0.363302  -1.642567  1.809709
C    0.082559  -2.044094  3.192981
C    -0.312007  -1.324517  4.344061
C    0.881698  -3.192803  3.399690
C    0.070063  -1.719135  5.636249
C    1.272190  -3.606910  4.680020
C    0.834520  -2.897214  5.825589
O    1.202713  -3.382167  7.015227
H    -0.112585  -2.422735  1.079879
H    -1.460438  -1.558685  1.807225
H    -0.948173  -0.443284  4.242066
H    1.197102  -3.788630  2.541178
H    -0.282856  -1.150199  6.498967
H    1.858177  -4.516603  4.818914
H    0.764442  -2.932748  7.762074
O    2.175380  -0.107072  -0.026373
H    3.157902  -0.110808  -0.014352
Ca    2.405858  -1.133191  4.221495
