25
Energy: -35690.2996755 eV PBE+vdW (tier 2 basis)
N    -0.961179  -0.229722  0.130634
C    -0.897866  -0.221516  1.555974
C    -0.100692  0.903201  2.235023
O    -0.126558  1.095422  3.479480
H    -1.453958  0.562667  -0.274781
H    -0.066159  -0.354786  -0.338976
H    -1.924785  -0.089511  1.943097
C    -0.369283  -1.605858  2.065451
C    -0.496085  -1.887943  3.541818
C    -1.758989  -2.047802  4.157235
C    0.640985  -2.053597  4.366623
C    -1.890581  -2.354097  5.520625
C    0.533633  -2.359504  5.730325
C    -0.738479  -2.558658  6.320601
O    -0.760301  -2.902136  7.612092
H    0.676439  -1.729191  1.750732
H    -0.954082  -2.344271  1.499143
H    -2.668326  -1.951617  3.560335
H    1.638147  -1.957602  3.933089
H    -2.885961  -2.500242  5.945426
H    1.424799  -2.518150  6.339358
H    -1.649523  -3.154993  7.923818
O    0.604037  1.656456  1.439117
H    1.079853  2.363278  1.928594
Ca    -0.604088  0.121172  5.348167
