25
Energy: -35690.4835395 eV PBE+vdW (tier 2 basis)
N    -0.111481  0.117751  0.369536
C    -0.229171  0.560934  1.805529
C    1.143480  0.719800  2.414686
O    1.264069  1.349231  3.519784
H    -0.964394  -0.473796  0.177659
H    0.741548  -0.448685  0.239758
H    -0.759877  1.520157  1.824511
C    -1.080519  -0.512464  2.580086
C    -2.311741  -0.865129  1.793447
C    -3.435161  -0.013793  1.782575
C    -2.352151  -2.035250  1.009830
C    -4.556269  -0.322419  1.031709
C    -3.475310  -2.355649  0.248568
C    -4.587509  -1.498886  0.255448
O    -5.715525  -1.730279  -0.438141
H    -1.316485  -0.076954  3.559380
H    -0.460282  -1.404659  2.751859
H    -3.443937  0.889244  2.395977
H    -1.520387  -2.743915  1.039842
H    -5.435220  0.320458  1.040657
H    -3.497003  -3.281827  -0.326846
H    -5.672149  -2.575803  -0.917700
O    2.167054  0.162664  1.865921
H    -0.083829  0.899130  -0.296339
Ca    3.394249  0.903139  3.562266
