25
Energy: -35690.9231134 eV PBE+vdW (tier 2 basis)
N    -1.181297  1.157532  0.044950
C    -0.757657  0.683588  1.422756
C    0.766808  0.697540  1.443205
O    1.353677  0.639431  2.556842
H    -2.096517  0.789306  -0.247736
H    -0.437758  0.849469  -0.615409
H    -1.191506  1.364555  2.161196
C    -1.208729  -0.805087  1.703857
C    -0.102198  -1.847367  1.757153
C    0.453875  -2.236380  2.992364
C    0.423774  -2.450102  0.594730
C    1.489344  -3.176991  3.075551
C    1.460732  -3.387746  0.652358
C    1.980476  -3.796588  1.903026
O    2.936058  -4.735670  1.884325
H    -1.951094  -1.102404  0.947793
H    -1.740735  -0.800075  2.661844
H    0.084120  -1.789693  3.915789
H    0.020961  -2.193500  -0.385706
H    1.870800  -3.471352  4.055097
H    1.828834  -3.870683  -0.253166
H    3.152947  -5.066294  2.775689
O    1.350949  0.475799  0.327238
H    -1.228704  2.185985  -0.003364
Ca    2.623839  -0.965272  1.602619
