25
Energy: -35690.4506226 eV PBE+vdW (tier 2 basis)
N    -1.322052  0.765008  1.324926
C    -0.503033  -0.064626  2.261015
C    0.835599  -0.420227  1.626105
O    1.835504  -0.733217  2.183193
H    -0.873338  1.682520  1.215966
H    -2.216595  0.974765  1.782213
H    -0.253963  0.479901  3.183929
C    -1.278502  -1.361226  2.654785
C    -1.841785  -2.074506  1.445592
C    -1.057397  -2.958495  0.674388
C    -3.147757  -1.795843  0.978070
C    -1.519990  -3.493960  -0.535808
C    -3.628353  -2.315287  -0.227627
C    -2.826341  -3.197182  -0.993433
O    -3.367218  -3.683257  -2.113012
H    -2.089014  -1.071423  3.337651
H    -0.601470  -2.007479  3.228444
H    -0.059073  -3.237018  1.016766
H    -3.810324  -1.161080  1.569702
H    -0.889670  -4.189627  -1.093185
H    -4.645531  -2.108525  -0.562336
H    -2.823900  -4.379732  -2.527270
O    0.766573  -0.395828  0.189229
H    1.674824  -0.601195  -0.122705
Ca    -1.405197  -0.607460  -0.716599
