25
Energy: -35688.3564536 eV PBE+vdW (tier 2 basis)
N    -0.101197  0.456094  -0.030456
C    0.476022  0.003917  1.188493
C    1.982770  -0.341136  1.186725
O    2.512482  -0.952814  2.098993
H    0.196279  -0.034125  -0.870036
H    -0.084047  1.460706  -0.174490
H    0.382623  0.812120  1.932458
C    -0.322450  -1.248015  1.739589
C    0.158059  -1.770487  3.055647
C    0.869514  -2.988435  3.154387
C    -0.099524  -1.064889  4.254556
C    1.361397  -3.457017  4.376556
C    0.371733  -1.516255  5.492085
C    1.139554  -2.694646  5.538231
O    1.272385  -3.406281  6.758434
H    -0.290165  -2.036172  0.975861
H    -1.362463  -0.907716  1.816970
H    1.075648  -3.562631  2.251428
H    -0.666943  -0.133889  4.221052
H    1.955423  -4.372472  4.431603
H    0.171709  -0.944590  6.401961
H    1.700167  -2.895227  7.472434
O    2.617968  0.121318  0.109276
H    3.571071  -0.093899  0.186041
Ca    -0.794615  -3.989340  5.895759
