25
Energy: -35689.6895011 eV PBE+vdW (tier 2 basis)
N    0.663658  0.272806  0.324148
C    0.188109  0.042296  1.740465
C    1.462844  0.038316  2.598818
O    2.351866  0.895928  2.324333
H    -0.152478  0.536462  -0.240445
H    0.946713  -0.641469  -0.056705
H    -0.323568  0.973612  2.041432
C    -0.807955  -1.127984  1.937929
C    -0.172980  -2.476603  2.172828
C    -0.198051  -3.051232  3.459814
C    0.494090  -3.179687  1.151358
C    0.442889  -4.263873  3.727431
C    1.134478  -4.383382  1.403864
C    1.125454  -4.933904  2.701169
O    1.768885  -6.102573  2.861574
H    -1.479302  -1.142586  1.064658
H    -1.450276  -0.868154  2.791272
H    -0.779821  -2.579415  4.256514
H    0.459134  -2.820483  0.119032
H    0.387678  -4.695371  4.727529
H    1.625871  -4.939850  0.606936
H    1.675196  -6.441577  3.768999
O    1.648980  -0.760970  3.582346
H    0.998807  -1.550564  3.563536
Ca    2.548460  1.828243  0.444475
