25
Energy: -35689.8914515 eV PBE+vdW (tier 2 basis)
N    0.134327  -0.177990  0.099632
C    -0.182710  -0.227381  1.574724
C    0.913624  0.374678  2.481400
O    1.017988  0.089760  3.643840
H    0.989485  -0.731108  -0.049987
H    0.448527  0.781027  -0.103520
H    -1.064052  0.419582  1.724922
C    -0.524814  -1.663470  2.013591
C    -1.567135  -2.271443  1.107989
C    -1.240119  -3.289628  0.187212
C    -2.895932  -1.779883  1.079017
C    -2.171646  -3.781802  -0.743039
C    -3.837970  -2.251306  0.158842
C    -3.499225  -3.290106  -0.747493
O    -4.467837  -3.716189  -1.559812
H    -0.870719  -1.629830  3.055176
H    0.384378  -2.281157  2.013947
H    -0.234874  -3.715989  0.191490
H    -3.206717  -1.015291  1.794563
H    -1.882120  -4.586747  -1.421803
H    -4.864052  -1.880616  0.167601
H    -4.220581  -4.513198  -2.065929
O    1.668968  1.259534  1.794593
H    2.322787  1.658521  2.406976
Ca    -1.714501  -1.046787  -1.215782
