25
Energy: -35688.4338551 eV PBE+vdW (tier 2 basis)
N    0.388868  -1.261798  0.345994
C    -0.198061  -0.393041  1.357274
C    0.887117  0.455527  2.025210
O    1.617611  0.030604  2.906818
H    1.395084  -1.381501  0.448345
H    0.192791  -0.948709  -0.602475
H    -0.930283  0.270711  0.882734
C    -0.984353  -1.215585  2.446014
C    -0.144426  -2.290291  3.047238
C    0.509984  -2.112910  4.283131
C    0.100818  -3.483902  2.326144
C    1.380782  -3.086634  4.798155
C    0.975641  -4.468043  2.818890
C    1.633953  -4.243613  4.037521
O    2.128013  -5.335694  4.789466
H    -1.848589  -1.649656  1.926615
H    -1.357233  -0.523888  3.212232
H    0.347604  -1.199142  4.852561
H    -0.395899  -3.641203  1.369969
H    1.909522  -2.932299  5.741841
H    1.147329  -5.387982  2.253581
H    2.736757  -5.913123  4.288149
O    0.965568  1.676587  1.490225
H    1.708922  2.162251  1.905603
Ca    -0.197130  -5.168046  5.193265
