25
Energy: -35689.6556498 eV PBE+vdW (tier 2 basis)
N    -1.000668  1.199448  1.305244
C    -0.333896  0.237154  2.253866
C    1.195654  0.402664  2.022513
O    1.568779  0.864938  0.966662
H    -0.277929  1.274753  0.549204
H    -0.930972  2.128348  1.743115
H    -0.626316  0.505940  3.278309
C    -0.717510  -1.235058  1.940445
C    -2.177230  -1.400790  1.592183
C    -2.566360  -1.818463  0.298421
C    -3.208570  -1.082692  2.503961
C    -3.912270  -1.884998  -0.085108
C    -4.561971  -1.144229  2.142367
C    -4.936494  -1.582549  0.846411
O    -6.194337  -1.713165  0.423671
H    -0.457777  -1.864012  2.804180
H    -0.108681  -1.597291  1.100704
H    -1.801248  -2.096239  -0.429854
H    -2.960091  -0.775564  3.521790
H    -4.194299  -2.230764  -1.080709
H    -5.329135  -0.908790  2.882993
H    -6.852280  -1.611511  1.137278
O    2.048073  -0.029222  2.947382
H    1.620277  -0.315317  3.775633
Ca    -3.219751  0.751407  0.507341
