25
Energy: -35688.3107962 eV PBE+vdW (tier 2 basis)
N    0.046442  -0.828904  -0.059656
C    -0.065556  -0.369007  1.302211
C    1.246470  -0.023349  2.066240
O    1.297784  0.082742  3.268562
H    0.199207  -0.070687  -0.722057
H    0.795207  -1.510583  -0.185983
H    -0.630118  0.578627  1.296732
C    -0.853167  -1.398136  2.176130
C    -2.269797  -1.458866  1.718955
C    -3.275932  -0.726817  2.373150
C    -2.617463  -2.175115  0.545328
C    -4.600115  -0.707630  1.899648
C    -3.930432  -2.172021  0.052708
C    -4.902464  -1.410146  0.719847
O    -6.282138  -1.689082  0.535716
H    -0.774307  -1.083728  3.223813
H    -0.362655  -2.377329  2.075526
H    -3.027217  -0.148401  3.264194
H    -1.853592  -2.746031  0.021048
H    -5.369494  -0.104529  2.388250
H    -4.185316  -2.735685  -0.848381
H    -6.570887  -1.654689  -0.397370
O    2.269956  0.165313  1.216903
H    3.056783  0.421959  1.741570
Ca    -5.550942  -3.195717  2.131190
