18
Energy: -15001.2553758 eV PBE+vdW (tier 2 basis)
N    -0.378237  1.117049  0.717815
C    -0.180630  0.218334  1.866728
C    1.334628  -0.127923  1.978265
O    1.887933  -0.008213  3.081050
H    -1.327825  1.034104  0.346747
H    0.264935  0.799357  -0.013935
H    -0.448759  0.754619  2.789736
C    -1.049466  -1.069024  1.828818
C    -0.981939  -1.929499  0.540422
C    -0.086672  -3.170124  0.588339
O    -0.571725  -4.298185  0.592298
O    1.226665  -2.978675  0.599236
H    -2.098032  -0.750103  1.958373
H    -0.811414  -1.680792  2.713272
H    -0.657491  -1.292578  -0.298581
H    -1.982633  -2.307460  0.300269
O    1.862562  -0.547447  0.875474
H    1.484098  -1.963442  0.661675
