18
Energy: -15001.4398696 eV PBE+vdW (tier 2 basis)
N    -0.099559  1.001159  0.871404
C    0.265972  -0.187423  1.665379
C    1.520390  -0.913563  1.090444
O    2.137179  -0.390030  0.148307
H    -0.737745  0.692052  0.133046
H    0.759844  1.241962  0.358996
H    0.570108  0.164833  2.669045
C    -0.940702  -1.138523  1.841958
C    -1.322002  -1.489261  3.284079
C    -0.444755  -2.443196  4.123695
O    -0.904450  -2.829205  5.202887
O    0.728280  -2.803358  3.678011
H    -0.775686  -2.060523  1.263988
H    -1.815575  -0.640710  1.393168
H    -2.324384  -1.942706  3.301865
H    -1.413531  -0.562573  3.874372
O    1.844123  -2.022164  1.668355
H    1.163683  -2.368581  2.692674
