18
Energy: -15001.2247761 eV PBE+vdW (tier 2 basis)
N    -0.609646  0.831124  1.179570
C    -0.271429  -0.237790  2.140561
C    1.274359  -0.403519  2.112906
O    1.895502  -1.176529  2.824612
H    -1.285120  0.433283  0.438827
H    -1.061335  1.615875  1.644697
H    -0.512082  0.065968  3.173355
C    -0.981654  -1.576106  1.862488
C    -0.859023  -2.128010  0.427819
C    -1.926200  -1.628229  -0.598703
O    -2.243595  -0.387820  -0.533789
O    -2.371670  -2.474338  -1.402232
H    -2.047283  -1.457499  2.113689
H    -0.560410  -2.303208  2.572951
H    -0.923832  -3.223556  0.451120
H    0.138197  -1.893769  0.015106
O    1.829544  0.424176  1.225665
H    0.948676  0.895947  0.881357
