18
Energy: -15001.5595697 eV PBE+vdW (tier 2 basis)
N    -0.380709  1.006168  0.570456
C    -0.074058  0.195412  1.759945
C    1.452518  -0.125752  1.796388
O    2.102234  -0.031299  0.738971
H    -1.197258  0.626514  0.088194
H    0.427875  0.867072  -0.051471
H    -0.300052  0.780678  2.666260
C    -0.915933  -1.101419  1.804932
C    -0.639678  -2.091578  2.954359
C    -0.764474  -1.487881  4.360373
O    -1.752849  -1.702367  5.060877
O    0.249183  -0.739232  4.755927
H    -0.761275  -1.631781  0.849882
H    -1.979618  -0.808407  1.838859
H    0.372026  -2.505865  2.834744
H    -1.361769  -2.916054  2.893922
O    1.921604  -0.484929  2.940994
H    0.996235  -0.617279  3.949390
