18
Energy: -15000.7211085 eV PBE+vdW (tier 2 basis)
N    -0.298198  0.498595  0.194786
C    -0.179132  0.042830  1.574877
C    1.224735  0.270800  2.089543
O    2.256070  0.200695  1.447299
H    0.240538  -0.114049  -0.420549
H    -1.305058  0.390675  -0.033333
H    -0.869638  0.652241  2.175131
C    -0.533778  -1.457046  1.853428
C    -1.816894  -1.921353  1.144183
C    -3.031542  -0.965787  1.397436
O    -3.738684  -1.214836  2.405216
O    -3.150863  -0.014040  0.561929
H    -0.647448  -1.585794  2.941144
H    0.316861  -2.087369  1.537032
H    -2.064436  -2.927544  1.514063
H    -1.634226  -1.991159  0.060924
O    1.251785  0.516634  3.441478
H    2.201877  0.568665  3.661736
