18
Energy: -15001.0420451 eV PBE+vdW (tier 2 basis)
N    -0.002810  -0.752767  0.310783
C    0.110752  0.000131  1.576799
C    1.533635  -0.194285  2.118267
O    2.078027  0.509458  2.947707
H    -1.026054  -0.727892  0.043872
H    0.450805  -0.201574  -0.422883
H    -0.066510  1.079814  1.446714
C    -0.878531  -0.531664  2.653439
C    -2.265503  -0.965904  2.142633
C    -2.967153  0.065724  1.202931
O    -3.757108  0.881490  1.728303
O    -2.639620  -0.031351  -0.029603
H    -0.987824  0.264311  3.402944
H    -0.414082  -1.386943  3.172545
H    -2.903108  -1.138747  3.021591
H    -2.168955  -1.921545  1.604856
O    2.119777  -1.294682  1.592398
H    1.413259  -1.588573  0.921703
