18
Energy: -15000.6410491 eV PBE+vdW (tier 2 basis)
N    -0.083603  -0.292559  -0.052591
C    0.052674  -0.132001  1.397668
C    1.469721  0.378557  1.679252
O    2.162996  0.935236  0.848826
H    -1.067352  -0.253415  -0.314852
H    0.414709  0.465670  -0.521516
H    -0.599007  0.677894  1.801984
C    -0.353910  -1.421130  2.134493
C    -0.548331  -1.319393  3.650156
C    -1.758556  -2.201002  4.215082
O    -1.685377  -2.442077  5.443485
O    -2.641000  -2.505745  3.373846
H    0.352469  -2.222954  1.869592
H    -1.338520  -1.733647  1.746698
H    -0.807501  -0.286826  3.948831
H    0.334788  -1.624766  4.238000
O    1.918848  0.231770  2.948475
H    1.244752  -0.275124  3.462883
