18
Energy: -15000.5517352 eV PBE+vdW (tier 2 basis)
N    1.211268  0.174488  0.212997
C    0.275534  -0.025744  1.338349
C    1.037173  -0.154516  2.636562
O    0.732050  0.343051  3.704555
H    1.799386  -0.659069  0.133265
H    0.646821  0.185460  -0.640541
H    -0.325407  0.889949  1.438736
C    -0.696979  -1.228704  1.199615
C    -1.610839  -1.133370  -0.017297
C    -2.767610  -2.217482  -0.042625
O    -3.128312  -2.664064  1.077307
O    -3.205628  -2.475846  -1.193570
H    -1.332786  -1.310739  2.093926
H    -0.103701  -2.157403  1.154017
H    -1.057340  -1.225471  -0.964011
H    -2.112112  -0.148203  -0.034082
O    2.127514  -0.984350  2.527117
H    2.486967  -1.038986  3.432677
