18
Energy: -15000.7076198 eV PBE+vdW (tier 2 basis)
N    0.212049  -0.231999  -0.227030
C    0.157936  -0.106447  1.230404
C    1.553853  -0.271358  1.826510
O    2.149471  0.570985  2.481590
H    -0.653634  -0.736994  -0.535627
H    0.212277  0.691337  -0.656581
H    -0.153084  0.900825  1.563319
C    -0.811502  -1.128032  1.860805
C    -2.298264  -0.790222  1.673953
C    -2.983443  -1.181562  0.316835
O    -4.234473  -1.104709  0.320256
O    -2.222166  -1.529852  -0.640762
H    -0.585030  -1.191148  2.939370
H    -0.595556  -2.116278  1.427403
H    -2.461568  0.292433  1.814427
H    -2.886314  -1.277009  2.466640
O    2.118018  -1.489485  1.576159
H    2.992429  -1.444486  2.007328
