18
Energy: -15000.4838577 eV PBE+vdW (tier 2 basis)
N    1.827241  -2.208623  1.548361
C    0.618684  -1.399672  1.261486
C    0.838080  0.006674  1.804823
O    1.263488  0.960789  1.179542
H    1.982091  -2.248256  2.558592
H    2.649306  -1.760798  1.138983
H    0.507579  -1.313865  0.171877
C    -0.637096  -2.092396  1.787197
C    -1.937991  -1.368856  1.428077
C    -2.311458  -1.342716  -0.102207
O    -3.383493  -0.738843  -0.363710
O    -1.512461  -1.927149  -0.888664
H    -0.550420  -2.226684  2.880751
H    -0.641896  -3.088274  1.322298
H    -1.930425  -0.326422  1.788645
H    -2.779324  -1.848191  1.952867
O    0.607569  0.107283  3.159871
H    0.835525  1.031999  3.374211
