18
Energy: -15001.5844111 eV PBE+vdW (tier 2 basis)
N    1.054389  -0.484695  3.314355
C    0.263024  -0.585610  2.072103
C    1.018564  0.012120  0.841962
O    0.593397  -0.354361  -0.318236
H    1.683163  -1.289091  3.354145
H    1.683226  0.313497  3.146346
H    0.066106  -1.648075  1.864311
C    -1.092039  0.124162  2.291517
C    -2.037535  0.225243  1.077988
C    -2.418104  -1.127440  0.461341
O    -3.520235  -1.635435  0.662054
O    -1.490689  -1.702512  -0.286272
H    -0.876724  1.143681  2.650996
H    -1.603241  -0.394003  3.117036
H    -1.570469  0.850849  0.302926
H    -2.971345  0.707105  1.394778
O    1.953940  0.805332  1.058674
H    -0.559427  -1.110767  -0.301022
