18
Energy: -15001.4057961 eV PBE+vdW (tier 2 basis)
N    -1.007652  0.806749  0.604693
C    -0.380261  0.265737  1.825913
C    1.116213  -0.115592  1.588147
O    1.929529  0.141681  2.489134
H    -1.946834  0.422354  0.487709
H    -0.471860  0.473686  -0.198803
H    -0.367429  1.053116  2.595679
C    -1.133245  -0.941123  2.439269
C    -0.881077  -2.333035  1.820307
C    -1.300693  -2.506789  0.355016
O    -2.372310  -3.030619  0.058024
O    -0.439804  -2.085080  -0.559515
H    -2.215728  -0.722634  2.414416
H    -0.854122  -1.002863  3.502924
H    -1.454918  -3.074446  2.391633
H    0.187612  -2.575002  1.920978
O    1.377667  -0.710567  0.470361
H    0.354912  -1.501574  -0.109884
