18
Energy: -15000.6960611 eV PBE+vdW (tier 2 basis)
N    0.144182  0.261658  -0.133165
C    0.080333  0.001248  1.314860
C    1.521065  -0.148615  1.788080
O    2.104765  -1.159299  2.127604
H    -0.803796  -0.001329  -0.507155
H    0.290752  1.257395  -0.301042
H    -0.348202  0.849652  1.891869
C    -0.763821  -1.244203  1.608535
C    -2.275098  -0.984367  1.700980
C    -3.091716  -0.682176  0.396084
O    -4.332358  -0.615598  0.561462
O    -2.443279  -0.537669  -0.689976
H    -0.414647  -1.680081  2.557663
H    -0.552355  -1.989471  0.826610
H    -2.469654  -0.148200  2.395203
H    -2.760491  -1.858051  2.163369
O    2.172905  1.065992  1.777246
H    3.092987  0.850951  2.022377
