18
Energy: -15000.7073773 eV PBE+vdW (tier 2 basis)
N    -0.297112  1.089844  0.642827
C    0.055307  -0.174132  1.282978
C    1.421462  -0.085182  1.917218
O    2.063083  0.932859  2.112672
H    -1.332924  1.067680  0.599300
H    -0.016152  1.860123  1.250991
H    -0.627399  -0.410310  2.131171
C    -0.081209  -1.355181  0.295349
C    -1.447251  -1.382014  -0.414308
C    -2.652473  -1.256841  0.576528
O    -2.944794  -0.064018  0.917444
O    -3.191264  -2.325764  0.956320
H    0.062127  -2.291866  0.852161
H    0.727456  -1.283145  -0.451812
H    -1.529690  -2.329734  -0.966032
H    -1.492091  -0.554442  -1.137332
O    1.902678  -1.302679  2.332403
H    2.752246  -1.088199  2.762124
