18
Energy: -15001.2305447 eV PBE+vdW (tier 2 basis)
N    0.443671  2.061718  2.324674
C    0.015781  0.680873  2.637637
C    0.858582  -0.293516  1.748124
O    1.871884  -0.807675  2.244880
H    -0.216737  2.724434  2.741291
H    0.363209  2.184381  1.311198
H    0.295604  0.476564  3.683369
C    -1.498326  0.473687  2.453008
C    -1.977372  -0.996970  2.546684
C    -2.606233  -1.522582  1.253072
O    -3.715743  -2.048298  1.243210
O    -1.888348  -1.369888  0.148476
H    -1.773607  0.886378  1.470864
H    -2.029741  1.081949  3.204598
H    -2.720833  -1.135032  3.339703
H    -1.120520  -1.647719  2.790436
O    0.419283  -0.451032  0.544770
H    -0.933554  -0.939274  0.339004
