18
Energy: -15001.4445381 eV PBE+vdW (tier 2 basis)
N    -0.625896  0.889045  0.403360
C    -0.126933  0.147209  1.581756
C    1.441536  0.131627  1.648384
O    2.020264  1.113078  1.140305
H    0.124952  1.562799  0.201134
H    -0.607660  0.249516  -0.397396
H    -0.428212  0.730137  2.472819
C    -0.794269  -1.223905  1.701871
C    -0.312468  -2.285023  0.678544
C    0.353248  -3.503821  1.325697
O    -0.010122  -4.648856  1.069380
O    1.331951  -3.239969  2.176179
H    -1.880713  -1.081980  1.595264
H    -0.629525  -1.601720  2.719478
H    0.427660  -1.835331  -0.005890
H    -1.135840  -2.660502  0.060633
O    2.008625  -0.841549  2.264388
H    1.554400  -2.187754  2.226094
