18
Energy: -15001.4295869 eV PBE+vdW (tier 2 basis)
N    0.376314  0.186212  0.002228
C    0.135559  0.148565  1.472379
C    1.518918  0.008163  2.220667
O    1.482986  0.144677  3.464011
H    0.377580  1.153594  -0.322501
H    -0.662625  -0.626317  -0.650835
H    -0.335509  1.089463  1.798019
C    -0.789991  -1.016706  1.840921
C    -2.213882  -0.960353  1.255146
C    -2.433190  -1.464176  -0.180984
O    -3.464778  -2.060669  -0.478233
O    -1.484549  -1.210581  -1.071433
H    -0.850979  -1.027067  2.937729
H    -0.303183  -1.962725  1.550911
H    -2.581406  0.081414  1.287219
H    -2.907548  -1.542599  1.875671
O    2.500370  -0.246388  1.458588
H    1.373910  -0.127507  -0.034502
