18
Energy: -15001.4424243 eV PBE+vdW (tier 2 basis)
N    -0.313206  0.487390  0.203174
C    0.016371  -0.088008  1.520339
C    1.546506  -0.361209  1.627007
O    2.281083  -0.044304  0.675160
H    -0.649978  1.442616  0.317887
H    0.597528  0.561325  -0.274186
H    -0.213987  0.639850  2.319169
C    -0.791408  -1.383149  1.816518
C    -1.620647  -1.364333  3.102923
C    -0.932890  -1.378625  4.484472
O    -1.653827  -1.484488  5.479969
O    0.371096  -1.280791  4.564917
H    -0.118433  -2.253978  1.822703
H    -1.473758  -1.516107  0.965184
H    -2.303347  -2.227580  3.121006
H    -2.279673  -0.479599  3.108948
O    1.931415  -0.920307  2.720947
H    1.005671  -1.120368  3.636364
