18
Energy: -15000.5961059 eV PBE+vdW (tier 2 basis)
N    1.626362  -0.961840  0.417887
C    0.581733  -0.343855  1.243251
C    1.121208  -0.161050  2.638517
O    1.963686  -0.855249  3.180917
H    1.170398  -1.418561  -0.374733
H    2.061721  -1.704306  0.971176
H    0.351924  0.655812  0.839315
C    -0.756879  -1.140703  1.340457
C    -1.462436  -1.325644  0.001750
C    -2.717185  -2.288481  0.068614
O    -3.586550  -2.066087  -0.813532
O    -2.686811  -3.172870  0.964338
H    -1.429490  -0.610547  2.032633
H    -0.569025  -2.131257  1.781799
H    -0.785018  -1.784376  -0.742147
H    -1.783260  -0.360465  -0.418950
O    0.509698  0.868977  3.304824
H    0.864925  0.822503  4.212883
