18
Energy: -15000.7216254 eV PBE+vdW (tier 2 basis)
N    0.104044  0.127949  -0.163163
C    0.040389  0.005671  1.292998
C    1.424071  -0.106401  1.899185
O    1.830110  0.471520  2.892513
H    0.541322  -0.717721  -0.537678
H    -0.889247  0.083034  -0.491626
H    -0.369434  0.945776  1.693860
C    -0.833284  -1.153487  1.864118
C    -2.351062  -0.970114  1.675207
C    -2.897378  -1.274836  0.237878
O    -2.606568  -0.424874  -0.663939
O    -3.573247  -2.325572  0.117127
H    -0.618393  -1.236805  2.944644
H    -0.507017  -2.100594  1.402786
H    -2.620538  0.066173  1.943724
H    -2.868109  -1.642062  2.374749
O    2.222809  -1.003852  1.236772
H    3.058531  -1.005805  1.740847
