18
Energy: -15000.4604633 eV PBE+vdW (tier 2 basis)
N    1.369089  -0.132765  0.188324
C    0.372298  -0.046424  1.264990
C    0.953536  -0.053135  2.669293
O    0.637020  0.690627  3.581987
H    1.711123  -1.092841  0.119657
H    2.178339  0.454238  0.395271
H    -0.151882  0.917442  1.175248
C    -0.671285  -1.179790  1.152119
C    -1.505240  -1.161021  -0.124400
C    -2.745635  -2.139709  -0.067953
O    -3.197476  -2.398601  1.080303
O    -3.156148  -2.523341  -1.194695
H    -1.368008  -1.133586  2.002421
H    -0.143459  -2.144629  1.248066
H    -0.909024  -1.400637  -1.014116
H    -1.913247  -0.147349  -0.285517
O    1.901180  -1.034552  2.857168
H    2.132819  -0.968927  3.802835
