18
Energy: -15001.4009081 eV PBE+vdW (tier 2 basis)
N    0.079211  0.290334  0.000949
C    -0.113368  0.129932  1.454683
C    1.246009  -0.061729  2.175373
O    1.538648  0.666645  3.124512
H    0.482596  -0.568884  -0.384681
H    -0.840556  0.379787  -0.437424
H    -0.490415  1.090391  1.833629
C    -1.145701  -0.951327  1.889007
C    -0.722467  -2.433243  1.846151
C    -0.229208  -2.932274  0.470100
O    -0.978824  -3.621498  -0.234462
O    0.978841  -2.570208  0.139003
H    -2.039679  -0.815943  1.255134
H    -1.458498  -0.716379  2.920424
H    -1.585814  -3.050684  2.127600
H    0.070990  -2.601237  2.590877
O    2.020594  -1.030635  1.743326
H    1.527617  -1.744205  0.995407
