18
Energy: -15000.4800673 eV PBE+vdW (tier 2 basis)
N    1.265409  -0.442954  0.215615
C    0.352103  0.060422  1.245727
C    0.924581  0.141935  2.650184
O    0.675100  1.008718  3.472074
H    2.214615  -0.103741  0.369109
H    1.298899  -1.462972  0.261504
H    0.069070  1.095237  0.994106
C    -0.927322  -0.813342  1.297730
C    -1.763342  -0.809682  0.020320
C    -2.653371  -2.105342  -0.137415
O    -2.177239  -3.164184  0.357283
O    -3.723683  -1.934833  -0.776899
H    -1.538399  -0.483922  2.151936
H    -0.640401  -1.860480  1.495721
H    -1.101894  -0.785823  -0.860406
H    -2.409931  0.077689  -0.038201
O    1.760650  -0.904197  2.961522
H    1.984155  -0.763530  3.901088
