18
Energy: -15000.6265732 eV PBE+vdW (tier 2 basis)
N    -0.695442  0.994360  0.940539
C    -0.386729  0.057535  2.021391
C    1.068354  -0.396934  2.012249
O    1.670880  -0.800771  2.995912
H    -1.098701  0.424575  0.158878
H    -1.478874  1.568250  1.257344
H    -0.484367  0.580758  2.986145
C    -1.290735  -1.214319  2.109964
C    -1.122435  -2.296167  1.031304
C    -1.718198  -2.048987  -0.399381
O    -1.855477  -3.084657  -1.093485
O    -1.994132  -0.850819  -0.723185
H    -2.330475  -0.850108  2.103250
H    -1.112292  -1.669111  3.099384
H    -1.577586  -3.228941  1.396888
H    -0.055299  -2.538573  0.890489
O    1.654648  -0.362091  0.787960
H    2.541861  -0.745001  0.930355
