18
Energy: -15001.1127717 eV PBE+vdW (tier 2 basis)
N    0.065900  0.504179  0.322814
C    0.105426  0.128929  1.753378
C    1.575043  0.063932  2.199593
O    1.980085  -0.426414  3.236894
H    -0.894363  0.916135  0.203740
H    0.077137  -0.349042  -0.243336
H    -0.327808  0.991900  2.288316
C    -0.724219  -1.105252  2.138826
C    -2.142171  -1.094051  1.530196
C    -2.895391  0.271293  1.689784
O    -3.737427  0.349267  2.612299
O    -2.561542  1.182715  0.856761
H    -0.785616  -1.145910  3.235432
H    -0.186373  -2.018294  1.827069
H    -2.735696  -1.884217  2.010380
H    -2.082207  -1.329743  0.454892
O    2.390866  0.659358  1.302033
H    1.717354  0.909215  0.575930
