18
Energy: -15001.334111 eV PBE+vdW (tier 2 basis)
N    -0.065809  -0.415905  -0.163196
C    0.012533  -0.033952  1.261913
C    1.376979  0.584867  1.649687
O    1.458041  1.784416  1.920328
H    0.197525  0.394849  -0.726399
H    0.645424  -1.132824  -0.343214
H    -0.701895  0.788176  1.406097
C    -0.403419  -1.207837  2.198292
C    -0.363973  -2.639451  1.641694
C    0.985110  -3.308934  1.278193
O    1.982134  -2.545009  0.965212
O    1.004159  -4.549926  1.249794
H    -1.443264  -1.021003  2.509907
H    0.199144  -1.152399  3.117904
H    -0.977317  -2.684451  0.727258
H    -0.856316  -3.309203  2.360851
O    2.420731  -0.219351  1.646608
H    2.155213  -1.247062  1.367070
