18
Energy: -15001.2189318 eV PBE+vdW (tier 2 basis)
N    -0.025553  -0.106288  -0.069918
C    0.052513  -0.131332  1.418409
C    1.530963  0.104364  1.912975
O    1.778107  -0.223214  3.097335
H    -1.587277  0.053796  -0.180135
H    0.327152  -1.003170  -0.418606
H    -0.519893  0.749545  1.758736
C    -0.618489  -1.385348  1.985218
C    -1.884258  -1.874407  1.237069
C    -2.961935  -0.832169  0.915026
O    -2.621707  0.110055  0.030294
O    -4.083460  -0.883113  1.402458
H    -0.856041  -1.196280  3.039065
H    0.110728  -2.211876  1.992692
H    -2.373541  -2.660752  1.825271
H    -1.586316  -2.331364  0.278290
O    2.284909  0.637450  1.045917
H    0.727097  0.558105  -0.317096
