18
Energy: -15000.7511209 eV PBE+vdW (tier 2 basis)
N    -0.771135  0.637018  0.219787
C    -0.208198  0.688491  1.561524
C    1.192755  0.110697  1.606484
O    1.753240  -0.513317  0.724778
H    -0.161551  0.066989  -0.368716
H    -1.684650  0.136347  0.279751
H    -0.076901  1.741778  1.888414
C    -1.107386  0.017552  2.637564
C    -1.373733  -1.481818  2.446436
C    -2.606434  -1.861740  1.548455
O    -3.074973  -0.940272  0.807854
O    -2.998159  -3.047729  1.654970
H    -2.070109  0.549463  2.599421
H    -0.657745  0.215449  3.623314
H    -1.535264  -1.959158  3.424030
H    -0.495938  -1.990943  2.012552
O    1.835947  0.385064  2.790462
H    2.702233  -0.054870  2.701921
