18
Energy: -15000.7561917 eV PBE+vdW (tier 2 basis)
N    0.391278  -0.437493  -0.106185
C    0.069659  -0.273619  1.307159
C    1.336173  -0.109172  2.114051
O    2.422621  -0.601976  1.870684
H    -0.379561  -1.016242  -0.511084
H    1.233881  -1.015023  -0.163936
H    -0.519865  0.649854  1.447905
C    -0.757976  -1.432394  1.955405
C    -2.252542  -1.429852  1.599145
C    -2.701487  -1.965760  0.193623
O    -3.931957  -2.188405  0.094679
O    -1.803557  -2.114567  -0.692266
H    -0.661755  -1.357215  3.052816
H    -0.294923  -2.383008  1.648619
H    -2.654785  -0.406199  1.695018
H    -2.799849  -2.026146  2.345238
O    1.148192  0.655438  3.241721
H    2.008452  0.624776  3.702410
