18
Energy: -15001.4335755 eV PBE+vdW (tier 2 basis)
N    -0.445497  0.565404  0.304260
C    0.134358  -0.018199  1.523149
C    1.451569  -0.772235  1.128585
O    2.038794  -0.367947  0.104217
H    0.346001  0.643769  -0.347703
H    -0.793339  1.506881  0.486680
H    0.478596  0.769897  2.228814
C    -0.913995  -0.860722  2.274102
C    -0.628074  -1.099150  3.778314
C    -0.349118  -2.551274  4.170106
O    -1.004812  -3.120807  5.039668
O    0.638195  -3.144270  3.520624
H    -1.050822  -1.815675  1.745224
H    -1.873046  -0.330503  2.181385
H    -1.471194  -0.767238  4.395508
H    0.250111  -0.502774  4.078660
O    1.861765  -1.704441  1.903591
H    1.111506  -2.476715  2.825818
