18
Energy: -15000.4735687 eV PBE+vdW (tier 2 basis)
N    0.885518  0.727811  0.332140
C    0.166414  0.313770  1.540491
C    0.903459  -0.649486  2.464982
O    0.748768  -0.721479  3.670394
H    1.877222  0.865562  0.528316
H    0.826759  -0.023701  -0.357918
H    -0.000974  1.204320  2.168120
C    -1.227594  -0.261441  1.177361
C    -1.246489  -1.469932  0.246951
C    -2.673900  -2.149421  0.120193
O    -3.455256  -1.974512  1.092563
O    -2.840232  -2.814269  -0.935080
H    -1.789870  0.567076  0.718913
H    -1.768311  -0.529608  2.095466
H    -0.569690  -2.260164  0.614843
H    -0.918267  -1.222361  -0.773999
O    1.796817  -1.463776  1.815678
H    2.136627  -2.056391  2.513584
