18
Energy: -15000.4761488 eV PBE+vdW (tier 2 basis)
N    1.360347  -0.164540  0.216193
C    0.382972  -0.143370  1.314003
C    1.065767  -0.222259  2.667035
O    0.759712  0.445203  3.642090
H    0.854264  -0.368085  -0.647756
H    1.786236  0.755549  0.100015
H    -0.209627  0.789071  1.355208
C    -0.615966  -1.315680  1.175689
C    -1.478632  -1.237884  -0.080976
C    -2.765756  -2.165968  -0.036404
O    -3.210019  -2.435351  1.109480
O    -3.204879  -2.489844  -1.169860
H    -1.297367  -1.329749  2.038935
H    -0.051670  -2.260884  1.196116
H    -0.924358  -1.499582  -0.995215
H    -1.856061  -0.207742  -0.216066
O    2.048079  -1.170371  2.740188
H    2.324958  -1.152514  3.676325
