18
Energy: -15000.5786874 eV PBE+vdW (tier 2 basis)
N    0.183772  -1.358134  0.280429
C    0.318812  -0.538097  1.504056
C    1.446994  0.471008  1.300980
O    1.045909  1.632856  0.661800
H    0.097832  -0.745641  -0.534668
H    0.077796  1.585802  0.563777
H    -0.612398  0.039426  1.700466
C    0.551299  -1.429689  2.728344
C    -0.488916  -2.559714  2.865164
C    -1.957006  -2.066743  2.650582
O    -2.325046  -1.992440  1.428956
O    -2.619309  -1.764605  3.671679
H    0.516438  -0.788113  3.623241
H    1.567665  -1.846694  2.664389
H    -0.396902  -2.999473  3.868272
H    -0.265735  -3.341798  2.124676
O    2.608957  0.349380  1.607352
H    -0.757161  -1.799332  0.407504
