18
Energy: -15000.7027037 eV PBE+vdW (tier 2 basis)
N    0.242943  0.741624  0.151567
C    0.027837  0.293096  1.527502
C    1.172983  -0.497846  2.128207
O    1.386872  -0.632669  3.321309
H    0.971286  0.176364  -0.282212
H    -0.626995  0.523690  -0.380635
H    -0.050234  1.167393  2.201072
C    -1.293002  -0.511903  1.725711
C    -1.455829  -1.768402  0.862675
C    -2.042034  -1.553792  -0.580277
O    -2.139737  -0.351714  -0.984466
O    -2.354698  -2.605049  -1.187232
H    -2.107167  0.184344  1.473355
H    -1.377094  -0.749081  2.798711
H    -2.126554  -2.478657  1.369069
H    -0.500413  -2.305956  0.743897
O    1.984719  -1.097216  1.201070
H    2.636117  -1.594226  1.731677
