26
Energy: -105818.999504 eV PBE+vdW (tier 2 basis)
C    -0.698784  -1.281678  -0.138224
C    -0.552115  -0.224952  0.906684
O    0.593779  0.301866  1.127659
H    -0.077614  -2.143609  0.145161
H    -0.314392  -0.911517  -1.097598
H    -1.732950  -1.615806  -0.266170
N    -1.629938  0.139679  1.589296
C    -1.729619  0.973337  2.782886
C    -2.895462  0.291042  3.584911
O    -3.705465  -0.370699  2.937469
H    -2.519043  -0.380579  1.468636
H    -0.781169  0.960781  3.334572
C    -2.176389  2.420208  2.473653
C    -1.148237  3.339296  1.859893
O    -1.548423  4.442229  1.263852
O    0.076102  3.136624  1.912018
H    -2.496979  2.910461  3.410114
H    -3.074800  2.392029  1.837557
N    -2.977444  0.511857  4.908579
C    -1.994258  1.142863  5.784777
H    -3.777657  0.058899  5.346775
H    -2.416810  1.187776  6.792577
H    -1.771608  2.176188  5.484794
H    -1.061075  0.564701  5.839653
H    -2.520814  4.550581  1.260103
Sr    2.024194  1.984069  1.399910
