26
Energy: -105820.008922 eV PBE+vdW (tier 2 basis)
C    0.447242  -2.298346  1.546699
C    0.158070  -0.923338  2.064298
O    1.092310  -0.148508  2.380818
H    1.069396  -2.210860  0.645417
H    -0.447227  -2.883045  1.308642
H    1.043288  -2.840641  2.292799
N    -1.144957  -0.566744  2.158986
C    -1.769435  0.707178  2.565281
C    -1.034870  1.969597  2.044544
O    -0.101904  2.526706  2.677700
H    -1.804646  -1.277486  1.854143
H    -2.732857  0.699722  2.036102
C    -2.197057  0.769167  4.055690
C    -1.184503  0.588117  5.173384
O    -1.652083  0.303596  6.375764
O    0.033968  0.716076  5.053636
H    -2.990374  0.018797  4.194822
H    -2.685387  1.743345  4.233099
N    -1.491214  2.460508  0.896063
C    -0.953499  3.655327  0.242021
H    -2.253319  1.978635  0.427616
H    -0.109766  3.392707  -0.409600
H    -0.620301  4.368078  1.001876
H    -1.744151  4.108535  -0.362957
H    -2.623579  0.206953  6.409679
Sr    1.781855  1.603927  3.735477
