26
Energy: -105819.260906 eV PBE+vdW (tier 2 basis)
C    -0.231518  -0.827818  -0.145398
C    -0.717390  -0.554443  1.236448
O    -0.663672  -1.452643  2.129989
H    -1.014187  -1.417657  -0.649219
H    0.678219  -1.436916  -0.116902
H    -0.055459  0.079556  -0.732990
N    -1.220506  0.664255  1.497350
C    -2.081211  1.082197  2.622313
C    -1.300189  1.233774  3.943478
O    -0.856368  0.219327  4.563226
H    -1.235797  1.295277  0.700786
H    -2.433205  2.080832  2.331291
C    -3.335730  0.203351  2.839774
C    -4.079620  -0.074048  1.533556
O    -5.274571  0.532460  1.515454
O    -3.616810  -0.755640  0.643210
H    -3.990901  0.707478  3.560430
H    -3.062266  -0.774880  3.254618
N    -1.152818  2.461289  4.414738
C    -0.487392  2.815704  5.669725
H    -1.523861  3.229217  3.860186
H    0.530241  3.175082  5.469571
H    -0.447118  1.938809  6.320043
H    -1.057639  3.611764  6.159742
H    -5.727720  0.312229  0.674056
Sr    -0.324511  -1.997558  4.285524
