26
Energy: -105819.187653 eV PBE+vdW (tier 2 basis)
C    -2.201348  -2.034301  1.282369
C    -1.036462  -1.508468  2.069151
O    0.097200  -1.938990  2.028806
H    -3.175244  -1.861572  1.759221
H    -2.058550  -3.100108  1.076487
H    -2.219979  -1.517797  0.309223
N    -1.318790  -0.410369  2.963342
C    -0.126772  0.431935  3.254320
C    0.851049  -0.369094  4.126263
O    0.390599  -1.101511  5.057907
H    -2.118674  0.147110  2.652579
H    0.374331  0.668816  2.305028
C    -0.507625  1.782607  3.892156
C    -1.319242  1.792203  5.170124
O    -1.351089  2.986755  5.714209
O    -1.925672  0.819868  5.650959
H    -1.080047  2.382683  3.163443
H    0.400784  2.375849  4.071010
N    2.152901  -0.235772  3.946871
C    2.852117  0.465805  2.863935
H    2.722920  -0.786693  4.588687
H    2.611827  1.535435  2.853548
H    2.615368  0.010982  1.893395
H    3.926631  0.366834  3.039093
H    -1.917896  2.998894  6.515762
Sr    -1.805337  -1.549101  5.470113
