26
Energy: -105820.06859 eV PBE+vdW (tier 2 basis)
C    -0.804040  0.152989  -0.219395
C    -0.599242  -0.152770  1.232050
O    0.465902  -0.687269  1.628651
H    -1.768673  0.618674  -0.445490
H    -0.715380  -0.782473  -0.788956
H    0.003397  0.812430  -0.564324
N    -1.608495  0.165856  2.072816
C    -1.786548  -0.060437  3.518240
C    -0.826095  0.768924  4.398289
O    0.421505  0.761761  4.222154
H    -2.408033  0.602561  1.623620
H    -2.784856  0.356150  3.698194
C    -1.964288  -1.537449  3.952685
C    -0.821165  -2.526112  4.071172
O    -1.296189  -3.756066  4.130633
O    0.385179  -2.275519  4.164515
H    -2.722555  -1.996197  3.302691
H    -2.429134  -1.536469  4.954219
N    -1.360138  1.501931  5.372516
C    -2.769861  1.688613  5.736984
H    -0.672501  2.016807  5.922658
H    -3.242717  0.742634  6.028111
H    -3.334847  2.162016  4.923888
H    -2.805200  2.357717  6.601192
H    -0.573778  -4.401705  4.283631
Sr    2.004752  -0.713602  3.352254
