26
Energy: -105819.103188 eV PBE+vdW (tier 2 basis)
C    -1.061046  -0.468576  -0.191524
C    -0.738231  -0.783881  1.240293
O    0.268142  -1.336931  1.633648
H    -0.647594  0.525535  -0.425894
H    -2.137039  -0.430478  -0.407188
H    -0.563164  -1.187211  -0.850335
N    -1.739236  -0.413221  2.208972
C    -1.204034  -0.146123  3.569044
C    -0.690288  -1.460773  4.184480
O    -1.361382  -2.525444  4.037203
H    -2.351465  0.334792  1.875144
H    -0.347539  0.542102  3.484546
C    -2.240008  0.567592  4.469793
C    -3.609541  -0.066739  4.651228
O    -4.433334  0.461049  5.530621
O    -4.016418  -1.034185  3.996204
H    -2.411653  1.585268  4.077127
H    -1.789969  0.719004  5.463391
N    0.410341  -1.406975  4.913059
C    1.020276  -2.556460  5.585141
H    0.942671  -0.540275  4.906626
H    1.462901  -2.222118  6.528692
H    1.804331  -2.988733  4.949825
H    0.254123  -3.309877  5.783097
H    -4.064150  1.225979  6.014922
Sr    -3.187036  -2.799986  2.684747
