26
Energy: -105819.380674 eV PBE+vdW (tier 2 basis)
C    -1.278976  2.052860  0.249726
C    -0.698932  2.202363  1.616461
O    0.326825  2.934977  1.806262
H    -1.524819  3.050177  -0.140650
H    -2.175374  1.425473  0.231121
H    -0.523711  1.623959  -0.423069
N    -1.285515  1.550183  2.623616
C    -1.014298  1.752224  4.056806
C    0.360848  1.165629  4.467196
O    1.397554  1.889714  4.346530
H    -2.240563  1.183014  2.451406
H    -0.918664  2.834806  4.242658
C    -2.192288  1.213473  4.898105
C    -3.562163  1.613248  4.353983
O    -4.350124  2.117473  5.298859
O    -3.883076  1.438426  3.188348
H    -2.078901  1.537238  5.938164
H    -2.219361  0.111591  4.892794
N    0.431517  -0.066483  4.935855
C    1.664128  -0.736239  5.358129
H    -0.430010  -0.601403  5.003912
H    2.113199  -1.278476  4.515775
H    1.420492  -1.448920  6.151647
H    2.371434  0.006032  5.737624
H    -5.237827  2.293366  4.918989
Sr    2.208602  3.484297  2.906752
