26
Energy: -105818.637805 eV PBE+vdW (tier 2 basis)
C    0.475218  -0.501847  0.613822
C    -0.114663  -0.690498  1.977799
O    0.247893  -1.579271  2.758585
H    0.557355  -1.475873  0.118495
H    1.497747  -0.115136  0.734282
H    -0.087044  0.192160  -0.020752
N    -1.113815  0.184027  2.354185
C    -1.555690  0.337348  3.735444
C    -2.464380  -0.812549  4.265524
O    -3.472321  -0.562146  5.029258
H    -1.439778  0.857606  1.668657
H    -0.659646  0.300208  4.381567
C    -2.199240  1.739844  3.859987
C    -2.841069  1.969689  5.192232
O    -4.120571  2.423405  5.246445
O    -2.330759  1.711345  6.283337
H    -2.930648  1.897448  3.054529
H    -1.404393  2.493245  3.738151
N    -2.086301  -2.026099  3.957665
C    -2.756749  -3.255287  4.365981
H    -1.149429  -2.074840  3.467775
H    -2.641064  -3.995915  3.568181
H    -3.821517  -3.070677  4.535953
H    -2.295733  -3.658787  5.278274
H    -4.499795  2.625892  4.368080
Sr    -4.116423  0.266005  7.047721
