26
Energy: -105819.572857 eV PBE+vdW (tier 2 basis)
C    0.806068  -0.150872  0.225578
C    0.208426  -0.304112  1.585459
O    0.838699  -0.895877  2.507386
H    1.780943  0.346843  0.313507
H    0.176070  0.410166  -0.472165
H    0.996028  -1.151374  -0.188800
N    -1.029012  0.192194  1.789900
C    -1.852585  0.082636  3.005847
C    -1.305457  0.981843  4.136946
O    -0.261764  0.650535  4.770191
H    -1.468273  0.645111  0.993000
H    -2.835774  0.471648  2.717372
C    -2.040900  -1.412968  3.429480
C    -2.127928  -1.623767  4.922780
O    -0.961061  -2.262805  5.430719
O    -3.024525  -1.315556  5.647160
H    -1.251028  -2.034776  3.000012
H    -2.992202  -1.766672  3.011942
N    -1.983561  2.086957  4.402553
C    -1.640445  3.064282  5.436531
H    -2.832904  2.263991  3.871318
H    -1.546333  4.057559  4.982209
H    -0.694575  2.779327  5.901385
H    -2.433419  3.088967  6.194004
H    -1.186132  -2.517404  6.351775
Sr    1.266480  -1.104705  4.761793
