26
Energy: -105819.381266 eV PBE+vdW (tier 2 basis)
C    -0.649395  0.797007  -0.531363
C    -0.458222  1.448495  0.800053
O    0.202724  2.527058  0.903568
H    0.317766  0.683971  -1.036530
H    -1.257331  1.468898  -1.155667
H    -1.147228  -0.176631  -0.475714
N    -1.017562  0.867369  1.872106
C    -1.166764  1.430913  3.228137
C    0.137348  1.216355  4.041757
O    1.219628  1.692406  3.553776
H    -1.506858  -0.008747  1.702632
H    -1.264775  2.522939  3.112666
C    -2.496770  0.855867  3.769449
C    -2.945268  1.337414  5.144593
O    -4.053501  2.070753  5.079048
O    -2.364487  1.047350  6.179325
H    -2.425881  -0.241637  3.835898
H    -3.279524  1.099039  3.041062
N    0.102115  0.586165  5.191098
C    1.272601  0.352177  6.036713
H    -0.834867  0.448257  5.631071
H    1.081164  -0.533759  6.649629
H    1.442572  1.210359  6.701176
H    2.158341  0.188111  5.417267
H    -4.337705  2.307487  5.988093
Sr    2.062089  3.172330  2.054545
