26
Energy: -105819.176906 eV PBE+vdW (tier 2 basis)
C    0.829279  -0.995131  1.299487
C    0.080826  0.257910  1.605214
O    0.687705  1.357302  1.809760
H    1.510701  -1.214574  2.133771
H    1.452164  -0.844084  0.407396
H    0.177609  -1.860114  1.138121
N    -1.262221  0.217298  1.665082
C    -2.040624  1.419449  1.943720
C    -3.496163  1.250978  2.435398
O    -4.230965  2.253474  2.337497
H    -1.727664  -0.632114  1.351924
H    -1.524913  1.900918  2.791317
C    -2.040590  2.403636  0.730837
C    -1.839328  3.792829  1.291005
O    -2.817619  4.346680  1.916906
O    -0.699864  4.330833  1.248577
H    -2.986016  2.331294  0.179992
H    -1.221031  2.167377  0.046505
N    -3.893819  0.092263  2.961505
C    -5.242956  -0.117274  3.502328
H    -3.212182  -0.643829  3.115763
H    -5.541667  -1.153664  3.317928
H    -5.935347  0.562861  2.999460
H    -5.259878  0.083840  4.580937
H    -3.567115  3.626049  2.030645
Sr    1.411471  3.548886  1.669887
