26
Energy: -105819.09114 eV PBE+vdW (tier 2 basis)
C    0.021966  0.730995  0.937721
C    0.305364  0.077502  2.246165
O    1.482475  -0.155625  2.634827
H    0.609509  1.659378  0.892486
H    -1.033730  0.975158  0.786979
H    0.376822  0.093845  0.115783
N    -0.718904  -0.282495  3.076198
C    -1.954362  -0.968268  2.629932
C    -2.630361  -1.499739  3.887060
O    -2.035283  -2.439177  4.557169
H    -0.361874  -0.616619  3.971421
H    -2.613453  -0.262797  2.113850
C    -1.647208  -2.167473  1.662238
C    -0.275090  -2.750726  1.974294
O    0.008407  -3.054081  3.205661
O    0.615335  -2.780850  1.087860
H    -1.649730  -1.817134  0.625181
H    -2.422755  -2.943446  1.744172
N    -3.788299  -1.076330  4.327580
C    -4.655708  -0.006830  3.822557
H    -4.129677  -1.578833  5.152402
H    -5.036343  0.557076  4.681141
H    -5.502512  -0.440391  3.276108
H    -4.102215  0.678643  3.176643
H    -1.163424  -2.781240  4.062420
Sr    2.393658  -2.367609  2.638015
