26
Energy: -105819.331137 eV PBE+vdW (tier 2 basis)
C    -0.013177  -0.050354  0.037008
C    0.074076  -0.087428  1.526010
O    1.195120  -0.276051  2.106609
H    0.614448  0.774384  -0.330082
H    -1.035726  0.088135  -0.327516
H    0.402436  -0.976659  -0.381004
N    -1.042577  0.090903  2.232262
C    -1.104074  0.229754  3.689524
C    -0.952352  -1.149891  4.382778
O    0.238114  -1.504027  4.677939
H    -1.959553  0.249817  1.769284
H    -0.185892  0.745134  4.006182
C    -2.275577  1.143508  4.118531
C    -3.549197  1.102520  3.286887
O    -4.577697  1.601319  3.967428
O    -3.616502  0.702440  2.131803
H    -1.924936  2.185738  4.052432
H    -2.519048  0.990523  5.177289
N    -1.954974  -1.964268  4.666633
C    -3.390108  -1.858603  4.381078
H    -1.657715  -2.812767  5.150052
H    -3.820944  -2.858536  4.484428
H    -3.562887  -1.518485  3.355984
H    -3.890723  -1.195877  5.097997
H    -5.362253  1.649864  3.380330
Sr    2.343993  -1.260102  3.784324
