26
Energy: -105819.012804 eV PBE+vdW (tier 2 basis)
C    -0.798990  -1.104632  -0.159611
C    -0.549644  -0.319677  1.086354
O    0.538901  0.254956  1.297111
H    -1.860122  -1.247811  -0.388061
H    -0.314555  -2.089729  -0.073800
H    -0.315463  -0.585410  -0.996025
N    -1.551146  -0.209261  2.037808
C    -2.284249  -1.404545  2.477878
C    -3.775645  -1.137634  2.592538
O    -4.590972  -2.039573  3.082709
H    -1.232259  0.363662  2.826454
H    -2.167413  -2.178166  1.703376
C    -1.678471  -1.955019  3.814613
C    -0.168411  -1.695040  3.752126
O    0.281911  -0.682985  4.383860
O    0.545038  -2.381544  2.955438
H    -1.863072  -3.033703  3.908132
H    -2.093923  -1.430875  4.683935
N    -4.286344  -0.011825  2.187466
C    -5.702763  0.376721  2.219380
H    -3.610095  0.643861  1.789107
H    -6.279723  -0.360995  2.780839
H    -6.078753  0.440458  1.190733
H    -5.783573  1.360155  2.695831
H    -4.138767  -2.847058  3.392869
Sr    2.165502  -0.571329  2.912938
