26
Energy: -105818.401518 eV PBE+vdW (tier 2 basis)
C    0.482481  0.204762  0.232958
C    -0.017968  0.119401  1.656847
O    0.700678  0.226705  2.623896
H    0.558504  1.261175  -0.063048
H    -0.130106  -0.325820  -0.506821
H    1.499898  -0.199932  0.210579
N    -1.402828  -0.129350  1.885843
C    -2.520062  0.009861  0.980842
C    -2.697194  -1.223262  0.059352
O    -3.505695  -1.188596  -0.927548
H    -1.614912  -0.059653  2.880433
H    -3.419455  -0.012593  1.618858
C    -2.534468  1.379963  0.191523
C    -3.912372  1.968720  0.012349
O    -4.308624  2.978612  0.753137
O    -4.732845  1.521811  -0.812535
H    -2.085239  1.261113  -0.802504
H    -1.900366  2.076223  0.752698
N    -2.023705  -2.300661  0.395651
C    -2.067150  -3.602712  -0.261959
H    -1.423895  -2.181577  1.217124
H    -1.045652  -3.920939  -0.500484
H    -2.652722  -3.532472  -1.181249
H    -2.519370  -4.342390  0.410580
H    -3.616809  3.314214  1.356712
Sr    -5.213808  -0.315777  -2.122959
