26
Energy: -105818.632057 eV PBE+vdW (tier 2 basis)
C    -0.231660  0.819895  0.016491
C    -0.192044  0.818451  1.508004
O    0.711257  1.449468  2.139717
H    -0.699385  1.745398  -0.354999
H    -0.771134  -0.036847  -0.399311
H    0.801436  0.818704  -0.352619
N    -1.131197  0.148121  2.218914
C    -2.557263  0.213970  1.908509
C    -3.031761  1.673760  2.217973
O    -2.219080  2.508665  2.743732
H    -0.916600  0.078156  3.214829
H    -2.694570  0.037125  0.832510
C    -3.300506  -0.879345  2.701964
C    -4.717663  -1.257086  2.285500
O    -5.110944  -0.638603  1.116157
O    -5.400539  -2.028337  2.894647
H    -3.337204  -0.645170  3.775915
H    -2.718904  -1.809442  2.609308
N    -4.270603  1.985639  1.907970
C    -4.912257  3.280720  2.135505
H    -4.825480  1.241097  1.466524
H    -4.881523  3.885951  1.220059
H    -4.404856  3.811264  2.944886
H    -5.957804  3.110284  2.411532
H    -5.989079  -1.006019  0.879356
Sr    -0.115737  3.264857  3.323910
