26
Energy: -105818.987646 eV PBE+vdW (tier 2 basis)
C    -1.374685  -1.655865  1.704107
C    -0.249996  -0.734212  2.041369
O    0.953248  -1.053880  1.792746
H    -1.034076  -2.684551  1.875626
H    -1.628205  -1.580397  0.635031
H    -2.277682  -1.466552  2.292859
N    -0.496543  0.467608  2.618804
C    -1.548398  1.361931  2.147376
C    -1.073501  1.953975  0.771620
O    0.043243  1.566022  0.273803
H    0.348056  0.940568  2.943927
H    -2.444762  0.759541  1.938299
C    -1.889201  2.392464  3.245420
C    -3.249357  3.054611  3.080097
O    -3.720588  3.481487  4.244407
O    -3.829580  3.184950  2.009409
H    -1.134734  3.194175  3.295387
H    -1.869143  1.884207  4.218212
N    -1.873428  2.806203  0.183931
C    -1.639355  3.463316  -1.099035
H    -2.755158  3.019887  0.710254
H    -1.926802  4.516732  -1.012780
H    -2.257855  2.995405  -1.876105
H    -0.584694  3.391959  -1.375632
H    -4.577326  3.937907  4.102404
Sr    1.906007  0.241804  0.115447
