26
Energy: -105818.999932 eV PBE+vdW (tier 2 basis)
C    0.528437  -0.187177  -0.844255
C    0.065844  0.474754  0.411808
O    0.890964  0.673775  1.370786
H    1.392578  0.352821  -1.252618
H    -0.253900  -0.250433  -1.606724
H    0.871233  -1.202912  -0.599331
N    -1.206982  0.839003  0.499060
C    -1.959833  1.288235  1.665344
C    -3.375474  0.645653  1.425735
O    -3.645984  0.309979  0.272188
H    -1.882474  0.542822  -0.233486
H    -1.487221  0.916578  2.583314
C    -2.141442  2.821632  1.717616
C    -0.925913  3.638757  2.083902
O    -0.883094  4.912163  1.754129
O    0.039337  3.186109  2.721195
H    -2.905209  3.072348  2.475055
H    -2.550869  3.171405  0.757572
N    -4.224200  0.526619  2.460316
C    -4.035112  0.865163  3.865406
H    -5.131459  0.146603  2.192488
H    -4.531578  0.110773  4.485577
H    -4.465347  1.846889  4.111610
H    -2.972717  0.859000  4.133276
H    -1.673298  5.211593  1.261121
Sr    1.932348  1.858883  2.937767
