26
Energy: -105819.363371 eV PBE+vdW (tier 2 basis)
C    1.079518  0.676933  -0.007861
C    0.667743  0.104984  1.310830
O    1.534329  -0.408689  2.084179
H    1.902506  1.388541  0.134216
H    0.264357  1.168486  -0.548674
H    1.472125  -0.142042  -0.628801
N    -0.633358  0.146793  1.632213
C    -1.360321  -0.507474  2.734141
C    -1.090419  0.108691  4.123229
O    0.093085  0.323507  4.543199
H    -1.232607  0.597298  0.945435
H    -2.416464  -0.315519  2.507683
C    -1.209068  -2.041583  2.751466
C    -2.447449  -2.685797  3.374650
O    -2.317836  -4.012789  3.425997
O    -3.416112  -2.055960  3.756389
H    -0.313093  -2.388197  3.282923
H    -1.115650  -2.415023  1.721282
N    -2.157403  0.345629  4.860082
C    -2.157753  0.855241  6.228951
H    -3.046488  0.005503  4.483826
H    -1.174002  1.262938  6.470483
H    -2.409436  0.047512  6.928505
H    -2.913828  1.643715  6.313499
H    -3.139586  -4.400377  3.794260
Sr    2.295215  -0.118320  4.200898
