26
Energy: -105818.478573 eV PBE+vdW (tier 2 basis)
C    -1.239532  -1.542261  1.651914
C    -0.607453  -0.315387  2.262730
O    0.231199  -0.333228  3.133188
H    -1.205742  -1.535225  0.553364
H    -2.288653  -1.651856  1.966236
H    -0.691652  -2.415763  2.016050
N    -1.000362  0.956886  1.747171
C    -2.183601  1.251083  0.983036
C    -1.843528  1.909302  -0.376992
O    -2.771597  2.328268  -1.147663
H    -0.607217  1.708688  2.316166
H    -2.655945  0.290546  0.723493
C    -3.210654  2.106891  1.825081
C    -4.664542  1.786470  1.572603
O    -5.389446  1.210523  2.504712
O    -5.232705  2.029931  0.491140
H    -3.064342  3.179114  1.630624
H    -2.968788  1.938240  2.881334
N    -0.569285  1.969680  -0.690831
C    0.007857  2.497248  -1.923019
H    0.052864  1.573439  0.021333
H    0.512705  1.689895  -2.467816
H    0.744372  3.270981  -1.676241
H    -0.780625  2.925417  -2.545808
H    -4.905984  1.070147  3.342567
Sr    -4.930815  2.650482  -1.712188
