26
Energy: -105819.263679 eV PBE+vdW (tier 2 basis)
C    0.895802  -0.654817  -0.209039
C    0.500590  -0.490701  1.220313
O    1.371615  -0.495625  2.142230
H    1.470812  -1.582803  -0.326296
H    1.566500  0.172058  -0.483624
H    0.045165  -0.666916  -0.898168
N    -0.800943  -0.322988  1.514124
C    -1.303091  -0.012408  2.857765
C    -1.330288  -1.287141  3.742215
O    -0.278635  -1.535467  4.418802
H    -1.458377  -0.310747  0.738215
H    -0.532923  0.601452  3.343494
C    -2.565579  0.852179  2.797730
C    -3.023064  1.162029  4.215029
O    -4.095995  1.953955  4.225879
O    -2.451722  0.719988  5.195754
H    -3.391815  0.401410  2.232972
H    -2.330822  1.797429  2.286053
N    -2.326106  -2.157742  3.759356
C    -3.616187  -2.149726  3.066098
H    -2.173347  -2.929899  4.408551
H    -4.341426  -1.506713  3.580738
H    -4.002241  -3.173291  3.068860
H    -3.505415  -1.840142  2.022417
H    -4.348580  2.141425  5.154098
Sr    1.947077  -1.084799  4.282433
