26
Energy: -105818.927505 eV PBE+vdW (tier 2 basis)
C    0.209429  0.566496  0.080723
C    0.133989  0.204309  1.532460
O    0.952697  0.588852  2.375710
H    -0.528432  0.051688  -0.544252
H    1.219822  0.356472  -0.289866
H    0.055805  1.650966  -0.011178
N    -0.920403  -0.597065  1.926437
C    -1.186706  -0.829364  3.339243
C    -0.267206  -1.931420  3.936451
O    -0.735638  -3.015643  4.435478
H    -1.532653  -1.001606  1.224909
H    -0.894878  0.101964  3.856042
C    -2.703610  -1.077810  3.530106
C    -3.166130  -1.056627  4.972426
O    -3.497613  0.077681  5.546974
O    -3.238094  -2.086673  5.664971
H    -2.991244  -2.046182  3.099412
H    -3.232575  -0.296054  2.966706
N    1.013720  -1.650968  3.895242
C    2.096531  -2.521071  4.340758
H    1.236411  -0.726119  3.451024
H    2.956831  -2.372882  3.680386
H    1.784644  -3.568875  4.300488
H    2.397761  -2.261965  5.364765
H    -3.465591  0.845657  4.942912
Sr    -2.090788  -4.103360  5.855878
