26
Energy: -105819.0571 eV PBE+vdW (tier 2 basis)
C    -1.031860  -2.723147  0.310321
C    -0.579169  -1.438013  0.919809
O    0.605601  -1.058212  0.862688
H    -0.496308  -2.862271  -0.636967
H    -2.110125  -2.771942  0.126829
H    -0.740796  -3.559546  0.964811
N    -1.507499  -0.620741  1.562963
C    -2.423141  -1.202279  2.565192
C    -3.825407  -0.641539  2.332300
O    -4.061927  -0.006405  1.218111
H    -1.046065  0.227614  1.911097
H    -2.485345  -2.283477  2.371293
C    -1.874137  -0.986489  4.009484
C    -0.346533  -1.075426  3.922100
O    0.306508  0.020373  3.890398
O    0.199548  -2.204993  3.717935
H    -2.254972  -1.765797  4.682225
H    -2.149853  0.003022  4.393405
N    -4.796957  -0.801565  3.186200
C    -6.185939  -0.341980  3.020916
H    -4.581495  -1.304010  4.046266
H    -6.843728  -1.216313  2.944554
H    -6.269289  0.267488  2.119001
H    -6.465697  0.248133  3.900849
H    -3.213082  0.044630  0.711350
Sr    2.124670  -1.061115  2.780870
