26
Energy: -105818.811249 eV PBE+vdW (tier 2 basis)
C    -0.598808  0.896183  0.049319
C    -0.543020  0.309159  1.420992
O    0.431820  -0.436385  1.765808
H    0.314329  1.475428  -0.141454
H    -1.470150  1.539351  -0.111978
H    -0.617014  0.078614  -0.685515
N    -1.539526  0.569940  2.271458
C    -1.705971  0.003772  3.612820
C    -3.214840  -0.354646  3.880570
O    -3.760794  0.105511  4.876047
H    -2.290939  1.165629  1.927462
H    -1.120790  -0.926009  3.644085
C    -1.255085  0.946294  4.737012
C    0.145324  0.789838  5.241284
O    0.555228  1.543837  6.236737
O    0.972960  -0.022693  4.778746
H    -1.976341  0.789591  5.567732
H    -1.405807  2.000180  4.453068
N    -3.838674  -1.159691  2.991364
C    -3.293075  -1.911513  1.867245
H    -4.816963  -1.320620  3.225207
H    -3.327296  -1.343323  0.926674
H    -3.890361  -2.819469  1.734387
H    -2.260869  -2.229387  2.061619
H    -0.144653  2.130653  6.588717
Sr    2.111906  -1.114926  3.114056
