26
Energy: -105819.55735 eV PBE+vdW (tier 2 basis)
C    -2.016207  -2.957902  -0.005818
C    -1.599310  -1.973294  1.031178
O    -0.438651  -1.476065  1.043408
H    -3.059473  -3.275593  0.090721
H    -1.362092  -3.838893  0.053385
H    -1.860612  -2.515279  -0.999142
N    -2.507648  -1.604778  1.981426
C    -2.074147  -0.641775  2.974382
C    -1.365840  -1.282328  4.189368
O    -0.103081  -1.204240  4.218739
H    -3.435082  -2.019681  1.974514
H    -1.252626  -0.196454  2.423377
C    -2.889086  0.620316  3.257291
C    -1.892324  1.786957  3.334192
O    -2.448435  2.889116  3.779856
O    -0.700951  1.702290  2.996846
H    -3.496495  0.606970  4.171244
H    -3.578648  0.841196  2.426847
N    -2.081944  -1.883093  5.127415
C    -1.530260  -2.556000  6.307487
H    -3.093907  -1.890891  5.024193
H    -1.795938  -3.619555  6.283259
H    -1.943780  -2.101796  7.215373
H    -0.443612  -2.447250  6.302136
H    -1.806243  3.631349  3.790522
Sr    1.034389  -0.136325  2.424802
