26
Energy: -105818.789189 eV PBE+vdW (tier 2 basis)
C    0.043712  -0.666933  -0.133399
C    -0.320851  -0.673772  1.321171
O    -0.135952  -1.618292  2.089541
H    -0.240798  -1.626132  -0.580597
H    1.136345  -0.584092  -0.221365
H    -0.414016  0.154529  -0.696154
N    -0.908572  0.467788  1.842640
C    -1.091850  0.473891  3.273858
C    -1.970763  -0.697216  3.770159
O    -1.628577  -1.274174  4.858524
H    -1.022112  1.309755  1.287966
H    -0.112258  0.254555  3.732139
C    -1.553193  1.845210  3.801140
C    -1.258206  2.069734  5.275147
O    -1.666912  3.183592  5.841715
O    -0.632715  1.266656  5.983140
H    -2.625120  2.025843  3.625131
H    -1.013670  2.637568  3.253440
N    -3.091692  -1.067912  3.174417
C    -3.725502  -0.589840  1.943319
H    -3.529719  -1.878942  3.611995
H    -4.794349  -0.815881  2.009085
H    -3.308073  -1.101776  1.067004
H    -3.607547  0.489529  1.824093
H    -2.137887  3.786787  5.232739
Sr    -0.198776  -0.973581  6.562880
