26
Energy: -105818.982476 eV PBE+vdW (tier 2 basis)
C    0.006184  -0.241840  0.228668
C    -0.145135  -0.140325  1.716689
O    0.774666  -0.184554  2.526508
H    0.816395  -0.940593  -0.004595
H    0.302610  0.742210  -0.163830
H    -0.912932  -0.553462  -0.281085
N    -1.448114  0.012450  2.214417
C    -1.530139  0.350552  3.618987
C    -1.153202  -0.862774  4.499197
O    -0.619802  -0.664258  5.639232
H    -2.201858  0.266533  1.581935
H    -0.745683  1.096902  3.831942
C    -2.896295  0.960220  3.985317
C    -2.901969  1.766747  5.270994
O    -4.033865  2.287622  5.689737
O    -1.888899  1.984379  5.953366
H    -3.688387  0.196613  4.043849
H    -3.200079  1.656556  3.184216
N    -1.434025  -2.064270  4.043238
C    -1.126050  -3.329226  4.707269
H    -1.788283  -2.095332  3.086674
H    -1.986027  -4.001553  4.617533
H    -0.912355  -3.144343  5.762344
H    -0.253496  -3.796046  4.232265
H    -4.795357  2.099337  5.105467
Sr    0.077274  1.097584  6.866456
