26
Energy: -105819.429836 eV PBE+vdW (tier 2 basis)
C    0.143245  -0.783718  -0.027591
C    -0.077545  -0.174102  1.316084
O    0.404338  0.964742  1.602195
H    1.219722  -0.831480  -0.237727
H    -0.300196  -0.123291  -0.786826
H    -0.290401  -1.783827  -0.129261
N    -0.811410  -0.847964  2.217372
C    -1.222371  -0.302594  3.516661
C    -0.072330  -0.405961  4.545012
O    0.826683  0.491181  4.543237
H    -1.171998  -1.758368  1.941689
H    -1.366802  0.777523  3.379080
C    -2.567383  -0.870812  3.968592
C    -3.046967  -0.088760  5.189090
O    -4.200850  -0.569921  5.653065
O    -2.426705  0.852282  5.647548
H    -2.549322  -1.949924  4.189542
H    -3.310174  -0.751732  3.165353
N    -0.014079  -1.432762  5.371510
C    1.031338  -1.614385  6.383959
H    -0.769505  -2.111438  5.352492
H    0.874232  -2.578540  6.873637
H    0.975398  -0.813150  7.131073
H    2.020478  -1.603696  5.913250
H    -4.491109  -0.030389  6.418118
Sr    1.439141  2.236811  3.194756
