26
Energy: -105818.858685 eV PBE+vdW (tier 2 basis)
C    -0.902284  -1.088825  -0.234803
C    -0.460733  -0.244854  0.925341
O    0.148022  0.810411  0.827234
H    -1.711957  -0.563050  -0.759989
H    -1.256014  -2.085458  0.052461
H    -0.071587  -1.181770  -0.943964
N    -0.778406  -0.733761  2.202317
C    -0.508129  0.110495  3.338216
C    0.297495  -0.627641  4.404559
O    -0.157434  -0.768709  5.598781
H    -1.354392  -1.564375  2.299685
H    0.130102  0.908156  2.899775
C    -1.815414  0.781282  3.864853
C    -1.603983  1.943816  4.796314
O    -1.457990  3.093800  4.185205
O    -1.558996  1.844402  6.043887
H    -2.457494  0.040170  4.358755
H    -2.337740  1.153646  2.975677
N    1.483270  -1.126783  4.100025
C    2.222943  -1.044900  2.835538
H    1.926081  -1.658013  4.849386
H    1.989473  -1.908402  2.200147
H    3.291834  -1.052312  3.070184
H    1.984173  -0.122653  2.297042
H    -1.324730  3.827042  4.824860
Sr    -1.081110  0.053285  7.473515
