26
Energy: -105819.246289 eV PBE+vdW (tier 2 basis)
C    0.559901  0.638119  0.200474
C    0.218143  0.175846  1.576194
O    1.118052  0.028966  2.457717
H    0.990299  1.647710  0.270875
H    -0.300514  0.665521  -0.475867
H    1.336765  -0.011164  -0.223696
N    -1.067326  -0.076565  1.874931
C    -1.543335  -0.364979  3.233110
C    -1.256796  -1.825247  3.634671
O    -0.177997  -2.040375  4.280122
H    -1.758263  0.076126  1.144161
H    -0.902940  0.231603  3.902560
C    -2.943070  0.200190  3.475427
C    -2.813604  1.669059  3.902215
O    -3.992724  2.288211  3.829390
O    -1.767597  2.164982  4.271069
H    -3.439709  -0.332052  4.300632
H    -3.616852  0.118999  2.612569
N    -2.056683  -2.834620  3.333647
C    -3.310094  -2.842673  2.573875
H    -1.741684  -3.736304  3.694700
H    -4.170348  -2.651310  3.227293
H    -3.426438  -3.833854  2.124947
H    -3.284905  -2.107313  1.764901
H    -3.892721  3.209555  4.148499
Sr    1.863438  -0.962432  4.368585
