26
Energy: -105818.67778 eV PBE+vdW (tier 2 basis)
C    0.642222  0.735067  0.420328
C    0.219732  -0.340286  1.363383
O    0.777101  -1.483178  1.329092
H    1.728133  0.880069  0.489297
H    0.136994  1.690281  0.596453
H    0.427775  0.403934  -0.606385
N    -0.759068  -0.078629  2.243066
C    -1.406104  -1.080844  3.092059
C    -2.920211  -1.257577  2.743674
O    -3.217573  -2.302416  2.176254
H    -1.188284  0.841184  2.175627
H    -1.029781  -2.045009  2.745315
C    -1.059938  -0.966531  4.587923
C    0.202724  -1.714639  4.977367
O    0.727277  -1.522607  6.166410
O    0.763504  -2.537225  4.235400
H    -1.874353  -1.415222  5.184054
H    -0.981003  0.077308  4.923109
N    -3.805810  -0.277132  3.038169
C    -3.638093  0.928488  3.841717
H    -4.757844  -0.512637  2.761230
H    -4.404360  1.653525  3.549000
H    -2.667366  1.411546  3.668862
H    -3.748918  0.732842  4.918345
H    0.234596  -0.876178  6.710544
Sr    1.450348  -3.448059  2.199617
