26
Energy: -105820.098187 eV PBE+vdW (tier 2 basis)
C    -1.087347  0.247211  0.176043
C    -0.791091  0.037596  1.627586
O    0.390997  0.039056  2.053682
H    -0.677958  1.219823  -0.130267
H    -2.154009  0.214354  -0.068385
H    -0.560111  -0.517087  -0.410356
N    -1.844453  -0.141256  2.457113
C    -1.836180  -0.323361  3.918853
C    -0.832840  0.612983  4.627903
O    0.303472  0.209881  5.000974
H    -2.762725  -0.129359  2.021143
H    -2.828956  0.023799  4.237006
C    -1.804139  -1.797057  4.393953
C    -0.781805  -2.772885  3.851951
O    -1.309302  -3.969689  3.684648
O    0.412891  -2.541182  3.626203
H    -2.791776  -2.236926  4.208395
H    -1.679954  -1.806622  5.490573
N    -1.225728  1.859181  4.874586
C    -2.508554  2.499219  4.563618
H    -0.540626  2.419866  5.380859
H    -3.329380  2.049220  5.137774
H    -2.726838  2.454390  3.490336
H    -2.437181  3.552132  4.849725
H    -0.623723  -4.616931  3.411726
Sr    1.946317  -0.714358  3.619356
