26
Energy: -105820.1763 eV PBE+vdW (tier 2 basis)
C    0.242073  0.235622  -1.264094
C    -0.310415  -0.711917  -0.245270
O    -0.310729  -1.950156  -0.453854
H    -0.283689  0.081633  -2.215738
H    1.297648  -0.013435  -1.440366
H    0.166809  1.289813  -0.978541
N    -0.792401  -0.173351  0.897960
C    -1.358722  -0.826005  2.095004
C    -0.537372  -2.039989  2.594919
O    -0.732289  -3.210124  2.173525
H    -0.735446  0.839835  0.955530
H    -1.246960  -0.062434  2.877014
C    -2.892167  -1.050111  2.051769
C    -3.559764  -1.782875  0.906997
O    -4.748602  -1.270930  0.653083
O    -3.119493  -2.763872  0.295750
H    -3.381195  -0.070661  2.126361
H    -3.189023  -1.591700  2.966945
N    0.360593  -1.776189  3.538638
C    1.223710  -2.780257  4.163550
H    0.468933  -0.815057  3.850682
H    0.716963  -3.749080  4.156815
H    1.422658  -2.478369  5.196262
H    2.176360  -2.859373  3.623578
H    -5.215047  -1.797410  -0.031311
Sr    -1.133431  -4.060606  0.036789
