26
Energy: -105819.347028 eV PBE+vdW (tier 2 basis)
C    -0.273341  1.423547  -0.300879
C    0.082086  0.714129  0.958383
O    1.273362  0.566021  1.333665
H    0.022704  0.761357  -1.131574
H    0.308910  2.345280  -0.408115
H    -1.343842  1.625098  -0.408956
N    -0.904560  0.155128  1.735021
C    -2.100509  0.864899  2.188425
C    -1.780195  2.363618  2.445420
O    -0.604047  2.712086  2.746905
H    -0.519538  -0.496930  2.415350
H    -2.900120  0.788510  1.438699
C    -2.626711  0.187488  3.477781
C    -1.655334  0.115121  4.655153
O    -2.113073  -0.321439  5.810466
O    -0.458040  0.414331  4.586274
H    -2.930932  -0.845417  3.235513
H    -3.545026  0.693756  3.809690
N    -2.754030  3.261276  2.349046
C    -4.167100  3.072929  2.005176
H    -2.462367  4.214347  2.569226
H    -4.548796  4.017455  1.606191
H    -4.761490  2.807835  2.889454
H    -4.292114  2.307161  1.232510
H    -3.061462  -0.558965  5.800817
Sr    1.366674  1.605491  3.499857
