26
Energy: -105818.471916 eV PBE+vdW (tier 2 basis)
C    -1.474274  1.677488  0.436683
C    -0.315901  0.933171  1.055311
O    0.824705  1.333337  1.082770
H    -1.128643  2.682072  0.178147
H    -2.335164  1.761108  1.115433
H    -1.807538  1.187805  -0.491007
N    -0.597937  -0.318662  1.672679
C    -1.811757  -1.095085  1.565489
C    -2.698473  -0.956502  2.831479
O    -3.887780  -1.423694  2.848207
H    0.261594  -0.798324  1.939752
H    -2.419989  -0.691109  0.740869
C    -1.435136  -2.566566  1.220641
C    -2.459788  -3.449583  0.544408
O    -2.043004  -4.509977  -0.110956
O    -3.687253  -3.258639  0.578063
H    -1.100071  -3.106316  2.123988
H    -0.554289  -2.513962  0.562290
N    -2.172374  -0.308742  3.845666
C    -2.806822  -0.020410  5.127965
H    -1.231202  0.054446  3.663094
H    -2.196636  -0.436810  5.938362
H    -3.804638  -0.463870  5.153022
H    -2.880144  1.065512  5.264082
H    -1.069737  -4.606644  -0.129713
Sr    -5.525920  -2.541873  1.782546
