26
Energy: -105819.928206 eV PBE+vdW (tier 2 basis)
C    -0.818550  0.159096  0.204820
C    -0.526117  0.290918  1.666667
O    0.516321  0.863596  2.067690
H    0.002953  -0.390812  -0.273962
H    -0.832784  1.161805  -0.243822
H    -1.763902  -0.347076  -0.016046
N    -1.436570  -0.222945  2.527492
C    -1.440182  -0.193734  3.999748
C    -0.888654  1.130703  4.576616
O    0.296379  1.236102  4.994475
H    -2.252230  -0.653301  2.099722
H    -2.507004  -0.199068  4.264879
C    -0.900648  -1.479308  4.676182
C    0.491888  -2.000444  4.367387
O    0.744469  -3.267275  4.642038
O    1.414262  -1.323635  3.910736
H    -1.620406  -2.283426  4.460414
H    -0.943122  -1.337283  5.770134
N    -1.732839  2.155753  4.658701
C    -3.145226  2.222526  4.268273
H    -1.331682  2.991207  5.084319
H    -3.479602  3.256312  4.391528
H    -3.769082  1.588214  4.912113
H    -3.281812  1.946939  3.216171
H    -0.024256  -3.755550  4.995490
Sr    2.209846  0.886462  3.672446
