19
Energy: -102186.6561439  eV PBE+vdW (tier 2 basis)
 N    0.06528    0.11155    0.13631
 C   -0.18055    0.04988    1.49499
 C    1.29073    0.25071    2.35499
 O    1.25676    1.05827    3.23197
 H    0.06133    1.00740   -0.34713
 H    0.43265   -0.68669   -0.37492
 H   -0.72470    0.94397    1.81496
 C   -0.86810   -1.22541    2.04905
 C   -0.10288   -2.53251    2.33890
 C    0.65360   -3.22225    1.23151
 O    0.51802   -4.46870    1.04631
 O    1.52002   -2.56893    0.49728
 H   -1.70326   -1.42603    1.36148
 H   -1.31551   -0.92110    3.00446
 H   -0.82417   -3.25788    2.73472
 H    0.62977   -2.37397    3.15040
 O    2.28700   -0.48963    1.95460
 H    2.01304   -1.19939    1.28747
Sr    2.29092   -4.72034   -0.42458
