19
Energy: -102187.1338712  eV PBE+vdW (tier 2 basis)
 N    0.05437    0.52755    0.25246
 C   -0.07571   -0.06556    1.50602
 C    1.39488   -0.36256    2.14147
 O    1.55555   -0.25753    3.32366
 H    0.01472    1.53978    0.14662
 H    0.44935    0.01004   -0.53197
 H   -0.53662    0.63569    2.21159
 C   -0.78611   -1.45240    1.52210
 C   -2.29117   -1.28284    1.27623
 C   -3.08981   -2.56180    1.45684
 O   -4.32441   -2.54702    1.11832
 O   -2.56026   -3.61748    1.95086
 H   -0.60945   -1.91249    2.50237
 H   -0.33003   -2.10781    0.76719
 H   -2.50728   -0.89257    0.27120
 H   -2.73286   -0.55411    1.97595
 O    2.25505   -0.72058    1.20148
 H    3.13203   -0.91644    1.60134
Sr   -4.62618   -4.75264    1.82714
