19
Energy: -102186.9497234  eV PBE+vdW (tier 2 basis)
 N    0.53749    0.05915    0.30741
 C   -0.59220   -0.20562    1.28983
 C   -0.33670    0.77562    2.53666
 O    0.57715    1.58126    2.34275
 H    0.88824    1.02191    0.49317
 H    0.23979   -0.03095   -0.67393
 H   -1.51159    0.17676    0.81996
 C   -0.68980   -1.69781    1.60970
 C   -2.05254   -2.18933    2.12826
 C   -2.24189   -1.92821    3.58970
 O   -1.31088   -2.12779    4.44608
 O   -3.31223   -1.43312    4.06320
 H    0.11559   -2.00558    2.29814
 H   -0.50098   -2.24554    0.66898
 H   -2.10390   -3.28356    1.99389
 H   -2.89927   -1.76994    1.56742
 O   -1.10990    0.62146    3.51977
 H    1.33386   -0.57775    0.45758
Sr   -1.94524   -0.03796    5.60746
