19
Energy: -102186.8870389  eV PBE+vdW (tier 2 basis)
 N    0.14706   -0.36975    0.13121
 C   -0.05989   -0.24155    1.53200
 C    1.31566   -0.39618    2.30857
 O    1.40697   -0.12348    3.50295
 H    0.28411    0.46049   -0.44396
 H   -0.20992   -1.18554   -0.36489
 H   -0.36391    0.79513    1.76435
 C   -1.09568   -1.27158    2.08334
 C   -2.07968   -0.70403    3.13874
 C   -1.38227   -0.29739    4.39813
 O   -1.14073    0.92966    4.67190
 O   -0.90277   -1.15399    5.21637
 H   -0.59102   -2.16365    2.47766
 H   -1.70742   -1.60394    1.23449
 H   -2.80470   -1.49464    3.38154
 H   -2.62972    0.15673    2.73575
 O    2.34910   -0.83632    1.64800
 H    2.11265   -0.97047    0.69908
Sr    0.90515    0.33950    5.85574
