19
Energy: -102186.9001913  eV PBE+vdW (tier 2 basis)
 N    0.29196   -0.32628    0.11329
 C    0.03418   -0.14651    1.50817
 C    1.33935   -0.17863    2.33695
 O    2.32585   -0.84810    2.01994
 H   -0.49780   -0.47890   -0.51280
 H    1.09285    0.12826   -0.32191
 H   -0.42062    0.85681    1.66613
 C   -1.00106   -1.18776    2.06256
 C   -0.94287   -2.60690    1.43721
 C    0.45308   -3.07532    1.15924
 O    1.09289   -3.85897    1.92095
 O    1.09320   -2.61481    0.13235
 H   -2.00986   -0.78654    1.90368
 H   -0.86612   -1.24870    3.15085
 H   -1.50530   -2.63735    0.49436
 H   -1.42357   -3.30460    2.13548
 O    1.37429    0.49483    3.46310
 H    0.58337    1.04560    3.63413
Sr    3.25392   -2.96644    1.32370
