19
Energy: -102187.0020218  eV PBE+vdW (tier 2 basis)
 N    0.93406   -0.77004    0.17242
 C    0.35605   -0.22488    1.47134
 C    1.43734   -0.37428    2.55752
 O    1.12270   -0.11137    3.75151
 H    1.96001   -0.62800    0.18234
 H    0.77909   -1.79101    0.10322
 H    0.17085    0.84514    1.30737
 C   -0.97379   -0.94481    1.82085
 C   -0.94147   -2.08259    2.81760
 C    0.41965   -3.11794    2.57607
 O    1.12304   -3.21006    3.59429
 O    0.41893   -3.49577    1.41602
 H   -1.46464   -1.25679    0.88882
 H   -1.63994   -0.19287    2.28277
 H   -1.78433   -2.77591    2.71182
 H   -0.79078   -1.76740    3.85364
 O    2.56314   -0.86231    2.21459
 H    0.52613   -0.31853   -0.65765
Sr    2.81698   -1.65660    4.53047
