19
Energy: -102187.0546567  eV PBE+vdW (tier 2 basis)
 N    0.06807    0.44337    0.22517
 C   -0.01290    0.14581    1.58146
 C    1.48618    0.02091    2.20285
 O    1.66594    0.25157    3.36707
 H    0.05132    1.40575   -0.10786
 H    0.31736   -0.26847   -0.46159
 H   -0.46480    0.97700    2.13648
 C   -0.72925   -1.20699    1.87703
 C   -0.84970   -1.62800    3.34102
 C   -1.70069   -0.76676    4.24793
 O   -2.02005   -1.23842    5.39511
 O   -2.09746    0.40451    3.89384
 H   -0.23030   -2.01210    1.31751
 H   -1.72937   -1.08716    1.43516
 H    0.12516   -1.73653    3.84298
 H   -1.27446   -2.64314    3.37368
 O    2.35299   -0.37545    1.28765
 H    3.24755   -0.48075    1.68394
Sr   -3.26241    0.62190    5.96301
