19
Energy: -102188.5775629  eV PBE+vdW (tier 2 basis)
 N    0.44658   -0.31082    0.01403
 C    0.42293   -0.27333    1.35879
 C    1.41234    0.50484    2.03409
 O    1.48724    0.65257    3.30473
 H    1.15563    0.19647   -0.50977
 H   -0.15912   -0.93313   -0.51159
 H   -3.88701    1.14420    2.55601
 C   -0.61361   -1.08301    2.08265
 C   -2.01932   -0.44861    2.18463
 C   -2.21232    0.55211    3.29846
 O   -1.41603    0.68635    4.24330
 O   -3.29084    1.30367    3.31518
 H   -0.24840   -1.34089    3.08413
 H   -0.72550   -2.04155    1.55439
 H   -2.76117   -1.24619    2.36954
 H   -2.31797    0.01358    1.23122
 O    2.30021    1.09473    1.22270
 H    2.98170    1.56761    1.73719
Sr    0.59664    0.95941    5.34333
