19
Energy: -102188.5776400  eV PBE+vdW (tier 2 basis)
 N    0.73120   -0.70318    0.47799
 C    0.66990   -0.71019    1.82205
 C    1.38168    0.29931    2.53958
 O    1.38506    0.42808    3.81450
 H    1.27515    0.00014   -0.01604
 H    0.33967   -1.45787   -0.07665
 H   -3.88703   -0.60930    2.93230
 C   -0.10626   -1.80138    2.50097
 C   -1.63646   -1.59719    2.57952
 C   -2.12865   -0.72373    3.70826
 O   -1.42305   -0.39682    4.67791
 O   -3.37609   -0.30849    3.71051
 H    0.29793   -1.97231    3.50606
 H    0.07018   -2.73697    1.94968
 H   -2.12268   -2.57802    2.72914
 H   -2.03674   -1.21429    1.62818
 O    2.08069    1.13923    1.76469
 H    2.58681    1.77363    2.30702
Sr    0.40571    0.41035    5.83532
