19
Energy: -102187.0781106  eV PBE+vdW (tier 2 basis)
 N   -0.22642    0.55705    0.10902
 C   -0.11724    0.10109    1.41694
 C    1.45618   -0.28005    1.74588
 O    1.70942   -1.18356    2.48994
 H   -0.49955   -0.06224   -0.65156
 H    0.10165    1.48403   -0.15886
 H   -0.20597    0.96230    2.11003
 C   -1.05434   -1.03393    1.83409
 C   -1.00039   -2.31554    0.99835
 C   -1.84785   -3.44412    1.56352
 O   -1.98196   -4.51388    0.87226
 O   -2.40342   -3.33435    2.71306
 H   -2.07091   -0.61443    1.82361
 H   -0.81783   -1.26752    2.88089
 H    0.02414   -2.71699    0.93219
 H   -1.33726   -2.17487   -0.04010
 O    2.26307    0.56222    1.12963
 H    3.19945    0.39103    1.37959
Sr   -3.29147   -5.50738    2.52088
