19
Energy: -102187.0366913  eV PBE+vdW (tier 2 basis)
 N   -0.34151   -0.15061    0.37966
 C    0.01504   -0.13105    1.73420
 C    1.60360   -0.01431    1.96307
 O    2.44017   -0.75000    1.45466
 H   -0.46594    0.72034   -0.13498
 H   -0.31077   -1.03400   -0.14670
 H   -0.33934    0.81238    2.18074
 C   -0.49782   -1.34121    2.56835
 C   -0.68268   -2.69124    1.84703
 C    0.58177   -3.09586    1.12280
 O    1.47198   -3.78749    1.69584
 O    0.80342   -2.62562   -0.06370
 H   -1.49076   -1.02618    2.93080
 H    0.13017   -1.46152    3.46122
 H   -1.49721   -2.63738    1.10935
 H   -0.94369   -3.44917    2.59440
 O    1.84471    0.96186    2.80210
 H    2.80282    1.04346    3.01158
Sr    3.16003   -2.87343    0.25158
