19
Energy: -102186.1798176  eV PBE+vdW (tier 2 basis)
 N    0.09367   -0.14365   -0.17148
 C   -0.05383   -0.16502    1.29005
 C    1.32410   -0.10067    2.00288
 O    1.46012   -0.09510    3.19233
 H    0.21922    0.81452   -0.51195
 H   -0.74511   -0.52376   -0.61794
 H   -0.52624    0.77947    1.62647
 C   -0.91051   -1.32899    1.82820
 C   -0.22065   -2.71814    2.01770
 C    0.67037   -3.02857    0.86810
 O    0.26730   -3.04963   -0.35045
 O    1.93615   -3.11760    1.00408
 H   -1.78650   -1.43085    1.17327
 H   -1.28536   -1.03555    2.81876
 H   -0.99128   -3.49791    2.11321
 H    0.37463   -2.72493    2.94253
 O    2.39203   -0.04781    1.12951
 H    3.19791    0.09269    1.67788
Sr    2.20011   -1.75109   -1.04101
