19
Energy: -102187.0678466  eV PBE+vdW (tier 2 basis)
 N   -0.21185   -1.87047    2.14655
 C   -0.43274   -0.64619    1.44662
 C    0.71632    0.36297    1.65464
 O    1.34180    0.53985    2.70719
 H   -0.98259   -2.53306    2.22281
 H    0.71136   -2.30140    2.15144
 H   -0.44143   -0.83779    0.35094
 C   -1.81986   -0.00097    1.77891
 C   -2.32678   -0.17744    3.23548
 C   -1.23425   -0.06375    4.25260
 O   -1.01230    0.98522    4.92596
 O   -0.40584   -1.04907    4.41677
 H   -2.56744   -0.43451    1.10266
 H   -1.76190    1.06359    1.51743
 H   -2.81073   -1.15537    3.36293
 H   -3.08163    0.59603    3.42817
 O    0.91942    1.05229    0.55710
 H    1.61021    1.74079    0.67627
Sr    1.33222    0.52028    5.16050
