19
Energy: -102187.0448556  eV PBE+vdW (tier 2 basis)
 N    1.19515   -0.97730    0.84959
 C    0.18113   -0.43197    1.62512
 C    0.72634    0.90795    2.40871
 O    0.30620    1.17177    3.49734
 H    1.55068   -0.50087    0.02298
 H    1.57924   -1.89433    1.10568
 H   -0.56744    0.08006    0.98029
 C   -0.45938   -1.39024    2.62441
 C   -1.14952   -2.62006    2.00931
 C   -0.29664   -3.84166    1.75581
 O   -0.86167   -4.98750    1.76016
 O    0.97637   -3.76041    1.53501
 H   -1.20803   -0.81136    3.18103
 H    0.28681   -1.69973    3.37052
 H   -1.64463   -2.37545    1.05371
 H   -1.96569   -2.94690    2.66753
 O    1.57843    1.56670    1.64447
 H    1.85351    2.40404    2.08194
Sr    1.08512   -6.16574    1.40540
