19
Energy: -102188.5776576  eV PBE+vdW (tier 2 basis)
 N   -0.15508    0.18941    0.21911
 C    0.54415   -0.33972    1.23967
 C    1.86508    0.14687    1.48251
 O    2.62637   -0.24368    2.43651
 H   -1.05090   -0.19294   -0.06671
 H    0.24772    0.91454   -0.36948
 H   -2.11918    0.17527    5.06483
 C   -0.08072   -1.44306    2.04374
 C   -1.07105   -1.00229    3.14576
 C   -0.45353   -0.57409    4.45510
 O   -1.19445    0.03715    5.35289
 O    0.72956   -0.80243    4.76026
 H    0.70406   -2.07317    2.47954
 H   -0.63261   -2.09643    1.35157
 H   -1.73406   -1.85071    3.39331
 H   -1.73859   -0.20457    2.78553
 O    2.28075    1.07597    0.61144
 H    3.20408    1.33525    0.79286
Sr    3.02839   -0.88237    4.55156
