19
Energy: -102186.7946039  eV PBE+vdW (tier 2 basis)
 N   -0.28684    0.04641    0.38847
 C    0.35638   -0.17733    1.59609
 C    1.92217   -0.17413    1.34980
 O    2.39233    0.28466    0.34313
 H   -1.21773   -0.31280    0.19393
 H    0.22737    0.47742   -0.38301
 H    0.31437    0.75238    2.27871
 C   -0.24935   -1.27689    2.47709
 C   -1.53578   -0.86128    3.20831
 C   -1.40985    0.34166    4.11046
 O   -2.18917    0.47549    5.10939
 O   -0.53282    1.26856    3.87443
 H    0.51221   -1.55863    3.21468
 H   -0.45161   -2.16749    1.86596
 H   -1.91734   -1.69148    3.81706
 H   -2.35466   -0.63340    2.50291
 O    2.56275   -0.68169    2.40008
 H    3.52793   -0.67299    2.21885
Sr   -1.31982    2.50396    5.81495
