19
Energy: -102186.8096306  eV PBE+vdW (tier 2 basis)
 N   -0.36040    0.61379    0.12009
 C   -0.12992    0.14267    1.41991
 C    1.41937    0.04805    1.63181
 O    2.18192    0.59940    0.87584
 H    0.41779    1.01197   -0.41329
 H   -1.30368    0.70436   -0.25188
 H   -0.34214    0.96317    2.16326
 C   -1.01992   -1.03582    1.85995
 C   -0.70749   -2.33766    1.09937
 C   -1.53845   -3.52085    1.54991
 O   -1.46392   -4.60518    0.87216
 O   -2.28780   -3.46104    2.58625
 H   -2.07331   -0.75380    1.71439
 H   -0.88799   -1.17001    2.93991
 H    0.34422   -2.63914    1.23232
 H   -0.84835   -2.22803    0.01364
 O    1.72037   -0.63894    2.72913
 H    2.69210   -0.61289    2.87101
Sr   -2.94009   -5.71707    2.31934
