19
Energy: -102186.8669843  eV PBE+vdW (tier 2 basis)
 N    0.16858   -0.06040   -0.03110
 C    0.10570   -0.04851    1.38867
 C    1.55593   -0.20168    2.00971
 O    1.72627   -0.34681    3.21836
 H   -0.05249   -0.91455   -0.54100
 H   -0.02333    0.79685   -0.54783
 H   -0.18134    0.96614    1.71711
 C   -0.89270   -1.06058    2.02302
 C   -0.56604   -2.56733    1.98620
 C    0.51915   -2.94931    2.94939
 O    0.32773   -2.94515    4.21280
 O    1.70956   -3.18930    2.55376
 H   -1.84969   -0.89851    1.51072
 H   -1.03282   -0.74094    3.06569
 H   -0.29394   -2.91881    0.97813
 H   -1.47845   -3.11719    2.27065
 O    2.57107   -0.14884    1.19119
 H    2.24328   -0.03820    0.26492
Sr    2.57384   -2.20149    4.65083
