19
Energy: -102187.0137510  eV PBE+vdW (tier 2 basis)
 N    1.10077   -1.46662    1.34279
 C    0.33002   -0.26994    1.47128
 C    1.13081    0.84286    2.17423
 O    2.06242    0.65303    2.96828
 H    0.61032   -2.32480    1.09472
 H    2.06721   -1.42245    1.02168
 H    0.09110    0.13061    0.46087
 C   -1.03346   -0.56571    2.15130
 C   -1.01261   -0.78524    3.68538
 C    0.26476   -1.27404    4.29577
 O    0.61931   -0.89393    5.45441
 O    1.11334   -2.02022    3.66208
 H   -1.45080   -1.44195    1.63588
 H   -1.71595    0.26344    1.93163
 H   -1.79794   -1.51265    3.95248
 H   -1.27486    0.13890    4.21689
 O    0.67485    2.02570    1.83995
 H    1.15487    2.74983    2.29860
Sr    2.90883   -0.76879    4.81780
