19
Energy: -102186.8041213  eV PBE+vdW (tier 2 basis)
 N   -0.75714    0.45159    0.20229
 C   -0.45507    0.02730    1.51523
 C    1.06101    0.46887    1.80472
 O    2.01101   -0.24665    1.51545
 H   -0.43877   -0.07824   -0.60784
 H   -1.32708    1.27384    0.01578
 H   -1.08234    0.58924    2.22476
 C   -0.64992   -1.50282    1.70737
 C   -0.43482   -2.03318    3.13689
 C    1.01429   -2.06740    3.52072
 O    1.54035   -1.11971    4.19991
 O    1.79569   -2.97510    3.07568
 H   -0.01226   -2.04365    0.99366
 H   -1.69338   -1.69730    1.42523
 H   -0.82225   -3.06583    3.15206
 H   -1.00380   -1.46170    3.88526
 O    1.25956    1.65945    2.32425
 H    0.44223    2.14938    2.54494
Sr    3.65170   -1.47110    3.00965
