19
Energy: -102187.0447471  eV PBE+vdW (tier 2 basis)
 N    0.33676    0.46396    0.52858
 C    0.13367   -0.11049    1.77587
 C    1.53211   -0.77558    2.33042
 O    1.49189   -1.74777    3.02658
 H   -0.11636    0.04578   -0.29185
 H    0.90882    1.29787    0.41080
 H    0.03765    0.67853    2.55458
 C   -0.98917   -1.14138    1.84098
 C   -2.39177   -0.60992    1.50007
 C   -2.80296   -0.61083    0.04589
 O   -4.04818   -0.67867   -0.23197
 O   -1.93863   -0.54394   -0.91551
 H   -1.00208   -1.52849    2.86839
 H   -0.73779   -2.00287    1.20532
 H   -2.53983    0.41950    1.86951
 H   -3.14617   -1.20470    2.03236
 O    2.56750   -0.05820    1.93304
 H    3.39869   -0.41335    2.32187
Sr   -3.73561   -0.71841   -2.51329
