19
Energy: -102187.1346685  eV PBE+vdW (tier 2 basis)
 N    0.26448    0.17219   -0.19230
 C   -0.02452   -0.14701    1.13246
 C    1.16076    0.39375    2.11064
 O    0.88118    0.80100    3.20170
 H   -0.12126    1.01015   -0.62400
 H    1.05492   -0.25636   -0.67257
 H   -0.91704    0.39452    1.46731
 C   -0.11953   -1.66947    1.45086
 C   -1.40639   -2.25766    0.85758
 C   -1.67554   -3.69269    1.27563
 O   -0.99794   -4.25822    2.20285
 O   -2.62410   -4.31784    0.68520
 H   -0.11245   -1.78881    2.54152
 H    0.77029   -2.18294    1.06071
 H   -1.41224   -2.22195   -0.24133
 H   -2.29312   -1.68437    1.17565
 O    2.34469    0.28097    1.53003
 H    3.05172    0.59212    2.13884
Sr   -2.30854   -6.21260    2.01514
