19
Energy: -102187.0527884  eV PBE+vdW (tier 2 basis)
 N    0.34528   -0.24191   -0.08421
 C   -0.30885   -0.20585    1.14392
 C    0.67323    0.43591    2.27712
 O    0.25817    0.66685    3.38009
 H    0.42699    0.58961   -0.66634
 H    0.92986   -1.03388   -0.35049
 H   -1.13629    0.52441    1.11973
 C   -0.78529   -1.59648    1.62288
 C   -1.60880   -1.65210    2.91091
 C   -2.96207   -0.98039    2.89431
 O   -3.82050   -1.32532    3.77950
 O   -3.25461   -0.07065    2.03069
 H    0.08362   -2.26236    1.74185
 H   -1.37450   -2.00538    0.78916
 H   -1.07304   -1.22271    3.77452
 H   -1.76614   -2.70488    3.18576
 O    1.89197    0.63239    1.80166
 H    2.47141    1.01295    2.50085
Sr   -5.42899    0.13288    3.00332
