19
Energy: -102187.0469568  eV PBE+vdW (tier 2 basis)
 N   -0.42659    0.79268    1.25120
 C    0.60857   -0.01718    1.70452
 C    1.92371    0.13544    0.73307
 O    2.77099   -0.71102    0.74245
 H   -0.38950    1.80671    1.33946
 H   -1.14319    0.42337    0.62698
 H    1.04300    0.39410    2.64042
 C    0.25396   -1.49685    1.85514
 C   -0.66208   -1.82169    3.04416
 C   -0.02622   -1.71761    4.41311
 O    0.99206   -0.95537    4.62238
 O   -0.52556   -2.39844    5.37482
 H    1.19690   -2.05390    1.93281
 H   -0.22839   -1.85513    0.93224
 H   -1.04992   -2.84385    2.94276
 H   -1.55968   -1.18139    3.06510
 O    1.87862    1.26922    0.05604
 H    2.69010    1.37185   -0.49154
Sr    1.05903   -1.69054    6.89515
