20
Energy: -237561.419669 eV PBE+vdW (tier 2 basis)
C    0.275327  0.041389  0.097928
C    -0.060798  0.394211  1.511059
O    0.884067  0.374373  2.415065
H    1.043657  0.728263  -0.283465
H    -0.596757  0.094538  -0.561258
H    0.682432  -0.978496  0.056771
N    -1.287509  0.713922  1.812030
C    -1.888643  1.093455  3.077529
C    -3.376795  1.330437  2.683031
O    -3.680027  1.159347  1.495893
H    -2.070252  0.738132  1.098939
H    -1.798351  0.292523  3.825534
H    -1.434542  2.008914  3.483570
N    -4.232599  1.701624  3.640647
C    -3.936489  1.916508  5.054140
H    -5.188745  1.840050  3.320726
H    -3.203865  2.722348  5.198539
H    -3.581023  0.997452  5.539996
H    -4.860904  2.217862  5.554085
Ba    2.888816  0.167150  3.499238
