20
Energy: -237562.724584 eV PBE+vdW (tier 2 basis)
C    0.166734  0.263100  0.627638
C    0.400741  -0.956308  1.457173
O    1.574095  -1.329286  1.756437
H    0.618368  0.101296  -0.362031
H    -0.892816  0.506111  0.496909
H    0.682852  1.120784  1.077669
N    -0.665178  -1.662567  1.868887
C    -0.602611  -2.961747  2.538917
C    -0.242863  -2.867045  4.026083
O    0.973637  -2.715022  4.361364
H    -1.581330  -1.329351  1.581854
H    -1.564983  -3.460238  2.387653
H    0.166687  -3.581317  2.058065
N    -1.191035  -2.961686  4.944185
C    -2.635750  -3.151045  4.752800
H    -0.855489  -2.921263  5.907221
H    -3.122860  -3.014575  5.722151
H    -2.857458  -4.164394  4.395195
H    -3.045509  -2.405810  4.062304
Ba    3.154318  -2.077929  3.441188
