20
Energy: -237561.405552 eV PBE+vdW (tier 2 basis)
C    -0.266823  1.925033  0.570192
C    -0.252930  1.318403  1.945965
O    0.895154  1.361714  2.611329
H    -0.540376  1.171986  -0.182964
H    0.709661  2.338710  0.306033
H    -1.013700  2.729515  0.507569
N    -1.275616  0.765926  2.509464
C    -2.565197  0.675840  1.854522
C    -3.440468  -0.040640  2.876904
O    -2.834173  -0.351369  3.975185
H    -1.868943  0.030809  3.761251
H    -3.009315  1.658284  1.618914
H    -2.544622  0.091341  0.918650
N    -4.702911  -0.341211  2.711120
C    -5.536130  -0.064980  1.539517
H    -5.147881  -0.823443  3.494014
H    -4.960065  0.455361  0.770397
H    -6.385288  0.561937  1.835698
H    -5.911700  -1.009140  1.127915
Ba    2.829323  1.435919  3.729324
