20
Energy: -237562.724257 eV PBE+vdW (tier 2 basis)
C    0.136592  2.794705  0.905967
C    -0.619013  2.181619  2.038667
O    -0.088967  2.045188  3.181423
H    -0.417899  2.798702  -0.038102
H    1.087073  2.264001  0.766062
H    0.385825  3.831329  1.175756
N    -1.885503  1.789088  1.823185
C    -2.808489  1.327537  2.860442
C    -2.560181  -0.119885  3.300490
O    -1.625472  -0.365324  4.125978
H    -2.266833  1.942049  0.893703
H    -2.699095  1.960740  3.751486
H    -3.826856  1.465827  2.484485
N    -3.325531  -1.094128  2.835662
C    -4.451962  -1.004939  1.896131
H    -3.108689  -2.019247  3.208209
H    -5.319413  -0.522680  2.363949
H    -4.735090  -2.022868  1.614793
H    -4.166042  -0.470700  0.983505
Ba    0.385546  0.638985  5.103208
