20
Energy: -237561.403536 eV PBE+vdW (tier 2 basis)
C    0.084153  0.279126  0.224105
C    -0.058030  0.435542  1.710186
O    1.084747  0.555352  2.380401
H    0.695396  -0.606498  0.003037
H    0.611796  1.149583  -0.189324
H    -0.871510  0.176638  -0.297461
N    -1.164542  0.463322  2.372692
C    -2.472443  0.343398  1.757467
C    -3.433088  0.437326  2.938803
O    -2.856818  0.586963  4.085597
H    -1.841055  0.591849  3.772932
H    -2.698567  1.151651  1.042319
H    -2.628835  -0.617567  1.239758
N    -4.737463  0.377718  2.855902
C    -5.545022  0.211838  1.646090
H    -5.239485  0.456559  3.741987
H    -4.906072  0.138006  0.762654
H    -6.213711  1.073169  1.532836
H    -6.145236  -0.701657  1.730578
Ba    3.022785  0.752682  3.472443
