20
Energy: -237562.812881 eV PBE+vdW (tier 2 basis)
C    -0.831752  0.504296  -0.019895
C    -0.503511  -0.344115  1.164233
O    -0.042672  -1.516591  1.021835
H    0.097176  0.692946  -0.577925
H    -1.286218  1.464971  0.243417
H    -1.503100  -0.042769  -0.693865
N    -0.692781  0.169603  2.389996
C    -0.261031  -0.451225  3.642416
C    -1.193469  -1.563845  4.138735
O    -1.192080  -2.691423  3.557173
H    -1.056721  1.117123  2.443909
H    0.737049  -0.890454  3.502696
H    -0.161606  0.345825  4.388123
N    -1.957623  -1.301670  5.187051
C    -2.888033  -2.235771  5.822103
H    -1.887694  -0.374781  5.601275
H    -2.643718  -2.322798  6.887286
H    -2.801554  -3.212677  5.342275
H    -3.914145  -1.861805  5.719552
Ba    -0.245163  -3.857209  1.613850
