20
Energy: -237561.638404 eV PBE+vdW (tier 2 basis)
C    0.098378  -0.385721  0.074359
C    -0.497237  0.550805  1.072722
O    -0.534116  1.834121  0.827051
H    -0.641957  -1.136554  -0.237700
H    0.941049  -0.934940  0.519045
H    0.451713  0.153428  -0.807757
N    -0.989346  0.117338  2.201895
C    -1.076166  -1.236177  2.724013
C    -1.762692  -1.028232  4.105179
O    -2.057876  0.133213  4.426407
H    -1.418440  0.741823  2.937093
H    -1.683954  -1.881733  2.073379
H    -0.080591  -1.688447  2.841178
N    -1.980073  -2.121544  4.836874
C    -2.612754  -2.106964  6.156170
H    -1.690819  -3.020535  4.462449
H    -3.525592  -2.713937  6.141266
H    -2.865944  -1.074423  6.408802
H    -1.923135  -2.508490  6.907984
Ba    -0.613326  4.080576  0.429805
