20
Energy: -237561.639329 eV PBE+vdW (tier 2 basis)
C    -1.254850  -0.257591  -0.405031
C    -0.773576  0.480947  0.796515
O    -0.003465  1.526137  0.626454
H    -1.818956  0.427549  -1.053101
H    -1.890944  -1.111190  -0.156716
H    -0.391740  -0.615733  -0.983361
N    -1.083743  0.134975  2.015587
C    -1.901604  -0.954742  2.527518
C    -1.817944  -0.748580  4.068304
O    -1.141527  0.206575  4.481333
H    -0.741795  0.657715  2.868435
H    -2.940678  -0.878726  2.177709
H    -1.495058  -1.934540  2.240346
N    -2.483547  -1.620521  4.825836
C    -2.512828  -1.575048  6.288110
H    -3.003662  -2.362764  4.366825
H    -1.906767  -0.729274  6.621861
H    -2.102368  -2.504229  6.700490
H    -3.543535  -1.447201  6.639225
Ba    1.340584  3.349242  0.364661
