20
Energy: -237562.813107 eV PBE+vdW (tier 2 basis)
C    -0.749378  2.009607  1.802824
C    -0.670930  0.828333  0.892801
O    -0.023229  0.882528  -0.195723
H    -1.267482  2.821465  1.271480
H    0.261632  2.371162  2.029551
H    -1.279829  1.805716  2.738679
N    -1.317573  -0.293871  1.245977
C    -1.490385  -1.472613  0.396761
C    -0.259602  -2.386980  0.344124
O    0.758656  -2.032844  -0.324738
H    -1.827328  -0.277477  2.125193
H    -2.371901  -2.013568  0.759440
H    -1.709101  -1.148755  -0.630797
N    -0.322757  -3.538909  0.992672
C    0.731470  -4.552834  1.038905
H    -1.181975  -3.750555  1.495186
H    1.548782  -4.253163  0.379891
H    0.322842  -5.515077  0.709009
H    1.101962  -4.654496  2.066414
Ba    1.663125  -0.140667  -1.602650
