30
Energy: -38163.6464467 eV PBE+vdW (tier 2 basis)
C    0.521734  0.253308  0.498264
C    -0.049435  0.451500  1.859299
O    0.496873  1.271960  2.681678
H    -0.038002  -0.474565  -0.097890
H    1.564140  -0.082585  0.590988
H    0.540709  1.214234  -0.034085
N    -1.130595  -0.223220  2.236340
C    -1.745046  -0.096773  3.564927
C    -2.742708  -1.270799  3.845101
O    -3.876972  -1.017746  4.227336
H    -1.570314  -0.845168  1.559379
H    -0.927786  -0.181093  4.300540
C    -2.477827  1.257428  3.746741
C    -2.352321  1.810272  5.127032
N    -1.196137  2.464265  5.578963
C    -3.261234  1.771947  6.151671
C    -1.436846  2.813073  6.853125
N    -2.665115  2.408666  7.216632
H    -3.540274  1.087664  3.530951
H    -2.115848  1.984992  3.004218
H    -4.255473  1.344795  6.202093
H    -0.765511  3.349148  7.515281
H    -3.087061  2.559205  8.130055
N    -2.256880  -2.514533  3.628762
C    -3.061640  -3.713846  3.872766
H    -1.264601  -2.641712  3.458252
H    -2.695795  -4.525709  3.236872
H    -4.105030  -3.496905  3.625895
H    -3.005911  -4.021775  4.925219
Ca    0.656907  2.678971  4.221594
