30
Energy: -38164.2503025 eV PBE+vdW (tier 2 basis)
C    0.678854  0.750225  0.448319
C    0.119187  0.586800  1.818329
O    0.633119  1.174672  2.814691
H    1.720923  0.401611  0.443509
H    0.702373  1.820027  0.199813
H    0.113434  0.210741  -0.318362
N    -0.970859  -0.207511  1.993073
C    -1.505951  -0.325800  3.338886
C    -0.791345  -1.422120  4.155594
O    0.137970  -1.067475  4.940646
H    -1.385316  -0.676789  1.192684
H    -1.157090  0.618016  3.750698
C    -2.998765  -0.143592  3.615511
C    -3.104542  0.534153  4.969620
N    -2.037034  1.224156  5.570574
C    -4.216655  0.661690  5.762961
C    -2.536196  1.752286  6.692848
N    -3.836617  1.432980  6.834248
H    -3.579051  -1.075497  3.602785
H    -3.422334  0.509481  2.836890
H    -5.227731  0.290288  5.648279
H    -1.997581  2.357400  7.414377
H    -4.437124  1.720164  7.603098
N    -1.138605  -2.689187  4.006039
C    -0.481169  -3.800169  4.705917
H    -1.895385  -2.913147  3.366405
H    -1.006704  -4.725030  4.456280
H    -0.520159  -3.637468  5.788786
H    0.566825  -3.879050  4.393362
Ca    0.434529  1.112147  5.056141
