30
Energy: -38163.5668486 eV PBE+vdW (tier 2 basis)
C    -0.120324  -0.999068  2.473328
C    0.069856  0.376807  1.929462
O    1.227079  0.914745  1.921258
H    0.507744  -1.096011  3.368570
H    0.238555  -1.752133  1.754921
H    -1.160263  -1.220862  2.730223
N    -0.976078  1.074405  1.434988
C    -1.937183  0.482426  0.503711
C    -1.195229  0.323356  -0.871519
O    0.082625  0.534950  -0.919427
H    -0.760956  2.056095  1.249532
H    -2.178230  -0.530993  0.856611
C    -3.239467  1.320639  0.459424
C    -4.445179  0.574835  -0.026179
N    -4.415740  -0.181138  -1.182998
C    -5.712573  0.535592  0.506084
C    -5.637043  -0.669691  -1.353007
N    -6.445862  -0.251651  -0.351362
H    -3.071618  2.221710  -0.154397
H    -3.434412  1.666020  1.482806
H    -6.147634  0.993348  1.385793
H    -5.964276  -1.311999  -2.162477
H    -7.430219  -0.481093  -0.250843
N    -1.890867  -0.030623  -1.910448
C    -1.321915  -0.231244  -3.240702
H    -2.978151  -0.182888  -1.759229
H    -2.139469  -0.456846  -3.930844
H    -0.614479  -1.070471  -3.240255
H    -0.804070  0.672510  -3.584875
Ca    1.951217  1.072017  -0.109101
