30
Energy: -38163.6029144 eV PBE+vdW (tier 2 basis)
C    0.884690  -0.171023  0.698468
C    -0.125091  0.511406  1.569086
O    -0.174177  1.833236  1.481461
H    0.692956  0.071251  -0.355937
H    0.861098  -1.254833  0.838973
H    1.892872  0.199759  0.928642
N    -0.890165  -0.203450  2.344368
C    -1.894518  0.508582  3.123062
C    -1.239706  1.385183  4.204105
O    -1.280899  2.657995  4.075762
H    -5.682805  -0.997711  3.254022
H    -2.446216  1.232371  2.493877
C    -2.938534  -0.482811  3.698067
C    -3.643136  -1.268562  2.638397
N    -5.025508  -1.412877  2.598378
C    -3.169515  -2.017583  1.588578
C    -5.389842  -2.207401  1.583561
N    -4.265955  -2.576074  0.962832
H    -3.677482  0.071035  4.295320
H    -2.451990  -1.193542  4.377840
H    -2.151269  -2.183576  1.265292
H    -6.400304  -2.495271  1.319427
H    -4.234380  -3.189929  0.152148
N    -0.580566  0.868431  5.233886
C    -0.244975  -0.529053  5.519014
H    -0.206693  1.566487  5.876506
H    -0.228689  -1.105670  4.589564
H    -0.946726  -0.965283  6.241581
H    0.758587  -0.554570  5.957005
Ca    -0.513061  3.652484  2.316716
