30
Energy: -38163.5120915 eV PBE+vdW (tier 2 basis)
C    -0.984512  -0.526512  -0.082299
C    -1.433869  -0.311594  1.336164
O    -2.045573  -1.139022  1.996457
H    -0.454036  0.329156  -0.515604
H    -1.862601  -0.754901  -0.699817
H    -0.337611  -1.412334  -0.116638
N    -1.133943  0.934730  1.896085
C    -1.435067  1.156706  3.291632
C    -2.306807  2.388117  3.490229
O    -1.888292  3.384229  4.195666
H    -0.553711  1.590365  1.383864
H    -2.059001  0.274806  3.547194
C    -0.195588  1.072330  4.223174
C    1.025089  1.861628  3.858175
N    1.248537  3.195754  4.226732
C    2.133301  1.414657  3.180840
C    2.467744  3.517939  3.773864
N    3.017257  2.468481  3.139830
H    0.090369  0.012080  4.227544
H    -0.503138  1.279812  5.261287
H    2.371087  0.444573  2.761452
H    2.969197  4.472784  3.890474
H    3.944774  2.452684  2.722191
N    -3.514106  2.450495  2.962596
C    -4.226420  1.438535  2.176178
H    -4.009110  3.326737  3.129806
H    -5.294054  1.526475  2.400202
H    -3.888487  0.429676  2.432091
H    -4.069135  1.612682  1.104133
Ca    -0.423713  4.409110  5.235728
