30
Energy: -38163.5804624 eV PBE+vdW (tier 2 basis)
C    -1.555398  -0.648969  -0.194499
C    -1.869706  -0.416234  1.255596
O    -2.546005  -1.159783  1.945766
H    -0.901579  -1.528274  -0.275224
H    -1.071946  0.203642  -0.685248
H    -2.483189  -0.897159  -0.723543
N    -1.347726  0.766998  1.823358
C    -1.457547  0.915889  3.255122
C    -2.148174  2.212378  3.649973
O    -1.945781  2.730931  4.808927
H    -0.626499  1.275279  1.318693
H    -2.181106  0.108202  3.517536
C    -0.166242  0.585297  4.048655
C    1.002870  1.512211  3.918765
N    1.182767  2.635339  4.738347
C    2.082993  1.418028  3.075918
C    2.348637  3.186787  4.377870
N    2.905953  2.478703  3.380874
H    0.137858  -0.416381  3.717858
H    -0.427300  0.443803  5.111618
H    2.346303  0.680915  2.326994
H    2.807215  4.069510  4.810418
H    3.802294  2.681904  2.944614
N    -3.004383  2.733556  2.797672
C    -3.876701  3.882256  3.022283
H    -3.063764  2.243022  1.903248
H    -4.908450  3.600235  2.782609
H    -3.577323  4.715881  2.374963
H    -3.820909  4.186776  4.069786
Ca    -0.499488  3.198632  6.218598
