30
Energy: -38164.2398545 eV PBE+vdW (tier 2 basis)
C    -0.423878  -1.336658  -0.565180
C    -1.241456  -1.564486  0.656274
O    -0.782780  -2.155397  1.671569
H    -0.897675  -0.674309  -1.296021
H    -0.292411  -2.320791  -1.045413
H    0.578663  -0.979805  -0.303382
N    -2.543483  -1.136564  0.711539
C    -3.010729  0.200767  0.353114
C    -1.948926  1.248487  0.763254
O    -1.228894  1.044141  1.784309
H    -3.091081  -1.588912  1.444559
H    -3.201526  0.280126  -0.727298
C    -4.348644  0.488869  1.098803
C    -4.561436  -0.112885  2.468283
N    -3.589843  -0.396995  3.440384
C    -5.799842  -0.400416  2.994204
C    -4.262158  -0.830508  4.514673
N    -5.585889  -0.836078  4.276883
H    -5.169983  0.135977  0.461518
H    -4.464450  1.581835  1.156223
H    -6.794183  -0.316798  2.571723
H    -3.831814  -1.148345  5.458890
H    -6.305750  -1.120602  4.937022
N    -1.862538  2.345770  0.030266
C    -0.985184  3.486160  0.304936
H    -2.462421  2.412490  -0.789592
H    -0.355461  3.679828  -0.571086
H    -0.356366  3.254770  1.167232
H    -1.589974  4.376428  0.515881
Ca    -1.205889  -0.597098  3.243432
