30
Energy: -38163.4497367 eV PBE+vdW (tier 2 basis)
C    -0.878898  1.339264  1.660330
C    -1.005085  0.557204  2.925526
O    -0.199280  0.771793  3.892022
H    -0.224695  2.198360  1.835759
H    -1.852834  1.683480  1.296064
H    -0.429483  0.720853  0.866981
N    -1.954626  -0.394743  3.081641
C    -2.253247  -1.443019  2.091676
C    -0.925440  -2.231558  1.824851
O    0.123121  -1.954953  2.534488
H    -2.025659  -0.715682  4.047228
H    -2.923407  -2.139848  2.616682
C    -3.016617  -0.954932  0.828698
C    -3.870569  -2.013587  0.198810
N    -3.353490  -3.252098  -0.131425
C    -5.189569  -1.957195  -0.185586
C    -4.334850  -3.936222  -0.703874
N    -5.456765  -3.180347  -0.756039
H    -2.310247  -0.555739  0.085863
H    -3.663841  -0.125787  1.140424
H    -5.936454  -1.176166  -0.116041
H    -4.275045  -4.950723  -1.080900
H    -6.346898  -3.469080  -1.151105
N    -0.934806  -3.162989  0.917513
C    0.215972  -4.006338  0.604761
H    -1.892685  -3.347610  0.395382
H    1.097059  -3.395749  0.373695
H    -0.034708  -4.615279  -0.268200
H    0.452437  -4.671234  1.445884
Ca    1.198808  -0.872865  3.987212
