30
Energy: -38164.1839021 eV PBE+vdW (tier 2 basis)
C    0.015600  0.648245  -0.012146
C    -0.057611  0.538691  1.473284
O    0.943605  0.905217  2.192793
H    0.902798  0.118876  -0.382987
H    0.142563  1.707804  -0.277649
H    -0.880059  0.261251  -0.507338
N    -1.167322  0.075545  2.028364
C    -1.447343  0.027108  3.472295
C    -0.712709  -1.165728  4.113758
O    0.521130  -1.028700  4.421660
H    -1.960139  -0.319888  1.450205
H    -1.002221  0.920570  3.936820
C    -2.974637  0.088684  3.693145
C    -3.761005  -0.934236  2.925184
N    -3.499987  -1.147545  1.579057
C    -4.842079  -1.699247  3.311580
C    -4.406202  -2.016628  1.160573
N    -5.233776  -2.371172  2.176860
H    -3.294093  1.097504  3.388324
H    -3.185624  0.015648  4.768108
H    -5.375548  -1.787774  4.250604
H    -4.500127  -2.407778  0.153342
H    -6.025499  -3.003752  2.104902
N    -1.367877  -2.288443  4.320273
C    -0.813419  -3.504970  4.912357
H    -2.346952  -2.304982  4.013263
H    0.131597  -3.272958  5.408637
H    -0.645210  -4.259404  4.133031
H    -1.525078  -3.901366  5.644516
Ca    2.094224  0.290428  3.826184
