30
Energy: -38163.5252416 eV PBE+vdW (tier 2 basis)
C    -0.141293  0.902371  0.081343
C    -0.212252  0.406982  1.483814
O    0.859718  0.106568  2.123879
H    0.363254  0.149788  -0.540856
H    0.473607  1.812176  0.045526
H    -1.125966  1.118948  -0.345307
N    -1.387928  0.268878  2.085711
C    -1.541695  -0.229760  3.460024
C    -3.041337  -0.603983  3.712333
O    -3.717904  0.094996  4.455084
H    -2.224718  0.542245  1.572872
H    -0.929072  -1.141628  3.538938
C    -1.090339  0.818990  4.507323
C    -0.431579  0.214075  5.700739
N    0.890742  -0.255838  5.678032
C    -0.948027  0.001630  6.952348
C    1.141748  -0.729248  6.908759
N    0.056404  -0.587075  7.687382
H    -1.994491  1.356989  4.825206
H    -0.432225  1.566010  4.037566
H    -1.925377  0.220933  7.365389
H    2.072989  -1.161930  7.258304
H    -0.005504  -0.860761  8.665341
N    -3.519521  -1.686575  3.052917
C    -2.784629  -2.693877  2.293045
H    -4.499667  -1.875648  3.253257
H    -3.511383  -3.364689  1.825497
H    -2.132764  -3.304524  2.935096
H    -2.190163  -2.249634  1.484223
Ca    2.155463  -0.120873  3.748394
