30
Energy: -38163.7588182 eV PBE+vdW (tier 2 basis)
C    -0.870546  0.570667  -0.717888
C    -0.782492  1.066036  0.692087
O    0.131978  1.924756  0.982127
H    0.111239  0.206236  -1.045663
H    -1.130192  1.418095  -1.368602
H    -1.617217  -0.219089  -0.844334
N    -1.657265  0.585583  1.555688
C    -2.016272  0.835141  2.961077
C    -1.148474  1.716637  3.842028
O    0.128028  1.709072  3.808938
H    -2.310365  -0.193613  1.209168
H    -3.018053  1.288668  2.926381
C    -2.162002  -0.560289  3.658780
C    -3.210629  -1.404369  3.000443
N    -3.323606  -1.446305  1.620464
C    -4.147234  -2.240791  3.563163
C    -4.308037  -2.291228  1.352049
N    -4.823017  -2.794171  2.501065
H    -2.413218  -0.417497  4.717879
H    -1.175445  -1.049484  3.627917
H    -4.378144  -2.494113  4.590459
H    -4.670650  -2.560183  0.366431
H    -5.577891  -3.470505  2.566102
N    -1.760657  2.447868  4.767102
C    -3.197572  2.603991  5.023945
H    -1.128214  2.913101  5.417407
H    -3.726194  2.932728  4.121512
H    -3.317892  3.375400  5.789432
H    -3.641440  1.673066  5.397790
Ca    1.603472  2.275593  2.391053
