30
Energy: -38163.7507777 eV PBE+vdW (tier 2 basis)
C    0.075165  1.236121  0.948385
C    -0.198519  0.096272  1.877034
O    0.694724  -0.818094  2.004729
H    0.939285  1.801917  1.324591
H    -0.777070  1.914171  0.844884
H    0.355312  0.841103  -0.036782
N    -1.348388  0.108146  2.530893
C    -2.069275  -0.845369  3.398193
C    -1.297881  -1.803334  4.292823
O    -0.456039  -2.652941  3.844362
H    -2.100548  0.754991  2.153874
H    -2.647814  -0.188901  4.060084
C    -3.106854  -1.623707  2.535662
C    -4.120128  -0.674190  1.963917
N    -3.785662  0.640356  1.678557
C    -5.441264  -0.891517  1.645178
C    -4.881530  1.205023  1.193192
N    -5.898286  0.308600  1.154076
H    -3.608018  -2.381283  3.154814
H    -2.562157  -2.166811  1.746209
H    -6.076834  -1.765231  1.719427
H    -4.980575  2.234904  0.869269
H    -6.839911  0.493229  0.821351
N    -1.602611  -1.830337  5.583544
C    -2.537315  -0.986826  6.341140
H    -1.141075  -2.576450  6.104088
H    -3.577502  -1.201665  6.066881
H    -2.318949  0.076551  6.192160
H    -2.405727  -1.216106  7.402203
Ca    1.251448  -2.715624  2.592262
