30
Energy: -38164.8569528 eV PBE+vdW (tier 2 basis)
C    -0.238106  -1.262793  1.174733
C    -0.638829  0.112704  1.603362
O    0.231123  0.961669  1.935461
H    0.345646  -1.731387  1.977980
H    0.427562  -1.182175  0.304372
H    -1.084096  -1.909336  0.920215
N    -1.952490  0.414231  1.602773
C    -2.578675  1.691582  1.977789
C    -1.863906  2.894941  1.330230
O    -1.028323  3.588653  1.981948
H    -2.586489  -0.333312  1.335623
H    -3.572557  1.652963  1.513296
C    -2.848379  1.893031  3.502475
C    -1.909834  1.358618  4.542523
N    -0.602584  1.795365  4.768152
C    -2.249761  0.473257  5.538614
C    -0.186018  1.177292  5.876163
N    -1.154873  0.377569  6.362503
H    -3.821269  1.428268  3.706822
H    -2.999850  2.971682  3.661854
H    -3.170986  -0.059563  5.741649
H    0.784830  1.286210  6.347977
H    -1.091652  -0.181659  7.209187
N    -2.177641  3.222749  0.083243
C    -3.139565  2.578803  -0.817314
H    -1.698028  4.052130  -0.266926
H    -4.167459  2.691282  -0.448347
H    -2.902088  1.518300  -0.959771
H    -3.073939  3.074267  -1.789749
Ca    0.666238  2.776657  3.063161
