30
Energy: -38163.8467341 eV PBE+vdW (tier 2 basis)
C    -0.626316  1.504089  0.973631
C    -0.121599  0.457256  1.912357
O    1.116059  0.479758  2.257375
H    0.010839  1.526219  0.079852
H    -0.537822  2.488419  1.455081
H    -1.668063  1.344139  0.680603
N    -0.987765  -0.439200  2.358113
C    -0.825324  -1.694449  3.121944
C    0.151402  -1.712677  4.295771
O    1.415776  -1.639717  4.151382
H    -1.869090  -0.569851  1.788680
H    -1.826726  -1.855846  3.547505
C    -0.576776  -2.863625  2.133140
C    -1.776839  -3.039201  1.245506
N    -2.607327  -1.969490  0.948184
C    -2.251484  -4.174637  0.629284
C    -3.562042  -2.448777  0.164541
N    -3.376178  -3.774530  -0.052539
H    -0.381933  -3.788417  2.694214
H    0.333410  -2.645162  1.549544
H    -1.902764  -5.199841  0.617414
H    -4.388192  -1.885328  -0.254297
H    -3.971106  -4.372694  -0.617955
N    -0.380376  -1.916001  5.491381
C    0.371999  -2.092067  6.733662
H    -1.394973  -1.950526  5.554766
H    1.362163  -2.496581  6.507868
H    -0.171000  -2.792089  7.376281
H    0.473544  -1.133379  7.259197
Ca    2.779503  -0.369795  3.137515
