30
Energy: -38163.7338924 eV PBE+vdW (tier 2 basis)
C    -1.309171  1.050767  -0.414113
C    -1.147102  0.874276  1.065637
O    0.091973  0.881072  1.515949
H    -2.361418  1.041855  -0.709706
H    -0.764115  0.260371  -0.948117
H    -0.861219  2.005819  -0.721445
N    -2.215857  0.726127  1.799846
C    -2.126630  0.486383  3.251802
C    -1.168971  1.411243  4.009069
O    0.005748  1.049090  4.362599
H    -3.455992  -0.562847  1.420327
H    -3.127446  0.722721  3.646779
C    -1.885479  -1.012802  3.555165
C    -3.022151  -1.838172  3.032686
N    -3.719629  -1.464979  1.894124
C    -3.599784  -3.004087  3.467940
C    -4.682935  -2.349107  1.633194
N    -4.617603  -3.294665  2.580889
H    -1.784929  -1.182663  4.635226
H    -0.946130  -1.345675  3.086338
H    -3.380385  -3.636827  4.318256
H    -5.390742  -2.314167  0.813889
H    -5.234858  -4.101381  2.634537
N    -1.594834  2.630273  4.312711
C    -2.891355  3.239685  3.997764
H    -0.943237  3.188724  4.863293
H    -3.640127  2.985073  4.759481
H    -3.232451  2.924789  3.006970
H    -2.762727  4.326314  3.988429
Ca    1.565555  0.815791  2.911479
