30
Energy: -38163.4991532 eV PBE+vdW (tier 2 basis)
C    0.510854  0.282733  -1.128952
C    -0.007752  0.752224  0.185905
O    0.812114  0.992568  1.152108
H    1.252084  0.995848  -1.513099
H    -0.282912  0.147003  -1.869763
H    1.032894  -0.673709  -0.981654
N    -1.304627  0.907989  0.362527
C    -1.983637  1.160212  1.625174
C    -3.322479  0.359714  1.457348
O    -3.666594  0.087107  0.305780
H    -1.994364  0.588276  -0.345653
H    -1.375349  0.744940  2.442692
C    -2.338934  2.652974  1.882608
C    -1.350846  3.733559  1.557336
N    -0.055525  3.863197  2.075763
C    -1.633130  4.859193  0.821045
C    0.401014  5.052193  1.650098
N    -0.524972  5.667590  0.896625
H    -2.634546  2.741409  2.939497
H    -3.243686  2.884101  1.303621
H    -2.524892  5.152849  0.280102
H    1.368647  5.491676  1.872489
H    -0.426278  6.586005  0.470168
N    -4.043103  0.045076  2.546332
C    -3.758910  0.298696  3.952855
H    -4.921453  -0.421824  2.325278
H    -4.196489  -0.506902  4.551733
H    -4.186023  1.252054  4.295213
H    -2.679243  0.292935  4.144224
Ca    1.436627  2.206536  2.689273
