30
Energy: -38163.7522127 eV PBE+vdW (tier 2 basis)
C    -1.310318  0.776995  -0.646297
C    -1.027712  0.865298  0.817194
O    0.185301  1.013226  1.210241
H    -2.363587  0.577249  -0.863904
H    -0.685180  -0.010242  -1.087964
H    -1.019579  1.723026  -1.124852
N    -2.056297  0.801185  1.652153
C    -2.102998  0.651682  3.122605
C    -1.198761  1.568714  3.939148
O    0.057683  1.358869  4.050785
H    -2.931143  0.346682  1.287116
H    -3.137163  0.922162  3.367731
C    -1.942974  -0.840160  3.504717
C    -3.106760  -1.620300  2.960305
N    -3.805956  -1.175650  1.848390
C    -3.663412  -2.794224  3.415268
C    -4.762859  -2.066383  1.634294
N    -4.704314  -3.058692  2.557423
H    -1.894600  -0.940335  4.598348
H    -0.982743  -1.212961  3.108547
H    -3.423192  -3.442314  4.249004
H    -5.503849  -2.030766  0.843607
H    -5.328554  -3.858008  2.610930
N    -1.746726  2.562765  4.620835
C    -3.148334  3.002801  4.659667
H    -1.094719  3.070429  5.219836
H    -3.757218  2.324221  5.270355
H    -3.564497  3.081672  3.650170
H    -3.172519  3.995768  5.117497
Ca    1.644982  1.058291  2.680852
