30
Energy: -38163.4606158 eV PBE+vdW (tier 2 basis)
C    0.448973  -0.306531  -0.013680
C    -0.325761  0.564843  0.926916
O    0.041447  1.834599  0.977138
H    0.095580  -1.340542  0.015755
H    1.517376  -0.282520  0.239881
H    0.356458  0.082294  -1.037085
N    -1.301440  0.047788  1.621159
C    -2.075774  0.947717  2.461611
C    -1.261286  1.353449  3.702777
O    -0.735089  2.517166  3.728185
H    -5.472499  -1.157426  3.952774
H    -2.228570  1.918279  1.956184
C    -3.520118  0.419519  2.736212
C    -3.805871  -1.044263  2.599166
N    -4.862427  -1.631220  3.291210
C    -3.303628  -2.040630  1.797856
C    -5.006652  -2.915849  2.939998
N    -4.059696  -3.172833  2.035106
H    -4.177315  0.933851  2.018522
H    -3.855243  0.758994  3.728345
H    -2.476189  -2.008017  1.104497
H    -5.748005  -3.609232  3.318726
H    -3.926233  -4.075572  1.585496
N    -1.028763  0.531112  4.719367
C    -1.404974  -0.872203  4.861664
H    -0.463619  0.937558  5.464105
H    -0.650050  -1.368439  5.479733
H    -1.420666  -1.354869  3.880443
H    -2.378156  -0.976747  5.360077
Ca    0.310190  3.501724  2.104861
