30
Energy: -38163.57625 eV PBE+vdW (tier 2 basis)
C    0.245614  -0.162215  0.161980
C    0.072333  -0.303256  1.638146
O    1.035159  -0.782395  2.353033
H    -0.606796  0.326519  -0.319750
H    0.366159  -1.166255  -0.270714
H    1.163510  0.396027  -0.063294
N    -1.068669  0.058022  2.184323
C    -1.533506  -0.084328  3.559941
C    -2.927476  0.617268  3.517656
O    -3.162127  1.368067  2.564490
H    -1.782055  0.581444  1.639522
H    -1.646669  -1.154075  3.788536
C    -0.614499  0.548664  4.648584
C    0.066023  1.830669  4.282269
N    1.427656  1.882314  3.961268
C    -0.446107  3.102283  4.218694
C    1.709803  3.169629  3.721215
N    0.602192  3.918673  3.865156
H    0.135389  -0.199897  4.953945
H    -1.218857  0.702663  5.552180
H    -1.444579  3.484932  4.391154
H    2.678612  3.581331  3.460070
H    0.554959  4.928372  3.749240
N    -3.796024  0.395971  4.518532
C    -3.705156  -0.527714  5.645685
H    -4.667260  0.913640  4.413945
H    -4.694490  -0.960892  5.828158
H    -3.377999  -0.021387  6.564855
H    -3.022720  -1.355930  5.426587
Ca    2.562628  -0.108645  3.575993
