30
Energy: -38163.6557358 eV PBE+vdW (tier 2 basis)
C    -1.063157  -3.739043  0.792297
C    -0.687831  -2.288499  0.759776
O    0.171359  -1.883639  -0.095756
H    -0.450896  -4.269975  1.537596
H    -0.844051  -4.183446  -0.183631
H    -2.118938  -3.902053  1.040705
N    -1.160589  -1.339038  1.605118
C    -1.818289  -1.698020  2.852038
C    -3.308795  -1.381879  2.693451
O    -3.650183  -0.754848  1.605923
H    -2.786332  -0.689750  1.090234
H    -1.720819  -2.768774  3.093311
C    -1.201325  -0.861041  4.014052
C    0.260490  -1.106996  4.235219
N    1.259160  -0.752363  3.322017
C    0.856169  -1.633204  5.355804
C    2.420290  -1.067500  3.902517
N    2.209952  -1.598085  5.122600
H    -1.727385  -1.072337  4.954812
H    -1.378352  0.205190  3.798207
H    0.442087  -2.002101  6.286305
H    3.409705  -0.927884  3.480066
H    2.934235  -1.906190  5.766353
N    -4.220745  -1.693975  3.574167
C    -5.659473  -1.403556  3.472370
H    -3.910003  -2.193662  4.405249
H    -6.218611  -2.329240  3.647532
H    -5.885161  -1.015609  2.476874
H    -5.935310  -0.662156  4.231829
Ca    0.772913  -0.142553  1.074525
