30
Energy: -38164.1568796 eV PBE+vdW (tier 2 basis)
C    -0.220142  -0.412188  -0.059728
C    -0.105908  -0.173599  1.404307
O    0.994940  -0.254392  2.014313
H    -0.002293  -1.479909  -0.226340
H    0.546084  0.150394  -0.606228
H    -1.216114  -0.207012  -0.463554
N    -1.213911  0.144639  2.146198
C    -2.203781  1.160726  1.796371
C    -1.498820  2.371654  1.147187
O    -0.301866  2.642628  1.465989
H    -1.087521  0.008521  3.149698
H    -2.957138  0.758555  1.106299
C    -2.937273  1.623317  3.089837
C    -2.156173  1.674837  4.383903
N    -0.779361  1.890547  4.549868
C    -2.735342  1.582906  5.628543
C    -0.572554  1.933677  5.872637
N    -1.726550  1.758785  6.540659
H    -3.789642  0.950704  3.252059
H    -3.372384  2.614111  2.889845
H    -3.763887  1.423463  5.929942
H    0.380255  2.079863  6.371213
H    -1.830970  1.752601  7.552587
N    -2.161338  3.129478  0.286841
C    -3.532441  2.958919  -0.210594
H    -1.640507  3.938055  -0.053129
H    -3.700658  3.705101  -0.991603
H    -4.271789  3.120176  0.583448
H    -3.672982  1.966040  -0.654356
Ca    1.037064  1.783406  2.974791
