30
Energy: -38163.9929672 eV PBE+vdW (tier 2 basis)
C    -0.125432  -2.671892  0.103821
C    0.447204  -1.925108  1.256033
O    1.575901  -2.193469  1.734078
H    -0.862718  -2.092984  -0.459645
H    -0.578235  -3.612934  0.450632
H    0.708477  -2.954911  -0.551520
N    -0.219255  -0.889769  1.895758
C    -1.625160  -0.645643  2.252988
C    -1.572973  -0.179814  3.730806
O    -0.605549  -0.567369  4.453735
H    0.419255  -0.159029  2.211427
H    -2.037809  0.151089  1.618031
C    -2.540829  -1.879152  2.111336
C    -2.286023  -3.095528  2.967155
N    -1.057322  -3.501353  3.496539
C    -3.226223  -4.057076  3.256680
C    -1.278734  -4.684890  4.081289
N    -2.569292  -5.042009  3.951169
H    -2.551956  -2.168315  1.050846
H    -3.564237  -1.534056  2.312492
H    -4.280601  -4.126835  3.017165
H    -0.544225  -5.297529  4.593798
H    -2.985582  -5.899549  4.305912
N    -2.531758  0.584377  4.230075
C    -3.714230  1.150223  3.577063
H    -2.420472  0.789270  5.224366
H    -3.872352  2.163951  3.959796
H    -4.604039  0.547206  3.799685
H    -3.576975  1.212712  2.493989
Ca    0.864150  -2.158247  3.919572
