11
Energy: -561136.957386 eV PBE+vdW (tier 2 basis)
N    0.469790  -0.301931  0.045819
C    0.230916  0.078400  1.441236
C    1.453545  -0.023903  2.395781
O    2.582975  -0.398255  2.033547
H    -0.088590  -1.110160  -0.256086
H    0.318094  0.468907  -0.616733
H    -0.104033  1.127508  1.482577
H    -0.548848  -0.572012  1.869560
O    1.294253  0.297496  3.637790
H    0.392728  0.589784  3.898656
Hg    2.715548  -0.929628  -0.168655
