11
Energy: -561137.222726 eV PBE+vdW (tier 2 basis)
N    0.374112  -0.183886  0.011742
C    0.036191  0.127243  1.404909
C    1.179435  -0.033023  2.428269
O    2.336533  -0.403148  2.162393
H    -0.172263  -0.964956  -0.373266
H    0.281264  0.623213  -0.618176
H    -0.298850  1.173884  1.488388
H    -0.774974  -0.532310  1.753701
O    0.775149  0.270925  3.619808
H    1.472262  0.183239  4.313997
Hg    2.610141  -0.835182  -0.073767
