27
Energy: -103698.542471 eV PBE+vdW (tier 2 basis)
N    0.177957  0.057011  -0.089464
C    0.098793  -0.473256  1.296671
C    1.482282  -1.048891  1.625149
O    2.182369  -1.539272  0.731836
H    -0.766863  0.284382  -0.405133
H    0.652202  0.966554  -0.058264
H    -0.164584  0.322901  2.013428
C    -0.906306  -1.644015  1.448626
C    -2.380300  -1.426512  1.042815
C    -2.765199  -1.632423  -0.445718
N    -2.068870  -2.777916  -1.050997
C    -0.975162  -2.696672  -1.842703
N    0.051650  -3.510950  -1.893654
N    -0.815222  -1.569083  -2.691910
H    -0.899623  -1.918559  2.512755
H    -0.499859  -2.523522  0.925750
H    -2.744908  -0.438582  1.362262
H    -2.965643  -2.147740  1.630772
H    -2.563964  -0.736397  -1.046440
H    -3.848583  -1.793153  -0.514709
H    -2.139047  -3.643821  -0.518864
H    -0.054012  -4.366284  -1.343200
H    -0.669298  -1.897135  -3.650323
H    -1.599602  -0.918817  -2.699921
O    1.914000  -1.089823  2.865477
H    1.319892  -0.643343  3.500550
Sr    1.699033  -1.642695  -1.633066
