27
Energy: -103696.976542 eV PBE+vdW (tier 2 basis)
N    -0.333685  0.535439  -0.171285
C    -0.194668  0.266035  1.251932
C    0.965744  1.051788  1.888157
O    1.950583  1.401071  1.278033
H    -0.878829  1.381170  -0.333684
H    0.590881  0.698905  -0.579423
H    -1.123867  0.546755  1.767949
C    0.072903  -1.241883  1.488096
C    -1.058299  -2.098527  0.913644
C    -0.690305  -3.576816  0.869667
N    -1.766222  -4.354031  0.210907
C    -1.756147  -5.663781  0.028399
N    -0.833849  -6.531915  0.390261
N    -2.878181  -6.301921  -0.656237
H    0.204824  -1.429644  2.563339
H    1.024105  -1.496813  0.992514
H    -1.262137  -1.731115  -0.105993
H    -1.973317  -1.963181  1.512621
H    -0.542997  -3.983994  1.882966
H    0.239756  -3.724794  0.297414
H    -2.555241  -3.815714  -0.143414
H    -0.031013  -6.123898  0.873136
H    -3.756866  -6.125540  -0.155666
H    -3.008829  -5.901618  -1.592394
O    0.759411  1.265269  3.206979
H    1.536578  1.750033  3.552768
Sr    -1.652656  -8.628528  -0.370327
