27
Energy: -103697.157124 eV PBE+vdW (tier 2 basis)
N    -0.449682  -0.072088  -0.152184
C    -0.022713  -0.085325  1.227975
C    1.424060  -0.511187  1.510733
O    2.144861  0.077511  2.318746
H    0.111635  0.548193  -0.734192
H    -0.441229  -1.000858  -0.574348
H    -0.041379  0.965245  1.568523
C    -1.056879  -0.915135  2.039927
C    -0.760548  -1.394106  3.479051
C    -0.125262  -0.415284  4.473893
N    -0.697343  0.985373  4.377509
C    0.259513  2.038571  4.713207
N    -0.157812  2.794877  5.708470
N    1.377402  2.117934  4.013163
H    -1.272498  -1.820962  1.455473
H    -1.994272  -0.338126  2.001029
H    -0.084961  -2.261447  3.451622
H    -1.707450  -1.782939  3.881434
H    0.956658  -0.365936  4.313568
H    -0.271600  -0.776660  5.504034
H    -0.976145  1.117220  3.397165
H    0.479654  3.545454  5.982052
H    2.070173  2.829313  4.234953
H    1.646562  1.391812  3.300404
O    1.827922  -1.561173  0.805559
H    2.766102  -1.755146  1.012957
Sr    -2.237586  1.819710  6.254019
