27
Energy: -103699.133646 eV PBE+vdW (tier 2 basis)
N    -0.623400  0.035074  0.921967
C    -0.038560  0.521655  2.240226
C    1.489552  0.496834  2.051114
O    2.207334  0.906984  2.998843
H    -1.225591  0.732214  0.468483
H    0.225723  -0.145599  0.326406
H    -0.316658  1.580390  2.337430
C    -0.596471  -0.216591  3.470416
C    -0.534215  -1.756051  3.569345
C    0.756436  -2.428935  4.067842
N    1.791733  -2.525514  3.035269
C    3.095839  -2.176519  3.060321
N    3.951635  -2.317448  2.072602
N    3.612910  -1.420640  4.129171
H    -1.652398  0.078175  3.559446
H    -0.100753  0.239136  4.339554
H    -0.850452  -2.248734  2.631615
H    -1.316229  -2.041933  4.287086
H    0.510030  -3.442516  4.416736
H    1.150995  -1.891053  4.938435
H    1.513041  -3.014426  2.188241
H    3.648810  -2.961450  1.338896
H    4.444137  -1.855919  4.529791
H    2.962390  -1.129675  4.854542
O    1.942006  0.074478  0.933744
H    -1.163593  -0.832627  1.024301
Sr    4.298993  0.135648  1.959699
