27
Energy: -103698.812947 eV PBE+vdW (tier 2 basis)
N    1.530301  -1.194785  1.348384
C    0.267617  -0.413280  1.493607
C    0.444061  0.600662  2.622164
O    1.452228  0.632297  3.331572
H    1.294600  -2.137494  1.026585
H    2.067167  -0.793005  0.573876
H    0.111287  0.200905  0.588711
C    -1.003295  -1.305464  1.603884
C    -0.998017  -2.552288  2.508350
C    -1.405808  -2.431766  3.985758
N    -0.548038  -1.622090  4.868175
C    0.762300  -1.847166  5.083268
N    1.527510  -2.767182  4.541639
N    1.484188  -0.888498  5.830171
H    -1.200691  -1.651681  0.579731
H    -1.866061  -0.668251  1.853090
H    -0.051097  -3.100817  2.403586
H    -1.746110  -3.236988  2.083053
H    -1.500869  -3.447208  4.401993
H    -2.404458  -1.982201  4.051232
H    -1.033182  -1.025347  5.532619
H    1.018152  -3.558835  4.149024
H    1.944864  -1.301703  6.642702
H    0.980636  -0.039389  6.085554
O    -0.498634  1.500440  2.838694
H    -1.230431  1.458129  2.192418
Sr    3.090929  -1.112353  3.613286
