27
Energy: -103697.365965 eV PBE+vdW (tier 2 basis)
N    0.229854  0.650148  0.526585
C    -0.052413  0.208740  1.873657
C    1.155455  -0.055679  2.783553
O    1.121233  -0.036865  4.017883
H    0.737459  -0.045782  -0.019261
H    0.764104  1.517102  0.500935
H    -0.608981  1.013556  2.381915
C    -0.990193  -1.027803  1.811240
C    -1.759116  -1.364749  3.100696
C    -1.050837  -2.385189  4.006111
N    -1.621592  -2.423936  5.366700
C    -1.301073  -1.558524  6.324158
N    -0.446196  -0.567110  6.277744
N    -1.933869  -1.704566  7.637609
H    -0.433414  -1.904636  1.443463
H    -1.710129  -0.776976  1.021946
H    -2.748465  -1.763540  2.837639
H    -1.943896  -0.437527  3.664965
H    0.018801  -2.168286  4.109931
H    -1.137254  -3.399803  3.599219
H    -2.362942  -3.095149  5.550664
H    0.021085  -0.378304  5.362908
H    -1.903054  -2.677512  7.960898
H    -2.929748  -1.461133  7.585225
O    2.279069  -0.314772  2.113967
H    3.001648  -0.469867  2.755608
Sr    -0.296302  0.178078  8.492228
