27
Energy: -103698.080653 eV PBE+vdW (tier 2 basis)
N    1.099568  -0.248160  0.126101
C    0.454510  0.180654  1.347960
C    1.538877  0.735395  2.274026
O    2.695399  0.935895  1.878846
H    0.419090  -0.716151  -0.474410
H    -3.059482  -2.112164  -0.324269
H    -0.000662  -0.664330  1.915439
C    -0.639835  1.282538  1.158316
C    -1.921445  0.831445  0.440844
C    -2.880526  0.020743  1.328124
N    -4.236923  -0.081358  0.773090
C    -4.801600  -1.145838  0.188840
N    -4.060984  -2.188606  -0.213414
N    -6.129490  -1.175869  0.007607
H    -0.178534  2.089327  0.571822
H    -0.922869  1.727191  2.128597
H    -1.679062  0.275925  -0.479260
H    -2.450579  1.736211  0.107120
H    -2.984021  0.509539  2.307900
H    -2.516280  -0.995289  1.532427
H    -4.822025  0.744550  0.858958
H    -4.492647  -3.071226  -0.459570
H    -6.746830  -0.544588  0.504486
H    -6.560090  -1.834774  -0.630490
O    1.267574  1.024035  3.537330
H    0.345243  0.808714  3.770023
Sr    3.314130  0.128403  -0.261887
