27
Energy: -103697.107812 eV PBE+vdW (tier 2 basis)
N    -0.064251  -0.189289  -0.133174
C    -0.072960  -0.128182  1.312710
C    1.303037  -0.344938  1.953795
O    2.164054  -1.095114  1.595078
H    0.572727  0.492401  -0.544497
H    0.225633  -1.110626  -0.465496
H    -0.418140  0.879970  1.598447
C    -1.070367  -1.188511  1.840760
C    -1.299186  -1.306463  3.353857
C    -1.965028  -0.112729  4.042858
N    -1.021586  1.008838  4.237683
C    -1.353405  2.191684  4.708163
N    -2.533119  2.632454  5.111710
N    -0.319920  3.223062  4.811065
H    -0.725114  -2.168857  1.479713
H    -2.022395  -0.991454  1.326781
H    -0.372313  -1.566445  3.889654
H    -1.967956  -2.162669  3.518083
H    -2.342709  -0.416148  5.031666
H    -2.818990  0.248951  3.446700
H    -0.033653  0.838128  3.966546
H    -3.278648  1.934532  5.087462
H    0.221202  3.280160  3.940625
H    0.363016  2.961941  5.532157
O    1.486412  0.471358  3.095122
H    2.370231  0.232790  3.444732
Sr    -2.182950  4.926226  5.536653
