27
Energy: -103697.670205 eV PBE+vdW (tier 2 basis)
N    0.852232  -0.010614  0.521745
C    0.721655  0.259386  -0.952955
C    1.447420  1.595178  -1.175875
O    1.776753  2.300490  -0.240641
H    1.584985  -0.700393  0.711161
H    1.163771  0.900166  0.925432
H    1.236663  -0.537164  -1.505367
C    -0.746648  0.340546  -1.401504
C    -1.580156  -0.928956  -1.131693
C    -2.416626  -0.907865  0.151917
N    -1.590315  -0.789174  1.359254
C    -2.090336  -0.963094  2.540809
N    -1.467110  -0.880170  3.734062
N    -3.525281  -1.301335  2.779421
H    -0.721388  0.541263  -2.480044
H    -1.222068  1.221906  -0.941850
H    -0.938586  -1.824083  -1.142325
H    -2.284150  -1.063479  -1.963679
H    -3.022479  -1.829750  0.168451
H    -3.124190  -0.060756  0.092120
H    -0.111343  -0.345285  0.970548
H    -0.474906  -0.659477  3.650452
H    -3.751499  -2.182379  2.304450
H    -4.123999  -0.606514  2.319844
O    1.623155  1.859173  -2.466707
H    2.068994  2.726868  -2.561611
Sr    -3.106071  -1.276602  5.313297
