27
Energy: -103698.972202 eV PBE+vdW (tier 2 basis)
N    1.685496  -0.941578  2.466455
C    0.371191  -0.294283  2.202011
C    0.316656  0.959633  3.068332
O    0.856582  1.006005  4.184846
H    2.397452  -0.455122  1.910401
H    1.669497  -1.886989  2.078889
H    0.260906  -0.010747  1.144763
C    -0.850005  -1.153296  2.621546
C    -1.025845  -2.555719  2.005378
C    -0.310286  -3.736706  2.704263
N    -0.436011  -3.684806  4.164742
C    0.540360  -3.250187  4.986016
N    1.832567  -3.222916  4.750813
N    0.166130  -2.592789  6.175793
H    -1.733405  -0.558232  2.353113
H    -0.877753  -1.228386  3.721228
H    -0.745852  -2.563806  0.941204
H    -2.104538  -2.766787  2.017607
H    0.758013  -3.780428  2.461312
H    -0.732084  -4.682769  2.342997
H    -1.363434  -3.835907  4.553896
H    2.125822  -3.853186  4.002970
H    -0.833442  -2.461873  6.328170
H    0.608430  -2.990646  7.006032
O    -0.389802  1.937388  2.552581
H    -0.444172  2.698841  3.170598
Sr    2.208270  -0.826355  5.112955
