27
Energy: -103697.781226 eV PBE+vdW (tier 2 basis)
N    0.988487  0.544160  0.715878
C    0.124802  -0.028616  1.811440
C    0.846949  -1.258137  2.432669
O    2.143564  -1.164758  2.456119
H    0.836379  -0.010198  -0.134946
H    0.623321  1.471452  0.474571
H    0.132148  0.725766  2.616721
C    -1.339453  -0.280123  1.439177
C    -1.594410  -1.438977  0.464609
C    -3.030616  -2.004543  0.538275
N    -3.582348  -2.187381  1.890684
C    -3.283533  -3.128279  2.834374
N    -3.862185  -3.518744  3.889451
N    -1.949510  -3.791834  2.646095
H    -1.779199  0.652391  1.053666
H    -1.866349  -0.479716  2.383014
H    -0.866137  -2.244107  0.639358
H    -1.443163  -1.128813  -0.580209
H    -3.088974  -2.939204  -0.042156
H    -3.719021  -1.306725  0.047283
H    -4.482362  -1.745720  2.047813
H    -4.778577  -3.102612  4.072742
H    -1.891887  -4.461124  3.427982
H    -1.879742  -4.315537  1.764476
O    0.216746  -2.208509  2.898982
H    -1.132885  -3.105634  2.718842
Sr    3.476962  0.294461  1.500972
