27
Energy: -103698.031907 eV PBE+vdW (tier 2 basis)
N    1.126445  0.035932  -0.066525
C    1.082962  -0.702531  1.207738
C    2.454695  -1.203686  1.681130
O    2.545514  -1.759662  2.832646
H    -0.482490  0.479082  -0.439062
H    1.781665  0.819639  -0.010337
H    0.746573  -0.005229  1.994163
C    0.077886  -1.873151  1.152517
C    -1.414409  -1.497827  1.096891
C    -1.968592  -0.966738  -0.222633
N    -1.570091  0.474418  -0.485190
C    -2.068679  1.501948  0.515257
N    -1.286850  2.269262  1.150040
N    -3.412829  1.451911  0.692914
H    0.231106  -2.474131  2.057911
H    0.334583  -2.526089  0.301047
H    -1.669635  -0.807452  1.916269
H    -1.984815  -2.413856  1.306610
H    -3.062155  -1.024340  -0.229083
H    -1.597765  -1.543050  -1.081537
H    -1.860768  0.752007  -1.432502
H    -0.298573  2.151452  0.933361
H    -3.801904  2.174539  1.292450
H    -4.033882  1.098448  -0.025240
O    3.491144  -1.050711  0.942121
H    1.497468  -0.567034  -0.806846
Sr    4.845247  -2.021829  2.603708
