27
Energy: -103697.32166 eV PBE+vdW (tier 2 basis)
N    0.380811  0.496732  0.555303
C    0.370561  -0.126579  1.862131
C    1.340489  -1.301098  1.926363
O    1.578719  -1.949979  2.949339
H    -0.183255  1.345085  0.546723
H    1.316398  0.734182  0.231067
H    0.704638  0.527003  2.699733
C    -1.093134  -0.546558  2.173398
C    -1.391839  -1.007535  3.611409
C    -1.424553  -2.535872  3.753710
N    -1.412760  -2.979557  5.161649
C    -0.306726  -3.071995  5.892612
N    0.927937  -2.813220  5.538265
N    -0.416233  -3.555157  7.270707
H    -1.411720  -1.292867  1.430969
H    -1.696999  0.345986  1.963242
H    -2.362703  -0.606804  3.933176
H    -0.642325  -0.585356  4.298149
H    -0.566881  -3.004898  3.256408
H    -2.331722  -2.953587  3.300803
H    -2.307629  -3.148952  5.613775
H    1.071247  -2.420315  4.582174
H    -1.017411  -4.383863  7.331329
H    -0.860388  -2.845310  7.864504
O    1.950813  -1.559892  0.773024
H    2.570876  -2.305130  0.907572
Sr    2.218992  -3.618949  7.316671
