27
Energy: -103697.918234 eV PBE+vdW (tier 2 basis)
N    0.215831  0.488679  0.900989
C    0.275945  -0.389196  2.130257
C    1.606561  -1.130211  2.165498
O    2.532831  -0.816461  1.333824
H    1.132752  0.926481  0.741068
H    -0.012434  -0.054272  0.058284
H    0.312571  0.317860  2.976287
C    -0.954495  -1.310061  2.231654
C    -2.324461  -0.631679  2.056272
C    -2.811373  0.287194  3.196922
N    -1.847032  1.251706  3.715043
C    -1.157320  2.222964  3.041270
N    -0.068093  2.691515  3.543124
N    -1.633979  2.493588  1.719276
H    -0.893143  -1.812006  3.206815
H    -0.861607  -2.104751  1.474182
H    -3.071327  -1.431823  1.954396
H    -2.367755  -0.099694  1.092932
H    -3.101472  -0.328649  4.056824
H    -3.738688  0.787324  2.872165
H    -1.527976  1.139095  4.671099
H    0.297480  3.502677  3.039461
H    -1.338481  3.418732  1.405680
H    -2.648007  2.419662  1.608786
O    1.791674  -2.011835  3.066583
H    -0.530950  1.256773  1.033036
Sr    4.028301  -2.303776  2.443861
