27
Energy: -103697.314589 eV PBE+vdW (tier 2 basis)
N    -0.218441  1.239072  1.029829
C    0.262561  0.398982  2.099088
C    1.778038  0.204044  2.239463
O    2.324082  -0.183442  3.277187
H    0.132579  2.193279  1.090926
H    0.017912  0.876453  0.106475
H    -0.035140  0.874852  3.048888
C    -0.434697  -0.985212  1.991755
C    -0.145811  -2.001519  3.104023
C    -0.651483  -1.560628  4.481615
N    -0.125460  -2.411897  5.603364
C    1.068779  -1.987079  6.305235
N    1.117077  -2.504952  7.525867
N    1.911669  -1.141286  5.746894
H    -0.157851  -1.440149  1.029358
H    -1.511118  -0.771064  1.927098
H    0.933470  -2.209713  3.153877
H    -0.631499  -2.952780  2.835012
H    -1.748646  -1.615752  4.514209
H    -0.380503  -0.522784  4.710980
H    0.069279  -3.348290  5.225688
H    1.994756  -2.346627  8.024315
H    2.694923  -0.795813  6.296971
H    1.895665  -0.811567  4.744290
O    2.465315  0.478190  1.137378
H    3.418226  0.322931  1.304857
Sr    -1.135076  -2.997390  7.961380
