27
Energy: -103698.884105 eV PBE+vdW (tier 2 basis)
N    1.135712  -0.662344  0.670731
C    0.467758  -0.630443  1.977892
C    1.541301  -1.045389  3.002368
O    1.343439  -1.013536  4.238455
H    0.662397  -1.249073  -0.015079
H    1.294818  0.256539  0.260104
H    0.175464  0.397124  2.246684
C    -0.768199  -1.555600  2.060341
C    -2.100648  -0.880098  1.674502
C    -2.960592  -0.428145  2.862770
N    -2.297067  0.535454  3.758785
C    -1.736816  0.251044  4.944612
N    -1.725422  -0.876722  5.611450
N    -0.936262  1.266597  5.560459
H    -0.840131  -1.975213  3.072970
H    -0.578365  -2.419611  1.406772
H    -2.720853  -1.584168  1.102691
H    -1.919872  -0.032452  0.995916
H    -3.275854  -1.295966  3.456903
H    -3.884274  0.043356  2.503818
H    -2.357451  1.514412  3.492153
H    -2.381770  -1.580465  5.271723
H    -1.402733  1.645740  6.389410
H    -0.687443  2.043053  4.945662
O    2.658666  -1.417471  2.484510
H    2.456556  -1.273935  1.463922
Sr    0.591622  -0.836625  6.395036
