27
Energy: -103695.699876 eV PBE+vdW (tier 2 basis)
N    -0.878470  -0.130766  -0.253622
C    -0.442561  0.063179  1.128177
C    1.068855  0.192393  0.923298
O    1.617024  1.273831  0.591400
H    -1.105954  -1.095821  -0.481751
H    -1.627241  0.489461  -0.546075
H    -0.785827  1.045508  1.482483
C    -0.825583  -1.019737  2.149785
C    -2.279730  -0.976084  2.653107
C    -3.350133  -1.377839  1.631033
N    -4.648176  -1.453915  2.267691
C    -5.831383  -1.408994  1.541156
N    -5.960779  -1.267952  0.253376
N    -6.967319  -1.541321  2.290539
H    -0.171688  -0.913774  3.030666
H    -0.626034  -2.022568  1.722724
H    -2.507466  0.024629  3.050187
H    -2.336425  -1.662674  3.511458
H    -3.067438  -2.334176  1.146970
H    -3.421467  -0.622269  0.835947
H    -4.685967  -1.969529  3.142978
H    -5.065265  -1.266901  -0.238547
H    -7.839649  -1.476534  1.777962
H    -6.986317  -1.283265  3.269341
O    1.852891  -0.859747  0.996749
H    1.363833  -1.650091  1.310114
Sr    3.122316  2.674635  -0.325201
