27
Energy: -103699.181183 eV PBE+vdW (tier 2 basis)
N    0.581068  0.108385  0.363307
C    -0.081598  0.070313  1.681900
C    0.869779  0.451955  2.809711
O    0.473545  0.353837  4.026393
H    1.519672  0.503107  0.466143
H    0.075322  0.737458  -0.260919
H    -0.873728  0.837885  1.742899
C    -0.757236  -1.296832  1.920284
C    0.238941  -2.463798  1.865287
C    -0.314016  -3.756174  1.257724
N    -0.985036  -3.633253  -0.057503
C    -0.431440  -3.275355  -1.233056
N    0.541118  -2.359623  -1.292649
N    -0.887614  -3.848085  -2.359986
H    -1.513884  -1.403898  1.129644
H    -1.303292  -1.281270  2.871690
H    0.583070  -2.722773  2.877164
H    1.141147  -2.168800  1.311679
H    -1.082083  -4.178627  1.917021
H    0.491818  -4.500890  1.179834
H    -1.852946  -4.152536  -0.139861
H    1.036568  -2.242200  -2.169719
H    -1.385658  -4.730235  -2.341044
H    -0.719365  -3.431588  -3.268231
O    2.041680  0.909830  2.544618
H    0.601129  -1.567393  -0.614228
Sr    2.391639  1.391995  4.808875
