27
Energy: -103696.953162 eV PBE+vdW (tier 2 basis)
N    -0.615139  1.084323  0.043232
C    0.040883  1.436703  1.289530
C    1.552899  1.165099  1.260215
O    2.074431  0.336437  0.550293
H    -0.601078  1.858257  -0.618907
H    -0.125867  0.301441  -0.397991
H    -0.113307  2.505228  1.496920
C    -0.571855  0.612514  2.456329
C    -2.072972  0.885941  2.585934
C    -2.843885  -0.151747  3.390031
N    -2.371060  -0.211112  4.795472
C    -2.923875  -0.941262  5.748081
N    -3.967243  -1.742146  5.661472
N    -2.369569  -0.901723  7.099791
H    -0.018636  0.850925  3.380348
H    -0.399828  -0.454608  2.237863
H    -2.494328  0.879808  1.568565
H    -2.259439  1.891246  2.995835
H    -2.719200  -1.153094  2.946773
H    -3.917353  0.092842  3.406434
H    -1.538214  0.333647  5.013797
H    -4.376220  -1.808599  4.727341
H    -1.397674  -1.232504  7.101905
H    -2.333903  0.061697  7.451944
O    2.218295  1.938896  2.152652
H    3.168708  1.716327  2.078034
Sr    -4.282731  -2.559432  7.865359
