27
Energy: -103698.418482 eV PBE+vdW (tier 2 basis)
N    -0.518259  0.757348  2.040872
C    0.592103  -0.072724  1.685531
C    1.754568  0.538530  0.886718
O    2.863761  -0.038733  0.779674
H    -1.046382  1.110294  1.244620
H    -0.285067  1.530320  2.660310
H    1.088317  -0.394549  2.620249
C    0.116458  -1.356899  0.954662
C    -0.368635  -2.434159  1.934211
C    -0.390192  -3.862301  1.367519
N    0.809097  -4.240790  0.586164
C    2.083307  -3.979828  0.893880
N    2.590002  -3.533480  2.021445
N    3.054316  -4.050148  -0.159002
H    0.938324  -1.749207  0.337841
H    -0.679414  -1.081046  0.247629
H    -1.388787  -2.211048  2.272621
H    0.242347  -2.395131  2.847853
H    -1.229262  -3.985350  0.672041
H    -0.545759  -4.586025  2.181044
H    0.632669  -4.755183  -0.271983
H    1.961385  -3.611452  2.820878
H    2.656448  -4.105717  -1.098361
H    3.686126  -4.845138  -0.026471
O    1.518491  1.702770  0.338547
H    2.304854  2.040435  -0.141903
Sr    4.208456  -1.938544  1.154948
