27
Energy: -103699.288084 eV PBE+vdW (tier 2 basis)
N    0.859029  -0.180691  0.365211
C    0.133746  0.063081  1.622576
C    1.040939  0.407044  2.805119
O    0.524751  0.930994  3.858189
H    0.402915  -3.180164  -2.070554
H    1.145539  0.701572  -0.062998
H    -0.520091  0.939213  1.493156
C    -0.743802  -1.163686  1.987750
C    -2.138442  -1.207502  1.333979
C    -2.246478  -0.885649  -0.165016
N    -1.270424  -1.604954  -0.983442
C    -1.508157  -2.418631  -2.010292
N    -0.493270  -3.130715  -2.536058
N    -2.734119  -2.571897  -2.535160
H    -0.900620  -1.197223  3.074014
H    -0.167693  -2.066095  1.731469
H    -2.801062  -0.497130  1.850424
H    -2.558224  -2.206793  1.517940
H    -2.107805  0.190698  -0.346567
H    -3.265690  -1.124878  -0.489729
H    -0.299156  -1.308557  -0.767705
H    -0.565248  -3.549607  -3.454739
H    -2.933353  -3.323685  -3.183224
H    -3.478042  -1.913612  -2.347916
O    2.300602  0.160953  2.750978
H    1.728278  -0.679713  0.574229
Sr    2.590193  1.054131  4.894862
