27
Energy: -103698.16026 eV PBE+vdW (tier 2 basis)
N    0.957236  -1.330273  0.457999
C    0.512386  -0.966664  1.784282
C    1.689126  -1.168955  2.741498
O    2.734572  -1.726478  2.381158
H    -5.110389  2.690328  1.118812
H    0.247036  -1.063622  -0.225563
H    0.253775  0.114233  1.869216
C    -0.700161  -1.796670  2.325030
C    -2.000379  -1.656618  1.522341
C    -2.729525  -0.322770  1.716551
N    -4.034856  -0.370540  1.044001
C    -4.855126  0.670544  0.843397
N    -4.570665  1.869835  1.367904
N    -5.954567  0.519042  0.091305
H    -0.905174  -1.550493  3.381553
H    -0.403674  -2.854913  2.305438
H    -2.671589  -2.468115  1.845375
H    -1.803915  -1.822529  0.451941
H    -2.150817  0.511771  1.291740
H    -2.870474  -0.133592  2.794641
H    -4.399024  -1.291979  0.820773
H    -3.901686  1.970484  2.120029
H    -6.690200  1.215593  0.084920
H    -6.100008  -0.307989  -0.474675
O    1.620379  -0.756231  3.997903
H    0.773801  -0.311440  4.188609
Sr    3.021222  -2.215506  0.077461
