27
Energy: -103697.997815 eV PBE+vdW (tier 2 basis)
N    0.138101  -1.071147  0.278652
C    0.308589  -0.626183  1.671149
C    1.720056  -1.011990  2.125226
O    2.589231  -1.351036  1.302036
H    -1.038701  -2.648128  0.336494
H    -0.612424  -0.505104  -0.128274
H    0.330799  0.485420  1.730386
C    -0.773723  -1.079321  2.686285
C    -2.181589  -0.506254  2.445601
C    -3.054399  -1.184763  1.380627
N    -3.332583  -2.596764  1.658078
C    -2.756006  -3.646820  1.059194
N    -1.654819  -3.496114  0.310908
N    -3.301213  -4.865955  1.212416
H    -0.490453  -0.737040  3.696548
H    -0.795884  -2.178599  2.743771
H    -2.115402  0.562971  2.189605
H    -2.729676  -0.542576  3.398285
H    -2.624247  -1.123278  0.374812
H    -4.022594  -0.668767  1.333214
H    -4.056394  -2.799309  2.340927
H    -1.366932  -4.271810  -0.272573
H    -2.797027  -5.706438  0.959630
H    -4.243332  -4.984672  1.565414
O    2.080224  -0.958846  3.389839
H    1.341001  -0.695825  3.972116
Sr    2.108229  -1.364798  -0.975741
