27
Energy: -103697.436564 eV PBE+vdW (tier 2 basis)
N    -1.193693  1.247523  1.963342
C    -0.322481  0.612718  2.957016
C    1.031541  1.314397  2.836679
O    2.101438  0.800114  2.500252
H    -2.114327  0.807099  1.969813
H    -1.335167  2.235880  2.173363
H    -0.648338  0.761694  4.009040
C    -0.240927  -0.890003  2.670038
C    0.553220  -1.721214  3.704865
C    1.595253  -2.645197  3.073691
N    2.598745  -1.824642  2.367753
C    3.680982  -2.230678  1.748066
N    4.589405  -1.485186  1.129536
N    4.010875  -3.655539  1.669819
H    0.159379  -1.016763  1.652285
H    -1.272064  -1.264638  2.623159
H    -0.125323  -2.349390  4.295135
H    1.060552  -1.072406  4.434900
H    1.111463  -3.332861  2.360825
H    2.087696  -3.248792  3.851289
H    2.395973  -0.780491  2.374981
H    4.399116  -0.481197  1.174412
H    3.218029  -4.184533  1.288468
H    4.146784  -4.037009  2.613538
O    0.937041  2.606222  3.133322
H    1.808500  3.035478  3.012686
Sr    6.103053  -3.021321  0.224108
