27
Energy: -103699.410327 eV PBE+vdW (tier 2 basis)
N    0.510068  0.384372  1.878628
C    0.310066  -1.067452  1.849691
C    1.120281  -1.857982  2.879739
O    1.209905  -3.133487  2.751329
H    -0.365634  1.419015  0.421134
H    0.220964  0.763259  2.784530
H    0.654624  -1.436559  0.870622
C    -1.186570  -1.444951  2.022451
C    -2.152421  -0.563614  1.221105
C    -1.886665  -0.546990  -0.293984
N    -2.448306  0.626118  -0.963953
C    -1.847139  1.824958  -1.010768
N    -0.722460  2.049855  -0.324151
N    -2.380366  2.797449  -1.770179
H    -1.459954  -1.361283  3.085709
H    -1.302086  -2.503804  1.754340
H    -2.111689  0.464900  1.605144
H    -3.177816  -0.910533  1.410024
H    -2.313055  -1.432648  -0.780183
H    -0.810941  -0.562704  -0.516868
H    -3.386746  0.558113  -1.342248
H    -0.198141  2.898252  -0.500143
H    -3.096613  2.599624  -2.457716
H    -2.058585  3.754542  -1.702675
O    1.689528  -1.260092  3.862848
H    1.505545  0.602569  1.798961
Sr    2.508352  -3.298346  4.662685
