27
Energy: -103696.505597 eV PBE+vdW (tier 2 basis)
N    0.667792  -0.618044  -0.465840
C    -0.069787  -0.342489  0.811668
C    0.853207  0.475559  1.718369
O    1.847369  1.067015  1.253129
H    -0.032397  -0.770863  -1.199506
H    1.121130  -1.536281  -0.369566
H    -0.893009  0.350105  0.555884
C    -0.689400  -1.587706  1.476328
C    -1.662208  -2.340056  0.558190
C    -2.607956  -3.291524  1.335437
N    -3.678279  -3.808928  0.521778
C    -4.685825  -2.992143  0.024699
N    -4.920036  -1.762338  0.372343
N    -5.452680  -3.556737  -0.965963
H    -1.260472  -1.257725  2.363692
H    0.107595  -2.251663  1.849454
H    -1.117250  -2.926453  -0.197000
H    -2.296808  -1.618270  0.017555
H    -3.031485  -2.755695  2.202092
H    -2.050014  -4.142845  1.746614
H    -3.532884  -4.710026  0.081153
H    -4.335991  -1.460659  1.154483
H    -6.298822  -3.036983  -1.176115
H    -5.555587  -4.564631  -1.003209
O    0.598241  0.614903  2.990766
H    -0.179484  0.096978  3.284427
Sr    2.565788  1.166587  -0.936364
