27
Energy: -103696.883464 eV PBE+vdW (tier 2 basis)
N    -0.233990  -0.141076  -0.154917
C    0.166253  -0.894627  1.019719
C    1.605280  -1.467206  1.035815
O    1.955007  -2.382193  1.748837
H    -0.038422  -0.645262  -1.020284
H    0.239956  0.758583  -0.214881
H    0.148949  -0.198347  1.877040
C    -0.824973  -2.036345  1.306510
C    -2.221908  -1.507719  1.637986
C    -3.221931  -2.645604  1.821171
N    -4.570501  -2.098452  2.107353
C    -5.604099  -2.714371  2.663713
N    -6.791009  -2.221249  2.961789
N    -5.502486  -4.125712  3.003142
H    -0.423330  -2.644331  2.128453
H    -0.870653  -2.691860  0.420869
H    -2.551661  -0.843197  0.822565
H    -2.184163  -0.905606  2.560003
H    -2.916956  -3.292162  2.656891
H    -3.273028  -3.260836  0.908563
H    -4.705411  -1.124943  1.832598
H    -6.901814  -1.220616  2.785574
H    -5.072612  -4.660951  2.240665
H    -4.874332  -4.251448  3.806286
O    2.420409  -0.804340  0.191006
H    3.316561  -1.186551  0.285999
Sr    -8.089527  -4.109835  3.600258
