27
Energy: -103699.259175 eV PBE+vdW (tier 2 basis)
N    0.839907  -0.890241  0.603300
C    -0.069629  -0.355947  1.702033
C    0.156620  -1.278604  2.913268
O    -0.392537  -0.980542  4.001768
H    1.591701  -0.236112  0.355774
H    1.254616  -1.759585  1.026121
H    0.309492  0.636307  1.980851
C    -1.527596  -0.189973  1.241205
C    -2.319743  -1.392444  0.685206
C    -2.942421  -2.385317  1.690850
N    -2.121319  -3.573808  1.942452
C    -1.759143  -4.031503  3.160754
N    -2.095939  -3.578281  4.340495
N    -0.742466  -5.014954  3.205540
H    -1.526817  0.599150  0.474173
H    -2.064266  0.245695  2.096119
H    -1.750904  -1.954692  -0.075913
H    -3.154456  -0.953796  0.121763
H    -3.921494  -2.712109  1.315433
H    -3.123653  -1.882591  2.648640
H    -1.986123  -4.200346  1.153236
H    -2.910687  -2.963745  4.346413
H    -1.033577  -5.849850  3.716002
H    -0.318106  -5.263763  2.313540
O    0.899621  -2.307894  2.737533
H    0.328573  -1.126943  -0.255376
Sr    0.215945  -3.123473  5.040459
