27
Energy: -103699.205821 eV PBE+vdW (tier 2 basis)
N    0.100908  -1.288961  -0.198599
C    -0.268930  -0.374181  0.963104
C    1.083204  0.055634  1.571243
O    1.978762  -0.858059  1.624940
H    0.378643  -0.762017  -1.037963
H    0.921965  -1.843190  0.116960
H    -0.815413  0.485826  0.558580
C    -1.114900  -1.193720  1.961387
C    -1.932889  -0.431882  3.023857
C    -1.222389  0.527932  3.983163
N    -0.038595  -0.071424  4.610992
C    0.786979  0.556574  5.496691
N    2.099725  0.346142  5.396228
N    0.218836  1.382520  6.397780
H    -0.463075  -1.951100  2.426777
H    -1.855068  -1.765647  1.378241
H    -2.456013  -1.204098  3.605631
H    -2.718613  0.151118  2.523193
H    -1.958470  0.809052  4.748737
H    -0.926108  1.451060  3.462086
H    0.375179  -0.886076  4.173594
H    2.573346  0.563117  6.277948
H    0.793541  1.945455  7.012555
H    -0.763635  1.309084  6.635187
O    1.227277  1.213705  2.036775
H    -0.667917  -1.921753  -0.458979
Sr    3.251470  0.514290  3.256672
