27
Energy: -103697.568783 eV PBE+vdW (tier 2 basis)
N    -0.428236  0.640465  1.870025
C    0.300454  -0.474555  2.455940
C    1.795331  -0.361596  2.201622
O    2.589333  -1.307058  2.153699
H    -1.373183  0.690032  2.251371
H    0.020359  1.535639  2.058785
H    0.279774  -0.482090  3.572233
C    -0.324345  -1.818227  2.019116
C    -0.572363  -1.982002  0.510911
C    0.566723  -2.588576  -0.312668
N    0.847794  -3.985314  0.083857
C    1.925948  -4.476513  0.681979
N    2.099101  -5.700734  1.153492
N    3.089144  -3.641344  0.882777
H    -1.295652  -1.877726  2.529301
H    0.266008  -2.647610  2.437306
H    -0.798492  -0.994688  0.081223
H    -1.474687  -2.591111  0.352159
H    1.491227  -2.008876  -0.222953
H    0.295175  -2.602785  -1.376827
H    0.064650  -4.628635  -0.032490
H    1.298198  -6.327243  1.055755
H    3.430818  -3.287921  -0.017922
H    2.833101  -2.772694  1.431589
O    2.206747  0.900939  2.127470
H    3.182091  0.924422  2.049334
Sr    4.279141  -5.573664  2.056661
