27
Energy: -103696.957231 eV PBE+vdW (tier 2 basis)
N    1.115165  -0.667318  0.336462
C    0.129497  -0.213474  1.312654
C    0.771012  -0.121148  2.696278
O    1.802574  -0.682822  3.007705
H    1.099756  -0.092426  -0.503064
H    2.054055  -0.626732  0.734719
H    -0.289531  0.775075  1.073522
C    -1.062799  -1.219158  1.369003
C    -0.539833  -2.619408  1.704239
C    -1.504766  -3.745896  1.380318
N    -0.865403  -5.130414  1.444289
C    -0.393831  -5.524979  2.745839
N    -1.312379  -6.148340  3.451313
N    0.873970  -5.285828  3.075228
H    -1.524874  -1.217687  0.370342
H    -1.819000  -0.876309  2.088564
H    -0.250153  -2.667353  2.764656
H    0.373934  -2.745390  1.090559
H    -1.890812  -3.649106  0.354856
H    -2.365134  -3.746458  2.075895
H    -0.102890  -5.152945  0.760231
H    -1.058540  -6.362776  4.417357
H    1.458684  -4.659420  2.528194
H    1.262847  -5.614449  3.955897
O    0.025087  0.619667  3.540676
H    0.492977  0.656609  4.399546
Sr    -2.888152  -6.705530  1.758705
