27
Energy: -103696.889422 eV PBE+vdW (tier 2 basis)
N    -0.492933  -0.061490  -0.282684
C    -0.809457  0.104638  1.123178
C    0.261248  0.969375  1.791037
O    1.173905  1.503001  1.205597
H    -1.298511  0.087164  -0.884821
H    0.252263  0.580983  -0.558182
H    -1.764589  0.634423  1.286887
C    -0.934881  -1.279092  1.822579
C    0.362338  -2.082296  1.695577
C    0.244086  -3.551160  2.081066
N    -0.105145  -3.688035  3.519528
C    0.065991  -4.735816  4.307834
N    -0.203688  -4.852236  5.596418
N    0.606745  -5.971939  3.756403
H    -1.757100  -1.818209  1.327392
H    -1.234092  -1.109936  2.870333
H    1.176794  -1.617583  2.273719
H    0.668167  -2.047013  0.638268
H    1.197968  -4.066665  1.901777
H    -0.538830  -4.044060  1.482445
H    -0.536378  -2.858046  3.930567
H    -0.550800  -4.001702  6.044430
H    1.591406  -5.839292  3.494259
H    0.132412  -6.221430  2.881019
O    0.066736  1.066565  3.134513
H    0.742261  1.690639  3.467824
Sr    0.172144  -7.139079  6.085138
