27
Energy: -103698.257298 eV PBE+vdW (tier 2 basis)
N    0.513498  -0.566443  0.969793
C    -0.177691  -0.327914  2.229458
C    0.813260  -0.655007  3.343963
O    1.041039  -1.810970  3.783202
H    1.248867  0.105597  0.758057
H    0.847095  -1.517998  0.829980
H    -0.393241  0.747759  2.285425
C    -1.477689  -1.131502  2.326301
C    -2.496067  -0.579445  3.347066
C    -3.340135  -1.634481  4.081514
N    -2.603522  -2.239341  5.206535
C    -1.772496  -3.287033  5.204909
N    -0.907467  -3.629157  6.139277
N    -1.686202  -4.135489  4.061826
H    -1.205941  -2.176152  2.541426
H    -1.919361  -1.136071  1.321543
H    -3.183161  0.104638  2.831165
H    -1.993753  0.036396  4.110741
H    -3.706477  -2.422469  3.408086
H    -4.237226  -1.173424  4.512222
H    -2.539273  -1.646901  6.032203
H    -1.010279  -3.124803  7.022243
H    -2.236379  -3.830452  3.258920
H    -1.983177  -5.081964  4.316519
O    1.514391  0.387630  3.742439
H    2.239751  0.128615  4.348542
Sr    0.947456  -4.002188  4.614799
