27
Energy: -103698.188179 eV PBE+vdW (tier 2 basis)
N    1.680822  1.115789  1.163847
C    1.251174  0.439984  2.368476
C    2.321488  -0.583014  2.743338
O    3.368776  -0.704824  2.092117
H    1.000129  1.844292  0.937395
H    -5.256569  -3.004175  -0.072310
H    1.221158  1.123034  3.249541
C    -0.175461  -0.191797  2.321388
C    -0.376665  -1.309881  1.292452
C    -1.842972  -1.749398  1.248425
N    -2.038012  -2.867742  0.315810
C    -3.225481  -3.308036  -0.125890
N    -4.362815  -2.791749  0.355089
N    -3.276478  -4.257630  -1.071835
H    -0.864337  0.639967  2.109787
H    -0.462388  -0.548732  3.326629
H    0.253813  -2.177956  1.550589
H    -0.061977  -0.955750  0.300005
H    -2.470805  -0.908804  0.916174
H    -2.173140  -2.045647  2.258783
H    -1.227801  -3.441288  0.104129
H    -4.377730  -2.240612  1.203510
H    -4.140260  -4.740498  -1.288516
H    -2.455348  -4.524498  -1.600234
O    2.165264  -1.364015  3.803598
H    1.337246  -1.159887  4.278373
Sr    3.796526  0.893331  0.372612
