27
Energy: -103697.227293 eV PBE+vdW (tier 2 basis)
N    1.591020  0.302076  0.926272
C    1.142348  -0.365778  2.148838
C    2.300832  -1.179308  2.726475
O    2.507855  -2.382361  2.538472
H    2.219565  1.080932  1.120605
H    2.059517  -0.331814  0.278157
H    0.899334  0.421640  2.877264
C    -0.133322  -1.167827  1.834818
C    -0.888053  -1.758509  3.040338
C    -0.372921  -3.041692  3.697441
N    -0.796025  -4.295547  2.986522
C    -0.215585  -4.675486  1.705858
N    -1.085384  -5.357127  0.979086
N    1.027026  -4.345693  1.410691
H    0.090718  -1.930078  1.074040
H    -0.792271  -0.442997  1.338714
H    -1.950070  -1.913776  2.751951
H    -0.944084  -0.993238  3.829949
H    -0.812163  -3.136834  4.698947
H    0.715606  -3.025458  3.834648
H    -0.600066  -5.081472  3.618712
H    -0.711786  -5.747139  0.111460
H    1.401119  -4.603366  0.500134
H    1.591349  -3.638345  1.948112
O    3.149675  -0.414673  3.410860
H    3.933325  -0.944797  3.666138
Sr    -3.137211  -4.730495  1.961601
