27
Energy: -103699.075126 eV PBE+vdW (tier 2 basis)
N    0.675216  -1.562156  -0.266077
C    0.309458  -0.620365  0.861365
C    1.563647  -0.684189  1.788819
O    1.621860  0.204025  2.714444
H    0.930286  -1.080493  -1.135125
H    -0.048357  -2.257891  -0.478851
H    0.216188  0.390160  0.446200
C    -1.007587  -1.082890  1.525204
C    -1.296057  -0.533456  2.931359
C    -1.428422  0.990212  3.031684
N    -1.139559  1.441065  4.436527
C    -1.064361  2.867002  4.598362
N    0.127139  3.364690  4.404193
N    -2.179258  3.518800  4.960648
H    -0.981210  -2.180295  1.616246
H    -1.840013  -0.843318  0.846313
H    -0.505067  -0.874236  3.614428
H    -2.222341  -1.008618  3.284868
H    -2.431607  1.317653  2.717056
H    -0.702614  1.503075  2.389453
H    -1.832112  1.038877  5.073959
H    0.169095  4.385577  4.420959
H    -2.166874  4.512749  5.169545
H    -3.085457  3.064448  4.975407
O    2.380487  -1.578269  1.554013
H    1.552508  -2.024133  0.156995
Sr    1.630188  1.407836  4.608030
