27
Energy: -103698.34655 eV PBE+vdW (tier 2 basis)
N    -0.405592  0.209681  2.298048
C    0.216283  -1.137233  2.144664
C    1.690963  -0.974088  2.527480
O    1.956913  -0.485196  3.632217
H    0.009836  0.893575  1.658186
H    -1.391914  0.152900  2.028477
H    -0.174751  -1.680727  3.008703
C    -0.157754  -2.047630  0.971706
C    -0.091798  -3.541178  1.377785
C    -0.936512  -3.956716  2.611704
N    -0.256828  -3.801987  3.917065
C    -0.453283  -2.832641  4.835143
N    -1.386172  -1.900017  4.851079
N    0.547314  -2.638158  5.806043
H    0.442415  -1.863400  0.064792
H    -1.189927  -1.808345  0.672292
H    0.948869  -3.864149  1.539623
H    -0.449729  -4.135640  0.526488
H    -1.195867  -5.018491  2.521244
H    -1.894882  -3.420915  2.639734
H    0.404846  -4.537217  4.154134
H    -2.209809  -2.127644  4.291027
H    0.184181  -2.681451  6.759409
H    1.393098  -3.199828  5.713904
O    2.667947  -1.362327  1.739886
H    2.343949  -1.692341  0.877944
Sr    0.047090  0.141368  5.016035
