27
Energy: -103697.126025 eV PBE+vdW (tier 2 basis)
N    -0.636772  0.621613  0.341035
C    -0.103786  0.065195  1.621650
C    1.267596  -0.532454  1.335078
O    1.919802  -0.186948  0.327370
H    -1.123458  -0.194328  -0.151973
H    -1.478673  1.165254  0.583958
H    0.128003  0.922825  2.282300
C    -1.095404  -0.809381  2.417117
C    -1.479198  -2.226535  1.922473
C    -1.434084  -2.587551  0.435173
N    -2.103136  -1.644794  -0.509660
C    -3.438083  -1.183513  -0.193218
N    -3.526159  -0.114894  0.520663
N    -4.440698  -1.901220  -0.771850
H    -2.008647  -0.204842  2.480797
H    -0.733087  -0.883860  3.456339
H    -2.489329  -2.417737  2.308501
H    -0.845190  -2.982390  2.410127
H    -1.854015  -3.602293  0.343470
H    -0.390548  -2.664008  0.089366
H    -2.108245  -2.076860  -1.436012
H    -4.495622  0.125807  0.745423
H    -4.292100  -2.845967  -1.105609
H    -5.407135  -1.625814  -0.634948
O    1.819326  -1.378008  2.166032
H    1.231808  -1.591873  2.919671
Sr    1.184855  1.433507  -1.165174
