27
Energy: -103698.846073 eV PBE+vdW (tier 2 basis)
N    0.571311  1.228148  1.197111
C    0.322398  0.066708  2.094896
C    0.812308  -1.192196  1.380750
O    1.015776  -1.215492  0.164016
H    0.074615  2.040349  1.576735
H    1.562720  1.483515  1.260937
H    0.902921  0.161436  3.029186
C    -1.173735  -0.005940  2.504830
C    -2.235747  0.110790  1.391590
C    -2.898111  -1.174014  0.887254
N    -2.023403  -2.207630  0.303097
C    -1.866254  -2.337126  -1.053130
N    -1.643849  -1.250405  -1.789842
N    -1.906383  -3.587348  -1.554903
H    -1.320871  0.813872  3.221880
H    -1.337328  -0.923565  3.088864
H    -1.860840  0.702594  0.537094
H    -3.057194  0.731796  1.777701
H    -3.666014  -0.900987  0.150781
H    -3.422350  -1.649775  1.726917
H    -2.002569  -3.084155  0.814860
H    -1.854636  -1.447853  -2.772764
H    -1.606353  -3.778786  -2.503633
H    -2.336440  -4.355103  -1.051361
O    1.013241  -2.294113  2.077972
H    0.915350  -2.161782  3.041424
Sr    0.084585  0.400757  -1.333006
