27
Energy: -103698.936821 eV PBE+vdW (tier 2 basis)
N    1.488336  -0.180466  -0.328566
C    0.828537  -0.249348  1.032452
C    0.746042  -1.786879  1.297526
O    0.248739  -2.143829  2.428994
H    0.917868  0.292603  -1.037922
H    2.415214  0.258022  -0.311607
H    1.501805  0.224544  1.758633
C    -0.556335  0.422692  1.041954
C    -1.080950  0.682452  2.463787
C    -2.599123  0.854942  2.570692
N    -3.410821  -0.232845  1.997214
C    -3.979890  -1.238812  2.719722
N    -3.320998  -1.826937  3.722521
N    -5.218928  -1.620889  2.338751
H    -1.260391  -0.219873  0.489480
H    -0.500392  1.381033  0.502835
H    -0.613578  1.589601  2.874721
H    -0.763267  -0.134199  3.124023
H    -2.907436  1.772933  2.052687
H    -2.872483  0.980485  3.626658
H    -3.909243  0.008984  1.147143
H    -4.011060  -2.288783  4.325443
H    -5.625201  -2.485685  2.674559
H    -5.823950  -1.015534  1.795461
O    1.129698  -2.530558  0.392132
H    1.576049  -1.231807  -0.551764
Sr    -1.127216  -2.846532  4.026587
