27
Energy: -103699.387222 eV PBE+vdW (tier 2 basis)
N    0.104108  -1.551993  2.358492
C    0.556504  -0.252033  1.840656
C    1.897201  -0.318533  1.104341
O    2.646783  -1.355940  1.208453
H    0.909538  -2.052174  2.747096
H    -1.092801  -1.636659  3.776097
H    -0.167791  0.090903  1.085406
C    0.626034  0.821603  2.962636
C    -0.646362  1.667108  3.114234
C    -1.926838  0.960054  3.570759
N    -1.902277  0.535139  4.976807
C    -1.981396  -0.726064  5.430663
N    -1.672806  -1.754446  4.639591
N    -2.367127  -0.936756  6.702327
H    1.448307  1.516610  2.747643
H    0.885245  0.317192  3.906524
H    -0.869961  2.152731  2.151873
H    -0.433623  2.491033  3.812464
H    -2.160404  0.082501  2.956479
H    -2.773108  1.651967  3.455451
H    -1.980015  1.270075  5.673125
H    -1.924400  -2.693078  4.925058
H    -2.236398  -1.836753  7.146872
H    -2.868815  -0.230893  7.227124
O    2.264169  0.680868  0.385978
H    -0.231761  -2.138876  1.591408
Sr    4.207768  -0.402692  -0.255046
