27
Energy: -103698.080584 eV PBE+vdW (tier 2 basis)
N    0.964787  -1.508140  -0.063023
C    0.276649  -1.136076  1.153865
C    1.239862  -1.368414  2.319833
O    2.313192  -1.968075  2.170776
H    0.385508  -1.271870  -0.870065
H    -2.691625  0.760111  -1.661102
H    0.033034  -0.048822  1.197174
C    -1.036830  -1.938699  1.433817
C    -2.209545  -1.646489  0.484866
C    -2.952138  -0.336758  0.796639
N    -4.262627  -0.243885  0.139097
C    -4.593854  0.506506  -0.919491
N    -3.652945  1.070111  -1.690635
N    -5.886803  0.705075  -1.212742
H    -1.380997  -1.781771  2.471200
H    -0.779737  -3.003963  1.351809
H    -2.927519  -2.474466  0.579362
H    -1.876494  -1.664081  -0.565209
H    -2.370765  0.556621  0.530965
H    -3.142650  -0.265221  1.877493
H    -5.010248  -0.798836  0.545274
H    -3.889305  1.797932  -2.354214
H    -6.174467  1.055538  -2.118899
H    -6.618700  0.514878  -0.538465
O    0.948155  -0.933554  3.535875
H    0.101891  -0.449174  3.556044
Sr    3.031652  -2.469012  -0.031836
