27
Energy: -103697.951149 eV PBE+vdW (tier 2 basis)
N    -0.610897  0.968018  0.935086
C    -0.317713  -0.097395  1.908551
C    1.088123  -0.616649  1.573280
O    1.666099  -1.479428  2.247222
H    -1.517282  0.863879  0.480852
H    -0.585493  1.896012  1.356911
H    -0.280180  0.294332  2.935748
C    -1.328366  -1.268794  1.907327
C    -1.578336  -2.013666  0.582222
C    -0.479113  -2.945065  0.041590
N    -0.160198  -4.048190  0.965967
C    1.023618  -4.399818  1.468011
N    1.252506  -5.320547  2.387500
N    2.230585  -3.738848  1.040484
H    -2.290294  -0.863098  2.250506
H    -1.008588  -1.974681  2.687038
H    -1.808061  -1.312530  -0.234771
H    -2.500002  -2.603614  0.702954
H    0.443291  -2.399450  -0.181320
H    -0.824613  -3.384898  -0.904953
H    -0.961224  -4.591255  1.286840
H    0.423879  -5.776838  2.772373
H    2.189055  -2.730433  1.410567
H    2.297199  -3.683108  0.020464
O    1.582235  -0.123811  0.462726
H    0.835261  0.547653  0.197422
Sr    3.604570  -5.163640  2.628952
