27
Energy: -103697.938731 eV PBE+vdW (tier 2 basis)
N    -0.110308  0.537524  -0.480170
C    0.039305  0.110919  0.957402
C    1.361689  -0.686096  1.119196
O    2.325473  -0.306032  0.334481
H    -0.503241  -0.250920  -1.008501
H    -0.843233  1.253424  -0.525372
H    0.211602  1.040643  1.526579
C    -1.189669  -0.572304  1.565140
C    -1.540064  -1.982061  1.023186
C    -1.670128  -3.052025  2.104594
N    -0.327412  -3.419075  2.699897
C    0.335365  -4.642984  2.092048
N    -0.282935  -5.183149  1.133835
N    1.470276  -4.944816  2.774330
H    -2.051895  0.099340  1.447240
H    -1.017756  -0.609109  2.650873
H    -0.811452  -2.335048  0.275254
H    -2.504767  -1.955821  0.500352
H    -2.084383  -3.978295  1.694079
H    -2.298258  -2.705601  2.934360
H    -0.424795  -3.589830  3.708470
H    0.180731  -6.001955  0.734077
H    2.027811  -5.730838  2.458456
H    1.970307  -4.245461  3.313405
O    1.471459  -1.570219  1.972237
H    0.345947  -2.599985  2.559806
Sr    2.289019  1.087036  -1.366880
