27
Energy: -103698.770038 eV PBE+vdW (tier 2 basis)
N    -1.309612  0.228624  2.822140
C    -0.060681  -0.385135  2.279744
C    -0.009751  -0.174920  0.766740
O    -0.957343  0.293170  0.130585
H    -1.041275  0.946785  3.499945
H    -1.801108  -0.472043  3.381208
H    0.791096  0.184092  2.686332
C    0.179630  -1.870241  2.699287
C    -0.364951  -3.058851  1.879969
C    -1.883112  -3.334846  1.825815
N    -2.535652  -2.789509  0.629921
C    -3.397530  -1.760222  0.594732
N    -3.974023  -1.138366  1.598733
N    -3.610473  -1.126608  -0.651109
H    -0.149863  -1.953106  3.746859
H    1.269284  -2.012703  2.756124
H    0.098896  -3.946200  2.333248
H    0.027301  -3.035825  0.851332
H    -2.398416  -2.958622  2.718489
H    -2.052120  -4.418994  1.822481
H    -2.337034  -3.269510  -0.244190
H    -3.993643  -1.673718  2.467490
H    -4.595965  -1.116646  -0.919893
H    -3.024260  -1.441044  -1.423997
O    1.083106  -0.506023  0.104478
H    1.805106  -0.827260  0.679095
Sr    -3.093470  1.056213  0.942641
