27
Energy: -103697.944168 eV PBE+vdW (tier 2 basis)
N    -0.086553  -0.305671  -0.001388
C    0.021114  -0.035009  1.452899
C    1.469099  -0.032932  1.929516
O    1.707763  0.139297  3.176460
H    -0.957120  -1.736057  -0.233218
H    -0.611436  0.439599  -0.461681
H    -0.316474  0.994717  1.665250
C    -0.892375  -0.951907  2.298563
C    -0.578628  -2.460689  2.362892
C    -0.382205  -3.223982  1.043897
N    -1.333280  -2.742308  -0.014867
C    -1.538530  -3.567294  -1.244484
N    -2.763785  -3.777482  -1.479480
N    -0.385778  -3.843048  -1.916938
H    -1.918448  -0.788007  1.935324
H    -0.894719  -0.572734  3.328522
H    -1.397413  -2.931987  2.925072
H    0.324147  -2.633426  2.966770
H    -0.530158  -4.300396  1.189896
H    0.628919  -3.062701  0.645114
H    -2.294270  -2.670001  0.349953
H    -2.962403  -4.315618  -2.326779
H    -0.449917  -4.458442  -2.721146
H    0.509533  -3.854366  -1.443328
O    2.434571  -0.141240  1.089226
H    0.848200  -0.302078  -0.420042
Sr    3.977931  0.434814  2.788263
