27
Energy: -103698.638369 eV PBE+vdW (tier 2 basis)
N    -0.254310  0.774623  1.884343
C    -0.433228  -0.700190  2.036228
C    0.915083  -1.386542  1.794050
O    1.903023  -0.778989  1.367297
H    -0.155186  1.180187  2.820054
H    -1.130684  1.174710  1.536970
H    -0.688793  -0.930983  3.085220
C    -1.612085  -1.277512  1.193472
C    -1.718768  -0.913819  -0.296911
C    -0.621696  -1.521181  -1.198985
N    -0.361973  -0.799362  -2.445640
C    0.462252  0.277736  -2.489716
N    0.686969  1.018727  -1.395355
N    1.079584  0.578841  -3.644121
H    -2.533845  -0.949312  1.694354
H    -1.608893  -2.373353  1.304349
H    -1.770036  0.179679  -0.422471
H    -2.703278  -1.257051  -0.643918
H    -0.897215  -2.547282  -1.470662
H    0.335600  -1.592924  -0.662320
H    -0.652383  -1.231953  -3.316607
H    -0.135982  0.886415  -0.797035
H    1.435922  1.515840  -3.786559
H    1.065083  -0.042912  -4.444091
O    1.046482  -2.668725  2.067690
H    0.242412  -3.071257  2.450757
Sr    2.060790  1.425687  0.490351
