27
Energy: -103698.754218 eV PBE+vdW (tier 2 basis)
N    1.095744  -1.652999  0.291424
C    0.507542  -0.731492  1.304732
C    1.664971  -0.071171  2.045665
O    2.757098  -0.635041  2.181781
H    0.340110  -2.234745  -0.084699
H    1.426267  -1.108805  -0.513303
H    -0.095940  0.059712  0.828492
C    -0.422495  -1.579252  2.226094
C    -0.800755  -1.112194  3.638801
C    0.286751  -1.206697  4.747676
N    1.375639  -2.144563  4.470100
C    1.300941  -3.488631  4.263498
N    2.233795  -4.047122  3.489810
N    0.247813  -4.146828  4.790778
H    0.022127  -2.583747  2.292045
H    -1.355903  -1.706766  1.659501
H    -1.656109  -1.736201  3.928638
H    -1.195546  -0.085465  3.629618
H    -0.201498  -1.431381  5.707553
H    0.776564  -0.238970  4.899382
H    2.311174  -1.759892  4.442606
H    2.278201  -5.059177  3.634886
H    0.115690  -5.133303  4.599875
H    -0.240303  -3.778845  5.600505
O    1.496259  1.116059  2.592473
H    0.631231  1.516528  2.375769
Sr    3.168271  -2.922766  1.537300
