27
Energy: -103699.384603 eV PBE+vdW (tier 2 basis)
N    0.366442  -0.364250  0.190994
C    -0.092108  -0.018031  1.598665
C    0.914402  -0.678611  2.550062
O    1.467380  -1.760381  2.157335
H    1.069256  0.296847  -0.166466
H    0.815754  -1.301207  0.261977
H    -0.053061  1.070883  1.715297
C    -1.529263  -0.549248  1.809465
C    -1.953944  -0.667654  3.287673
C    -1.713504  -2.080004  3.848758
N    -1.823175  -2.134193  5.299914
C    -1.001032  -2.825296  6.132648
N    0.259497  -3.112147  5.797563
N    -1.528872  -3.179270  7.326340
H    -1.616827  -1.537487  1.326854
H    -2.211522  0.125640  1.274802
H    -3.023596  -0.431036  3.359290
H    -1.428839  0.074228  3.903569
H    -0.724484  -2.465846  3.579360
H    -2.436182  -2.780115  3.396522
H    -2.719843  -1.858063  5.688248
H    0.597498  -3.829365  6.446874
H    -0.936870  -3.491160  8.085443
H    -2.524921  -3.148828  7.508182
O    1.078007  -0.169148  3.692452
H    -0.411415  -0.395881  -0.481845
Sr    2.123941  -2.162725  4.552552
