27
Energy: -103697.913888 eV PBE+vdW (tier 2 basis)
N    -0.821142  0.303319  -0.124803
C    -0.545661  0.291616  1.319180
C    0.968297  0.502303  1.465015
O    1.512130  0.800470  2.536673
H    -1.152255  1.210580  -0.454004
H    -1.507238  -0.397277  -0.403943
H    -1.048463  1.103054  1.866220
C    -0.977243  -1.069119  1.931761
C    -0.431953  -1.387747  3.336650
C    0.891371  -2.182554  3.301869
N    1.680572  -2.007687  4.533044
C    2.764798  -1.251239  4.704480
N    3.335763  -0.929400  5.852206
N    3.446099  -0.676451  3.569720
H    -0.697035  -1.870996  1.228907
H    -2.074533  -1.060866  1.965007
H    -1.180526  -1.972598  3.886822
H    -0.281413  -0.456827  3.899229
H    1.517118  -1.884717  2.454003
H    0.697796  -3.256759  3.182589
H    1.263681  -2.392233  5.380085
H    2.863973  -1.271113  6.691200
H    2.774165  -0.015035  3.049101
H    3.700587  -1.399919  2.889472
O    1.640925  0.271648  0.361580
H    0.872903  0.140159  -0.317439
Sr    5.109422  0.455960  5.116357
