27
Energy: -103697.816669 eV PBE+vdW (tier 2 basis)
N    -0.968711  0.428362  1.062411
C    -0.079241  -0.410376  1.892089
C    1.212170  -0.646849  1.111834
O    1.379745  -0.347322  -0.060039
H    -1.796944  0.686403  1.603429
H    -0.500954  1.301669  0.810070
H    0.209928  0.100252  2.825446
C    -0.768955  -1.735586  2.304821
C    -0.981359  -2.828284  1.240903
C    -1.977378  -2.534713  0.104683
N    -1.470229  -1.476426  -0.775449
C    -1.006642  -1.580072  -1.998505
N    -0.206528  -0.720432  -2.620668
N    -1.406937  -2.673987  -2.882851
H    -1.733461  -1.473707  2.768593
H    -0.165013  -2.173318  3.110245
H    -1.359462  -3.718547  1.764425
H    -0.016199  -3.127620  0.801622
H    -2.943798  -2.204374  0.512802
H    -2.165070  -3.453304  -0.466220
H    -1.255591  -0.569504  -0.206021
H    0.251007  -0.074537  -1.967501
H    -0.819562  -3.498146  -2.713911
H    -2.370200  -2.973252  -2.704652
O    2.140454  -1.228211  1.880466
H    2.962077  -1.334371  1.359658
Sr    -0.460698  -1.233558  -4.873142
