27
Energy: -103697.788434 eV PBE+vdW (tier 2 basis)
N    0.356454  0.971715  1.371918
C    -0.309936  -0.015787  2.295432
C    0.695053  -0.505828  3.358007
O    1.938737  -0.527464  2.986519
H    -0.192231  1.023540  0.507095
H    0.257747  1.908288  1.780695
H    -1.135655  0.484696  2.820674
C    -0.872624  -1.214685  1.482788
C    -2.395813  -1.158429  1.235074
C    -3.226146  -2.035193  2.197218
N    -2.818081  -1.943457  3.600184
C    -2.964066  -0.823936  4.349248
N    -3.565632  0.281042  4.186983
N    -2.112411  -0.868147  5.580947
H    -0.610591  -2.154685  1.988061
H    -0.341478  -1.251355  0.517938
H    -2.628609  -1.507103  0.220012
H    -2.738988  -0.113687  1.274043
H    -3.121217  -3.091438  1.922164
H    -4.295024  -1.796772  2.098761
H    -2.335968  -2.743370  3.993502
H    -4.155585  0.328141  3.353200
H    -2.285469  -1.688821  6.176043
H    -2.333274  -0.019499  6.118691
O    0.301912  -0.885951  4.467231
H    -1.084376  -0.853202  5.241661
Sr    2.919053  0.394943  1.251129
