27
Energy: -103697.453185 eV PBE+vdW (tier 2 basis)
N    -2.056887  0.137647  1.455750
C    -0.814331  -0.165082  2.125239
C    0.391156  0.731403  1.816510
O    1.319695  0.915584  2.616098
H    -2.372297  1.092828  1.615280
H    -2.009316  -0.016718  0.448865
H    -0.984195  -0.030094  3.207552
C    -0.463642  -1.653681  1.860902
C    0.789219  -2.264386  2.506630
C    0.861408  -2.244718  4.040096
N    1.336948  -0.935434  4.532617
C    1.789600  -0.647673  5.730234
N    2.260993  0.518590  6.157789
N    1.817373  -1.657101  6.791656
H    -0.379306  -1.792603  0.772461
H    -1.356353  -2.216486  2.169371
H    1.713766  -1.825005  2.101720
H    0.817640  -3.320908  2.206588
H    1.557562  -3.027351  4.375652
H    -0.127836  -2.466028  4.473900
H    1.335215  -0.146011  3.810108
H    2.277718  1.245976  5.438944
H    2.425693  -2.438011  6.518091
H    0.889368  -2.080054  6.907878
O    0.366933  1.295725  0.617559
H    1.177271  1.832756  0.495461
Sr    2.759308  0.172088  8.417004
