27
Energy: -103699.092904 eV PBE+vdW (tier 2 basis)
N    1.199099  -0.692347  0.104612
C    -0.220400  -0.165843  0.278398
C    -0.034856  1.269409  0.816833
O    -0.907551  2.137580  0.564356
H    1.599297  -0.441163  -0.809199
H    1.760647  -0.214194  0.843376
H    -0.703941  -0.151781  -0.705558
C    -0.959085  -1.092863  1.268722
C    -2.496182  -1.004008  1.370787
C    -3.148768  0.278959  1.915744
N    -2.484554  0.751981  3.138195
C    -2.105583  2.017959  3.411770
N    -1.150258  2.409351  4.223974
N    -2.674230  3.092504  2.686495
H    -0.490856  -0.979482  2.259449
H    -0.751873  -2.128849  0.954870
H    -2.800169  -1.849290  2.006133
H    -2.948758  -1.202678  0.388677
H    -4.212102  0.074553  2.104725
H    -3.081869  1.066184  1.156361
H    -2.071787  0.040152  3.734602
H    -0.766605  1.668924  4.815171
H    -3.074767  3.775722  3.331859
H    -3.361744  2.840744  1.979032
O    0.992571  1.474435  1.546872
H    1.262546  -1.713514  0.211422
Sr    -0.047544  3.645016  2.351190
