27
Energy: -103698.17959 eV PBE+vdW (tier 2 basis)
N    -0.469295  0.262506  1.512589
C    0.152657  -0.585514  2.575303
C    1.533353  0.041719  2.813932
O    1.542096  1.254219  3.061199
H    0.129557  0.283127  0.681380
H    -1.337268  -0.188489  1.212613
H    -0.338249  -0.284259  3.517258
C    -0.118008  -2.098283  2.505800
C    -1.172355  -2.500277  3.564397
C    -2.669301  -2.210094  3.319996
N    -3.109856  -0.877579  2.827392
C    -2.869705  0.352389  3.337910
N    -2.127006  0.703647  4.359396
N    -3.315185  1.460629  2.567277
H    0.790345  -2.679718  2.730381
H    -0.414259  -2.395698  1.489468
H    -0.854023  -2.089153  4.535190
H    -1.136034  -3.590339  3.702159
H    -3.212651  -2.447010  4.247192
H    -3.041082  -2.904669  2.556846
H    -3.904184  -0.937208  2.194520
H    -1.948471  -0.048234  5.027010
H    -3.931797  2.066953  3.112531
H    -3.758398  1.236420  1.676141
O    2.655537  -0.635473  2.806011
H    2.531019  -1.578928  2.581424
Sr    -0.686939  2.369834  3.099382
