27
Energy: -103699.002963 eV PBE+vdW (tier 2 basis)
N    0.860692  -0.449103  0.430156
C    0.388190  -0.328407  1.865753
C    1.440086  -1.209587  2.631184
O    1.428025  -1.156644  3.913369
H    1.287096  0.410356  0.067777
H    0.126661  -0.748388  -0.220985
H    0.482238  0.722107  2.169878
C    -1.077850  -0.811727  1.987715
C    -1.920572  -0.247532  3.147547
C    -1.437299  -0.661883  4.535477
N    -2.348609  -0.316251  5.603282
C    -1.983444  -0.431743  6.907535
N    -0.745035  -0.823793  7.219390
N    -2.920771  -0.134270  7.832150
H    -1.096765  -1.912698  2.005173
H    -1.601723  -0.512338  1.067291
H    -2.946545  -0.614583  2.991789
H    -1.967487  0.849771  3.085159
H    -0.491597  -0.137547  4.727280
H    -1.242535  -1.754506  4.532491
H    -3.333460  -0.211077  5.384473
H    -0.643675  -0.783456  8.237969
H    -3.818674  0.262236  7.582810
H    -2.724424  -0.220152  8.820781
O    2.190999  -1.895004  1.931063
H    1.614326  -1.213885  0.542227
Sr    1.313946  -1.572217  6.122054
