27
Energy: -103699.423265 eV PBE+vdW (tier 2 basis)
N    -0.554057  0.646685  1.539629
C    0.218633  0.154817  2.686273
C    1.726587  0.409813  2.579700
O    2.256909  0.726931  1.454068
H    -0.509429  1.666392  1.491369
H    -0.133512  0.310989  0.668684
H    -0.109759  0.703214  3.583302
C    -0.015422  -1.352667  2.949780
C    -1.401518  -1.729143  3.512513
C    -2.526035  -2.022746  2.514796
N    -2.972544  -0.824354  1.803494
C    -4.167583  -0.681728  1.235406
N    -4.528891  0.517696  0.740032
N    -5.031664  -1.705569  1.148336
H    0.737572  -1.670282  3.682834
H    0.193316  -1.917467  2.025771
H    -1.739323  -0.966774  4.231094
H    -1.277660  -2.652331  4.095448
H    -3.376681  -2.434769  3.077026
H    -2.194855  -2.793641  1.797069
H    -2.226228  -0.109345  1.629454
H    -5.349382  0.623986  0.157607
H    -5.999717  -1.557138  0.891817
H    -4.740313  -2.657967  1.323218
O    2.453520  0.292607  3.632227
H    -4.025295  1.355806  0.996413
Sr    4.367786  0.855369  2.459966
