27
Energy: -103697.88333 eV PBE+vdW (tier 2 basis)
N    0.345477  0.351114  0.819185
C    -0.823585  -0.056131  1.677556
C    -0.490074  0.221480  3.168320
O    0.288334  1.242549  3.369665
H    1.026660  -0.417372  0.814391
H    0.025896  0.402545  -0.153893
H    -1.626269  0.664177  1.443261
C    -1.388149  -1.454556  1.402887
C    -0.498715  -2.669250  1.776957
C    -1.171770  -3.659747  2.728312
N    -1.170437  -3.156463  4.163122
C    -2.235153  -3.791700  5.013583
N    -1.894994  -4.914909  5.478227
N    -3.382316  -3.052545  5.008389
H    -1.660664  -1.511703  0.339577
H    -2.346849  -1.512099  1.938296
H    0.469277  -2.357669  2.205828
H    -0.242529  -3.235686  0.872309
H    -0.671098  -4.633544  2.740316
H    -2.220721  -3.821947  2.451962
H    -0.286754  -3.432560  4.609919
H    -2.596359  -5.376010  6.063295
H    -4.152864  -3.392494  5.575733
H    -3.332230  -2.041031  4.930659
O    -0.987823  -0.461341  4.065941
H    -1.210485  -2.096920  4.159016
Sr    1.422125  2.469081  1.942387
