27
Energy: -103699.25041 eV PBE+vdW (tier 2 basis)
N    0.041380  0.539583  -0.180867
C    -0.477922  0.121137  1.172021
C    0.697866  0.105872  2.192341
O    1.610943  1.013321  1.969044
H    0.448432  -0.286713  -0.635072
H    -0.762480  0.774785  -0.772481
H    -1.122866  0.949819  1.510755
C    -1.329617  -1.152423  1.174565
C    -0.584802  -2.468341  0.838305
C    -0.875855  -3.603454  1.826182
N    -0.373095  -3.240008  3.151047
C    -0.355051  -4.031448  4.222531
N    0.236317  -3.596750  5.348015
N    -0.904949  -5.254863  4.192217
H    -2.176080  -1.011508  0.487307
H    -1.782451  -1.216397  2.174071
H    0.506812  -2.315802  0.816726
H    -0.864462  -2.825118  -0.160913
H    -0.384639  -4.524917  1.476835
H    -1.962912  -3.789982  1.864595
H    0.006973  -2.281214  3.246463
H    0.708047  -2.700909  5.368610
H    -0.831523  -5.886733  4.979431
H    -1.424502  -5.580212  3.388395
O    0.707642  -0.673856  3.139989
H    0.173432  -4.112196  6.216198
Sr    1.913933  2.316580  0.242161
