27
Energy: -103698.284651 eV PBE+vdW (tier 2 basis)
N    0.861386  0.992534  2.235250
C    0.833729  -0.207797  3.024463
C    2.206173  -0.855045  3.147389
O    2.374169  -1.877207  3.850897
H    -0.065983  1.306930  1.958246
H    1.355140  1.770244  2.669920
H    0.554752  -0.060112  4.096140
C    -0.172509  -1.223710  2.411391
C    -1.593199  -1.161976  2.997044
C    -1.921576  -2.187640  4.078864
N    -1.073347  -2.039617  5.322117
C    -1.485346  -2.917393  6.391561
N    -0.783281  -4.015734  6.471721
N    -2.492369  -2.523260  7.180594
H    0.215340  -2.254153  2.483106
H    -0.194228  -1.013075  1.333123
H    -2.322417  -1.339881  2.194160
H    -1.813983  -0.145860  3.362972
H    -1.767323  -3.210271  3.699542
H    -2.987946  -2.110647  4.341272
H    -1.128294  -1.064245  5.631602
H    -1.117265  -4.686552  7.167313
H    -2.794530  -3.082760  7.973379
H    -3.042137  -1.695146  6.978546
O    3.182059  -0.267932  2.510123
H    4.032703  -0.734495  2.660336
Sr    1.213642  -3.506713  5.124182
