27
Energy: -103698.861713 eV PBE+vdW (tier 2 basis)
N    -0.396814  0.019307  1.103632
C    0.125592  -0.090577  2.494803
C    1.444276  -0.867482  2.413158
O    1.555494  -1.804267  1.614769
H    -1.340214  0.413871  1.151554
H    0.149651  0.732699  0.608592
H    0.278708  0.907335  2.936467
C    -0.803142  -0.932640  3.415090
C    -2.323816  -0.678397  3.314263
C    -3.095040  -1.925033  2.865537
N    -2.706088  -2.346715  1.497957
C    -2.811118  -3.702275  1.082122
N    -2.062312  -4.001440  0.046922
N    -3.579329  -4.541047  1.791536
H    -0.465532  -0.768103  4.446392
H    -0.612405  -1.998709  3.215113
H    -2.573741  0.173624  2.662017
H    -2.714709  -0.387460  4.297745
H    -4.177450  -1.735549  2.932136
H    -2.857192  -2.750717  3.549568
H    -3.140034  -1.748937  0.791814
H    -2.254238  -4.925341  -0.346017
H    -3.592734  -5.533987  1.581089
H    -4.285325  -4.207717  2.438345
O    2.437062  -0.600055  3.231766
H    2.272561  0.177984  3.800079
Sr    -0.167321  -2.414570  -0.001131
