27
Energy: -103697.709971 eV PBE+vdW (tier 2 basis)
N    0.307885  0.366145  0.419233
C    0.352303  -0.072060  1.823269
C    1.724853  -0.760966  2.030596
O    2.149617  -1.135874  3.125862
H    0.359311  1.378329  0.317027
H    -0.520393  0.040320  -0.077083
H    0.341030  0.792475  2.505387
C    -0.854515  -0.975539  2.164862
C    -0.934029  -1.502654  3.613259
C    -0.372958  -2.925520  3.759595
N    -0.196031  -3.345807  5.162535
C    0.889653  -3.068169  5.883325
N    1.936091  -2.366710  5.533792
N    1.008061  -3.641351  7.221574
H    -0.888093  -1.815572  1.451389
H    -1.751584  -0.374499  1.964702
H    -1.983107  -1.503886  3.938773
H    -0.399723  -0.819652  4.288675
H    0.602595  -3.022753  3.267540
H    -1.046167  -3.658139  3.297221
H    -0.970817  -3.822205  5.616604
H    1.898118  -1.868795  4.612062
H    0.632875  -4.593838  7.269490
H    0.468979  -3.088145  7.897112
O    2.413607  -0.902052  0.924728
H    1.804710  -0.447532  0.235552
Sr    3.574507  -2.928926  7.093111
