27
Energy: -103697.245912 eV PBE+vdW (tier 2 basis)
N    -0.383195  -0.949236  -0.107728
C    -0.405217  -0.596051  1.297588
C    0.871597  0.036715  1.863763
O    0.861331  1.036711  2.585639
H    0.262085  -1.715108  -0.302934
H    -0.130302  -0.165906  -0.708589
H    -1.160137  0.197098  1.415597
C    -0.858448  -1.836047  2.107225
C    -0.632647  -1.894141  3.626955
C    -1.025624  -0.695003  4.504391
N    -2.355219  -0.115069  4.236658
C    -2.572316  1.115789  3.780598
N    -1.710194  1.998299  3.330812
N    -3.939592  1.628546  3.805733
H    -0.340785  -2.709771  1.685359
H    -1.920139  -1.984024  1.865496
H    0.431765  -2.069822  3.845999
H    -1.150634  -2.791363  3.995018
H    -0.300060  0.117896  4.409972
H    -1.024343  -1.007161  5.558087
H    -3.164845  -0.691562  4.456483
H    -0.738557  1.651979  3.138738
H    -4.456571  1.304619  2.980215
H    -4.466082  1.299690  4.621162
O    1.991975  -0.584262  1.501361
H    2.761110  -0.116027  1.886948
Sr    -2.878126  4.024978  3.423125
