27
Energy: -103697.572918 eV PBE+vdW (tier 2 basis)
N    -0.836992  -0.976554  -0.516430
C    -0.324650  -0.784000  0.819116
C    1.096257  -1.286279  1.105163
O    1.838765  -0.773909  1.956626
H    -0.980544  -1.959509  -0.746441
H    -0.245172  -0.564036  -1.235257
H    -0.271225  0.304168  0.995835
C    -1.332895  -1.398989  1.826436
C    -1.057510  -1.294855  3.334058
C    -0.924677  0.115768  3.922598
N    0.424977  0.664817  3.696137
C    0.925555  1.708447  4.310928
N    0.375815  2.525746  5.199302
N    2.321707  2.063938  4.039620
H    -1.446933  -2.465494  1.580169
H    -2.296973  -0.927705  1.587585
H    -0.178602  -1.888507  3.629837
H    -1.907218  -1.767697  3.845372
H    -1.101257  0.078242  5.008721
H    -1.672440  0.796935  3.484273
H    1.032288  0.145601  2.989449
H    -0.612768  2.347279  5.382636
H    2.396724  2.462026  3.095846
H    2.907490  1.221568  4.013936
O    1.474300  -2.320359  0.368300
H    2.381284  -2.588807  0.623307
Sr    2.187959  3.803725  5.977511
