27
Energy: -103697.551028 eV PBE+vdW (tier 2 basis)
N    1.692544  -0.912917  2.001707
C    0.459267  -0.248545  1.434612
C    1.380759  0.430611  2.383604
O    2.117625  1.507751  2.092081
H    2.471795  -0.953570  1.340895
H    -4.411600  -3.394842  -2.063662
H    0.557676  0.133515  0.412922
C    -0.868598  -0.897637  1.747594
C    -1.088218  -2.169484  0.912268
C    -2.417534  -2.859903  1.242125
N    -2.616697  -4.131637  0.533812
C    -3.307093  -4.317733  -0.597518
N    -3.715239  -3.277721  -1.337761
N    -3.605226  -5.563578  -0.997521
H    -1.670559  -0.167351  1.554083
H    -0.925383  -1.146282  2.818309
H    -0.260277  -2.869447  1.101977
H    -1.045778  -1.924258  -0.161477
H    -3.279183  -2.210387  1.030682
H    -2.471047  -3.090395  2.315095
H    -2.165706  -4.951435  0.927574
H    -3.342780  -2.348772  -1.195505
H    -3.922644  -5.752266  -1.940660
H    -3.536205  -6.352540  -0.366434
O    1.024198  0.527070  3.837579
H    1.011806  -0.378376  4.194951
Sr    2.369006  2.549420  3.981572
