27
Energy: -103697.175823 eV PBE+vdW (tier 2 basis)
N    -1.675725  -0.139701  -0.367212
C    -1.119245  -0.185208  0.988187
C    0.348497  -0.592362  0.838914
O    0.880729  -1.610200  1.277255
H    -1.105869  0.444308  -0.980183
H    -2.609773  0.271660  -0.356112
H    -1.096916  0.802073  1.500599
C    -1.980348  -1.149083  1.827269
C    -1.806991  -1.086254  3.356935
C    -0.610040  -1.776364  4.015906
N    -0.818809  -3.244479  4.266278
C    -0.850881  -4.201149  3.168141
N    -1.646131  -5.219324  3.449427
N    -0.133104  -3.990002  2.082486
H    -1.879693  -2.165081  1.423858
H    -3.019647  -0.858018  1.616141
H    -2.736860  -1.465587  3.832940
H    -1.772268  -0.028454  3.660415
H    -0.454053  -1.352903  5.016671
H    0.316855  -1.607106  3.453986
H    -0.055421  -3.555642  4.879825
H    -1.635244  -5.977728  2.764453
H    -0.194564  -4.647712  1.308496
H    0.326702  -3.072382  1.867138
O    1.026615  0.319189  0.148442
H    1.953562  0.022018  0.035182
Sr    -2.994386  -4.328306  5.166036
