27
Energy: -103697.687412 eV PBE+vdW (tier 2 basis)
N    0.943511  -1.368808  0.191499
C    0.027183  -0.519267  1.036152
C    0.848664  0.431082  1.958607
O    2.112761  0.538520  1.679429
H    0.453639  -1.605052  -0.677244
H    1.035038  -2.275234  0.666436
H    -0.473566  0.163655  0.329912
C    -1.033143  -1.337373  1.814181
C    -2.489765  -1.267361  1.328087
C    -3.147793  0.135192  1.326757
N    -2.710190  1.023675  2.407571
C    -2.874467  0.722659  3.721464
N    -3.609373  -0.045945  4.402291
N    -1.905340  1.526629  4.567893
H    -0.990126  -1.035459  2.868037
H    -0.731421  -2.396193  1.809243
H    -3.068393  -1.945183  1.970467
H    -2.588617  -1.676294  0.311226
H    -4.240696  0.031487  1.356882
H    -2.929615  0.677010  0.398278
H    -1.887277  1.578071  2.190816
H    -4.286191  -0.595215  3.868550
H    -1.971406  1.141996  5.520449
H    -2.159157  2.523985  4.601005
O    0.275423  1.064750  2.846626
H    -0.937841  1.426032  4.181154
Sr    3.338982  -0.323166  0.080619
