27
Energy: -103697.350353 eV PBE+vdW (tier 2 basis)
N    0.261825  -1.251717  -0.312174
C    0.102889  -0.372535  0.853316
C    1.483082  0.077504  1.322580
O    2.470462  -0.646086  1.410065
H    0.815889  -0.794720  -1.038890
H    -0.654828  -1.424860  -0.728983
H    -0.470277  0.545355  0.641307
C    -0.650567  -1.106305  1.996685
C    0.093778  -2.249167  2.717382
C    0.539168  -3.376404  1.787705
N    1.369557  -4.409303  2.490135
C    2.709925  -4.064201  2.918834
N    3.134020  -4.880427  3.872076
N    3.336678  -3.033393  2.383060
H    -1.587101  -1.488975  1.562466
H    -0.949700  -0.362067  2.747114
H    -0.586448  -2.650666  3.492045
H    0.962280  -1.831324  3.250813
H    1.059674  -2.972467  0.907054
H    -0.332488  -3.915362  1.392824
H    1.481878  -5.199656  1.843042
H    4.113112  -4.761978  4.139129
H    4.249427  -2.764010  2.741756
H    2.887195  -2.328481  1.763790
O    1.498100  1.368311  1.654944
H    2.398663  1.612845  1.954142
Sr    1.087643  -5.606800  4.784429
