27
Energy: -103697.751173 eV PBE+vdW (tier 2 basis)
N    -0.015869  1.627830  1.035263
C    0.132103  0.504570  2.028741
C    1.447870  -0.259212  1.714940
O    2.413987  0.482714  1.265660
H    -0.453461  1.242400  0.189062
H    -0.716508  2.284731  1.394111
H    0.298098  0.988110  3.006425
C    -1.107368  -0.400444  2.120480
C    -1.230424  -1.219232  3.436036
C    -1.392908  -2.726582  3.246799
N    -0.067939  -3.393751  2.899331
C    -0.148251  -4.519442  1.874331
N    0.406126  -4.440252  0.743505
N    -0.942673  -5.535593  2.297857
H    -1.120717  -1.068883  1.245177
H    -2.000037  0.233422  2.027407
H    -2.115732  -0.878917  3.988612
H    -0.380556  -1.023078  4.107786
H    -2.086566  -2.960188  2.430375
H    -1.777906  -3.200185  4.156527
H    0.389082  -3.731667  3.757184
H    0.928910  -3.581676  0.568684
H    -0.990324  -6.344216  1.684631
H    -1.104464  -5.716697  3.280998
O    1.543700  -1.473363  1.906144
H    0.576175  -2.652059  2.493655
Sr    2.384544  2.510317  0.427255
