27
Energy: -103699.41053 eV PBE+vdW (tier 2 basis)
N    0.013982  1.036379  1.592693
C    0.622201  0.043714  2.483308
C    2.003668  -0.456820  2.055112
O    2.713014  -1.116862  2.899331
H    -2.622841  3.332750  2.099913
H    0.655627  1.819299  1.450396
H    0.782798  0.521998  3.462658
C    -0.298360  -1.191444  2.680716
C    -1.778141  -0.844450  2.885560
C    -2.051165  0.088448  4.077915
N    -3.327039  0.796842  3.974500
C    -3.507323  1.921897  3.265554
N    -2.528674  2.404186  2.493108
N    -4.681201  2.571094  3.351657
H    0.092228  -1.773540  3.526294
H    -0.225748  -1.841547  1.795082
H    -2.339917  -1.779880  3.015367
H    -2.175163  -0.384449  1.970264
H    -1.266283  0.849855  4.184552
H    -2.066282  -0.469805  5.021705
H    -4.147049  0.370093  4.391510
H    -1.680040  1.863447  2.232021
H    -4.917731  3.318762  2.711969
H    -5.353223  2.355931  4.077576
O    2.442138  -0.232659  0.869569
H    -0.133772  0.634260  0.663051
Sr    4.423615  -1.372649  1.358317
