27
Energy: -103697.587309 eV PBE+vdW (tier 2 basis)
N    0.492686  0.208952  0.089751
C    0.498552  -0.199871  1.504642
C    1.954355  -0.359585  2.012010
O    2.865133  0.312695  1.493724
H    0.617730  -0.650920  -0.462617
H    -1.381583  0.434852  -0.572675
H    0.155506  0.671727  2.098665
C    -0.455589  -1.350711  1.913671
C    -0.329689  -2.688564  1.147043
C    -1.597645  -3.065047  0.361026
N    -1.916617  -2.028770  -0.633918
C    -2.796661  -1.016977  -0.460737
N    -2.388864  0.221789  -0.759759
N    -4.029337  -1.277061  -0.008756
H    -1.473628  -0.951482  1.809209
H    -0.377648  -1.525393  3.000587
H    -0.114371  -3.514488  1.838652
H    0.524872  -2.670138  0.449927
H    -2.453257  -3.172266  1.039063
H    -1.466731  -4.024964  -0.153582
H    -1.152323  -1.789690  -1.258495
H    -3.057771  0.974518  -0.883686
H    -4.651256  -0.533758  0.287777
H    -4.424846  -2.206572  -0.100541
O    2.273726  -1.141150  3.020572
H    1.495510  -1.621835  3.364316
Sr    2.351569  1.623238  -0.382695
