27
Energy: -103697.989686 eV PBE+vdW (tier 2 basis)
N    0.999908  1.151582  1.683460
C    -0.009367  0.149277  2.185999
C    0.663614  -1.250541  2.209385
O    1.926695  -1.240613  2.513814
H    0.972416  1.132266  0.656238
H    0.659510  2.090301  1.916705
H    -0.183465  0.404503  3.245336
C    -1.349095  0.207314  1.435339
C    -2.568840  -0.371714  2.205361
C    -3.322437  -1.501528  1.509985
N    -2.586290  -2.815688  1.617480
C    -2.929402  -3.645350  2.846254
N    -3.950120  -3.276249  3.487119
N    -2.072047  -4.694604  2.946977
H    -1.230205  -0.288940  0.459209
H    -1.558133  1.262182  1.208666
H    -3.300460  0.430225  2.365256
H    -2.284837  -0.700827  3.216342
H    -3.461367  -1.302799  0.440164
H    -4.299537  -1.665091  1.976983
H    -2.782379  -3.401264  0.795682
H    -4.173254  -3.842216  4.308687
H    -2.192456  -5.345194  3.715298
H    -1.146296  -4.664821  2.532371
O    0.022260  -2.278310  1.977269
H    -1.543145  -2.610252  1.640751
Sr    3.371456  0.414857  2.502224
