27
Energy: -103697.395304 eV PBE+vdW (tier 2 basis)
N    -0.504088  -0.056768  -0.279212
C    -0.413049  0.030120  1.165310
C    1.027018  0.263490  1.597896
O    1.334998  0.872913  2.630950
H    -0.035899  -0.883779  -0.650229
H    -1.474389  -0.078451  -0.589659
H    -0.950798  0.944614  1.464057
C    -1.020884  -1.180631  1.948740
C    -0.971057  -1.200207  3.487621
C    -1.633504  -0.027128  4.224835
N    -0.739007  1.147711  4.263335
C    -0.836299  2.207463  5.031062
N    -0.002249  3.239785  5.089839
N    -1.954845  2.369860  5.963086
H    -0.533213  -2.096212  1.583295
H    -2.070139  -1.245540  1.622155
H    0.060304  -1.312407  3.855487
H    -1.494184  -2.109591  3.814632
H    -1.863739  -0.336773  5.254917
H    -2.583900  0.247559  3.737638
H    0.107156  1.101195  3.607576
H    0.803871  3.155647  4.465819
H    -1.952118  1.607821  6.651539
H    -2.849476  2.270588  5.469948
O    1.930527  -0.284490  0.802785
H    2.826920  -0.112609  1.158582
Sr    -0.959918  4.701955  6.643390
