27
Energy: -103697.62338 eV PBE+vdW (tier 2 basis)
N    -1.694285  -0.169798  0.995968
C    -0.335383  -0.644006  1.354145
C    0.344737  -1.374510  0.201614
O    1.407262  -1.929143  0.279330
H    -1.651148  0.449314  0.183529
H    -2.061432  0.396807  1.764880
H    0.335394  0.212153  1.548105
C    -0.333275  -1.498736  2.644093
C    -0.879193  -2.935877  2.584288
C    -2.382819  -3.109270  2.324550
N    -2.744938  -2.638376  0.982965
C    -3.079121  -3.376844  -0.045510
N    -3.337265  -4.675186  -0.147523
N    -3.179830  -2.702858  -1.346455
H    -0.859625  -0.924580  3.423022
H    0.710816  -1.560649  2.976222
H    -0.673382  -3.402346  3.558409
H    -0.312538  -3.525850  1.847321
H    -2.976597  -2.531047  3.047463
H    -2.668928  -4.161309  2.449381
H    -2.498445  -1.585998  0.841061
H    -3.288798  -5.188540  0.733448
H    -2.312187  -2.161470  -1.493868
H    -3.929014  -2.001984  -1.316231
O    -0.357896  -1.306642  -0.999935
H    0.285489  -1.620614  -1.668419
Sr    -3.724217  -4.995771  -2.435119
