27
Energy: -103697.019176 eV PBE+vdW (tier 2 basis)
N    -0.414376  -0.371909  -0.103885
C    -0.391697  -0.210247  1.333819
C    1.004907  0.050404  1.912494
O    2.045469  -0.406086  1.534958
H    -0.050512  0.448500  -0.587849
H    0.151958  -1.169524  -0.398042
H    -1.018809  0.663908  1.576936
C    -0.996314  -1.483373  1.976903
C    -1.120487  -1.561593  3.504902
C    -2.110464  -0.598332  4.166039
N    -1.580059  0.784849  4.210124
C    -2.227896  1.877948  4.557078
N    -1.783578  3.126666  4.550552
N    -3.604610  1.798727  5.036694
H    -0.380766  -2.335503  1.651934
H    -1.980947  -1.623188  1.507226
H    -0.141110  -1.473603  4.001134
H    -1.473424  -2.571917  3.754634
H    -2.306750  -0.933140  5.196514
H    -3.064111  -0.601934  3.615230
H    -0.592347  0.898255  3.902210
H    -0.836072  3.233263  4.181117
H    -3.702927  1.059574  5.742124
H    -4.227578  1.513534  4.271059
O    0.956572  0.930575  3.014547
H    1.879258  1.006239  3.335337
Sr    -3.496550  4.372453  5.576403
