27
Energy: -103699.0767 eV PBE+vdW (tier 2 basis)
N    -1.505826  0.303351  1.230175
C    -0.410508  0.937756  1.955099
C    0.456746  1.774188  1.027866
O    1.631454  2.145362  1.398402
H    -1.045953  -5.262690  1.488462
H    -2.338995  0.245782  1.814339
H    -0.765146  1.708671  2.674868
C    0.379751  -0.087138  2.798575
C    0.916196  -1.276062  1.992396
C    1.222434  -2.466955  2.909060
N    1.683774  -3.674999  2.210000
C    0.899650  -4.654028  1.742954
N    -0.423935  -4.476605  1.632226
N    1.440166  -5.830114  1.386961
H    -0.319402  -0.451767  3.567566
H    1.188045  0.426178  3.335976
H    1.826120  -0.993947  1.441068
H    0.159177  -1.551510  1.241247
H    0.336887  -2.738838  3.502527
H    2.006332  -2.210292  3.633713
H    2.683909  -3.795459  2.090004
H    -0.835723  -3.552309  1.656525
H    0.917687  -6.506665  0.843799
H    2.361509  -6.105113  1.705011
O    -0.024232  2.190746  -0.091052
H    -1.753214  0.846408  0.402910
Sr    1.762466  3.636853  -0.371959
