27
Energy: -103697.318326 eV PBE+vdW (tier 2 basis)
N    0.693760  -1.812469  -0.855179
C    0.013813  -0.993915  0.151181
C    1.045688  -0.109012  0.834767
O    2.165219  -0.473628  1.192207
H    0.001484  -2.347652  -1.383540
H    1.169955  -1.222705  -1.539691
H    -0.755734  -0.316935  -0.254730
C    -0.701832  -1.907098  1.191061
C    0.131960  -3.104552  1.682367
C    0.991583  -2.862261  2.930545
N    2.049853  -3.918493  3.079804
C    3.320216  -3.758441  2.415054
N    4.207500  -4.640973  2.867621
N    3.509851  -2.797494  1.533446
H    -1.596432  -2.299015  0.687924
H    -1.080029  -1.295218  2.023105
H    0.777937  -3.412339  0.844731
H    -0.546442  -3.945422  1.891340
H    0.374622  -2.895769  3.838761
H    1.495336  -1.889851  2.923078
H    1.654491  -4.796482  2.718119
H    5.085495  -4.670692  2.346545
H    4.445638  -2.653548  1.162053
H    2.811331  -2.059232  1.267794
O    0.594508  1.126132  1.040313
H    1.287629  1.651829  1.491371
Sr    3.440325  -4.989204  5.053406
