27
Energy: -103696.423835 eV PBE+vdW (tier 2 basis)
N    0.364838  0.139572  -0.097326
C    -0.344877  0.300039  1.210080
C    0.556970  1.080738  2.155045
O    1.793514  1.085910  1.997947
H    -0.022166  -0.696775  -0.550808
H    0.093620  0.909627  -0.719633
H    -1.291098  0.847951  1.073053
C    -0.635794  -1.088043  1.841774
C    -1.706743  -1.917355  1.122382
C    -3.154473  -1.396108  1.303959
N    -4.165125  -2.360053  0.952967
C    -4.391603  -3.497407  1.728955
N    -3.886939  -3.755895  2.893515
N    -5.212598  -4.427323  1.137217
H    -0.941425  -0.941208  2.889421
H    0.316252  -1.645787  1.888458
H    -1.657590  -2.933879  1.540550
H    -1.487974  -2.037077  0.046657
H    -3.336017  -0.495177  0.699550
H    -3.301598  -1.095592  2.355853
H    -4.439591  -2.405914  -0.022363
H    -3.287471  -3.011335  3.252743
H    -5.486104  -5.183489  1.757098
H    -5.941598  -4.113977  0.505720
O    0.066647  1.711169  3.190458
H    -0.909959  1.685578  3.244985
Sr    2.999309  0.189375  0.244424
