27
Energy: -103697.911825 eV PBE+vdW (tier 2 basis)
N    -0.067213  -0.632539  0.036947
C    0.107929  -0.404490  1.486908
C    1.573739  -0.435740  1.929560
O    1.877748  -0.000944  3.095909
H    0.164263  0.209850  -0.494239
H    -1.627225  -1.235563  -0.186994
H    -0.257321  0.604417  1.732868
C    -0.703205  -1.444533  2.298078
C    -2.205942  -1.147404  2.473930
C    -3.026100  -0.741255  1.243941
N    -2.675534  -1.503932  -0.007584
C    -2.856468  -3.018672  0.031753
N    -3.655954  -3.641973  0.777271
N    -1.959458  -3.612728  -0.815424
H    -0.279843  -1.522189  3.307701
H    -0.555467  -2.430434  1.828885
H    -2.332482  -0.327954  3.196422
H    -2.652538  -2.031698  2.946289
H    -2.856033  0.311114  0.979685
H    -4.100292  -0.849353  1.437898
H    -3.240014  -1.137858  -0.786011
H    -4.229148  -3.086892  1.411550
H    -2.114686  -4.610695  -0.941947
H    -1.681176  -3.130287  -1.664148
O    2.474875  -0.904439  1.146400
H    0.601595  -1.346107  -0.269761
Sr    4.133977  -0.450048  2.757489
