27
Energy: -103697.870142 eV PBE+vdW (tier 2 basis)
N    -0.976064  -0.082833  -0.281681
C    -0.139433  -0.379121  0.909419
C    1.317465  -0.539600  0.485658
O    1.696795  -1.213317  -0.469915
H    -0.714153  0.840087  -0.643029
H    -1.940508  0.032139  0.044437
H    -0.170884  0.455526  1.625427
C    -0.637857  -1.630099  1.674972
C    -0.355772  -3.053757  1.154145
C    -0.949327  -3.463384  -0.198855
N    -0.008515  -3.179787  -1.348848
C    -0.677916  -2.840165  -2.585685
N    -0.635731  -3.803131  -3.487102
N    -1.209463  -1.632648  -2.657797
H    -1.724013  -1.504972  1.811109
H    -0.213971  -1.572171  2.687143
H    -0.778547  -3.732946  1.908026
H    0.726606  -3.261801  1.159336
H    -1.912420  -2.962529  -0.372160
H    -1.170797  -4.545517  -0.190652
H    0.610012  -2.375174  -1.066297
H    -1.117244  -3.602614  -4.365340
H    -1.679918  -1.310643  -3.499141
H    -1.134364  -1.004824  -1.807614
O    2.143412  0.111075  1.297321
H    3.070304  -0.039477  1.015631
Sr    0.899103  -5.261906  -2.449139
