27
Energy: -103699.001718 eV PBE+vdW (tier 2 basis)
N    -0.023630  -0.212873  0.011410
C    -0.738532  -0.411122  1.323661
C    -0.462603  0.779343  2.271350
O    0.647881  1.429353  2.045794
H    0.094741  -1.129366  -0.433882
H    -0.656913  0.288292  -0.621102
H    -1.823120  -0.459501  1.154988
C    -0.257419  -1.729662  1.965278
C    -0.818174  -2.065268  3.356941
C    -2.192319  -2.738467  3.430324
N    -3.364576  -2.050659  2.828002
C    -4.118865  -1.123452  3.469221
N    -3.527283  -0.172630  4.188469
N    -5.454619  -1.173847  3.349673
H    0.842297  -1.684344  2.046817
H    -0.478788  -2.553973  1.266480
H    -0.785485  -1.181762  4.006530
H    -0.133366  -2.787961  3.824798
H    -2.416265  -2.942809  4.487018
H    -2.149155  -3.710066  2.921532
H    -3.879935  -2.611880  2.157416
H    -4.089203  0.420394  4.790044
H    -6.034054  -0.382194  3.605921
H    -5.932340  -2.034840  3.109570
O    -1.239819  1.025740  3.188639
H    -2.603826  0.198238  3.889652
Sr    2.077917  1.310302  0.407024
