27
Energy: -103697.602049 eV PBE+vdW (tier 2 basis)
N    0.266396  -1.868791  0.026206
C    0.766579  -0.763440  0.869983
C    2.180565  -1.094159  1.375799
O    2.645074  -2.222740  1.449033
H    -0.663349  -1.617309  -0.320671
H    0.855365  -1.944121  -0.807040
H    0.862585  0.170081  0.285241
C    -0.227777  -0.448000  2.026974
C    -0.865937  -1.649752  2.737735
C    0.090969  -2.481165  3.620201
N    -0.196085  -3.926422  3.596895
C    0.143604  -4.781017  2.631262
N    -0.106539  -6.079681  2.602185
N    0.875472  -4.328455  1.480054
H    -1.040932  0.152240  1.594503
H    0.265077  0.214292  2.754235
H    -1.332227  -2.309692  1.993446
H    -1.694983  -1.276938  3.353285
H    0.021601  -2.174289  4.669581
H    1.139163  -2.342844  3.335935
H    -0.719223  -4.304655  4.383541
H    -0.640020  -6.444992  3.392745
H    1.696784  -3.725735  1.718241
H    0.352446  -3.598248  0.913254
O    2.928691  -0.064347  1.778195
H    2.502317  0.797651  1.611649
Sr    1.163716  -6.722248  0.717381
