27
Energy: -103696.571012 eV PBE+vdW (tier 2 basis)
N    -0.395606  0.712364  1.211835
C    0.081340  -0.195187  2.307037
C    1.565895  -0.434626  2.120371
O    2.093685  -0.331696  0.987568
H    -1.397385  0.519248  1.083826
H    -0.375954  1.677446  1.561606
H    -0.106611  0.263911  3.290970
C    -0.653759  -1.565338  2.260152
C    -2.170990  -1.441714  2.414574
C    -2.867653  -2.816191  2.615942
N    -4.307542  -2.691353  2.696919
C    -4.905129  -1.898698  3.696057
N    -5.721192  -0.982465  3.315390
N    -4.470321  -2.207688  4.979073
H    -0.250130  -2.187273  3.073911
H    -0.392203  -2.087443  1.323272
H    -2.633305  -0.968002  1.531034
H    -2.416307  -0.807020  3.280533
H    -2.476078  -3.281073  3.531382
H    -2.629933  -3.495392  1.785266
H    -4.765375  -2.494061  1.808624
H    -6.224085  -0.549528  4.095794
H    -4.960442  -1.719789  5.722425
H    -4.361696  -3.199575  5.178983
O    2.322643  -0.838538  3.109442
H    1.859362  -0.877161  3.970163
Sr    1.155204  0.537391  -0.901724
