27
Energy: -103697.446171 eV PBE+vdW (tier 2 basis)
N    -0.110221  -0.961914  -0.251668
C    -0.646511  -0.428297  1.004044
C    0.528871  0.033136  1.867986
O    1.016704  -0.581264  2.827386
H    0.558532  -1.718048  -0.100685
H    0.337044  -0.243636  -0.820320
H    -1.244451  0.460004  0.750153
C    -1.538186  -1.496477  1.652303
C    -2.536145  -1.066269  2.739504
C    -1.957344  -0.490949  4.042274
N    -0.843406  -1.296636  4.561440
C    -0.851591  -2.103143  5.594117
N    -1.821528  -2.418776  6.442365
N    0.403827  -2.776678  5.944321
H    -0.904958  -2.322823  2.015440
H    -2.121851  -1.920461  0.824952
H    -3.156088  -1.941257  2.985093
H    -3.227569  -0.309963  2.339119
H    -2.739003  -0.390925  4.806655
H    -1.548594  0.516918  3.882644
H    0.015839  -1.202129  3.951278
H    -2.730641  -2.012493  6.216782
H    1.189755  -2.118772  5.895153
H    0.616120  -3.496067  5.242851
O    1.069123  1.165807  1.415187
H    1.882765  1.361334  1.923070
Sr    -0.729426  -3.625303  8.136589
