27
Energy: -103698.402419 eV PBE+vdW (tier 2 basis)
N    -0.548306  0.334738  1.253422
C    0.316930  -0.421335  2.214092
C    1.729774  0.138536  1.983558
O    1.850119  1.371194  1.975333
H    -1.501991  -0.020030  1.345214
H    -0.266353  0.109735  0.293230
H    0.106727  -0.004317  3.212961
C    0.020459  -1.928184  2.327263
C    -0.867021  -2.262901  3.548719
C    -2.275685  -1.641460  3.624696
N    -2.305288  -0.165473  3.636979
C    -1.770707  0.666834  4.585554
N    -1.407028  1.895948  4.214551
N    -1.573255  0.160310  5.819324
H    0.948373  -2.509573  2.455999
H    -0.426583  -2.293072  1.390539
H    -0.307238  -2.012615  4.463203
H    -1.007912  -3.352281  3.582609
H    -2.800379  -2.061449  4.497256
H    -2.874788  -1.943198  2.755092
H    -2.953998  0.294288  3.009095
H    -1.318336  2.491328  5.045127
H    -1.085172  0.698190  6.526359
H    -2.110798  -0.633956  6.150251
O    2.790471  -0.618392  1.851121
H    2.576219  -1.572943  1.852484
Sr    -0.174552  2.731711  2.223217
