27
Energy: -103697.542181 eV PBE+vdW (tier 2 basis)
N    0.004556  0.281537  0.645228
C    0.210803  -0.546936  1.835752
C    1.578580  -1.205808  1.701203
O    1.815248  -2.282885  1.133203
H    0.607997  1.102883  0.627377
H    0.122242  -0.233780  -0.226783
H    0.252452  0.132956  2.697974
C    -0.970084  -1.508689  2.007934
C    -1.084921  -2.224913  3.363244
C    -0.335767  -3.554900  3.515802
N    -0.861423  -4.584629  2.597190
C    -0.263160  -5.141314  1.549739
N    -0.799981  -5.956170  0.657115
N    1.132532  -4.878278  1.285559
H    -0.988402  -2.230118  1.173100
H    -1.860541  -0.882664  1.866826
H    -2.148250  -2.407930  3.580072
H    -0.740253  -1.567188  4.175686
H    -0.454991  -3.938574  4.538084
H    0.738473  -3.444582  3.334900
H    -1.844490  -4.820732  2.733119
H    -1.794128  -6.154807  0.782870
H    1.703150  -5.144010  2.095956
H    1.305452  -3.835067  1.171519
O    2.557533  -0.430257  2.166449
H    3.425483  -0.824349  1.942370
Sr    1.032141  -6.377835  -0.778337
