27
Energy: -103699.197469 eV PBE+vdW (tier 2 basis)
N    0.572248  -0.511668  -0.332082
C    0.261873  -0.144971  1.052646
C    1.484934  0.134322  1.930381
O    1.320137  0.719643  3.062346
H    1.212732  0.166566  -0.749577
H    -0.974824  -0.441280  -1.334065
H    -0.320956  0.789008  1.040623
C    -0.576046  -1.249532  1.744017
C    -1.786731  -1.768677  0.957751
C    -3.026823  -0.879368  0.866536
N    -2.939289  0.415139  0.132283
C    -2.781007  0.548089  -1.206948
N    -1.852611  -0.166059  -1.842800
N    -3.544684  1.433128  -1.868091
H    -0.888913  -0.876938  2.729367
H    0.085986  -2.110149  1.933336
H    -2.137822  -2.675287  1.473912
H    -1.487984  -2.118019  -0.038792
H    -3.346592  -0.596922  1.877684
H    -3.843043  -1.471566  0.425923
H    -3.503272  1.149319  0.550579
H    -1.845100  -0.180326  -2.856942
H    -3.300989  1.745824  -2.801162
H    -4.434885  1.743422  -1.496242
O    2.655569  -0.231659  1.550489
H    1.062758  -1.409362  -0.363285
Sr    3.587210  0.566068  3.536733
