27
Energy: -103699.015667 eV PBE+vdW (tier 2 basis)
N    -1.381177  0.029935  -0.917907
C    -0.772189  0.095936  0.471715
C    0.150104  -1.161834  0.504564
O    1.057972  -1.177378  1.424863
H    -0.927655  0.658297  -1.591116
H    -2.391174  0.215919  -0.929037
H    -0.166434  1.008972  0.536323
C    -1.924310  0.108117  1.501065
C    -1.612389  -0.011821  3.004502
C    -0.743659  1.077736  3.659959
N    0.686491  0.804381  3.490498
C    1.596897  0.611322  4.474112
N    2.616450  -0.230948  4.244833
N    1.432377  1.267901  5.640618
H    -2.604173  -0.722095  1.249183
H    -2.488276  1.040887  1.338000
H    -1.187489  -0.999938  3.234196
H    -2.591334  0.007863  3.503603
H    -0.968731  1.098371  4.733832
H    -0.993908  2.073233  3.260914
H    0.922377  0.308607  2.631141
H    3.349243  -0.094314  4.945609
H    2.047804  1.090097  6.424275
H    0.833452  2.081812  5.708934
O    -0.047595  -2.029504  -0.345525
H    -1.173389  -0.977643  -1.192967
Sr    2.826572  -1.987257  2.612711
