27
Energy: -103697.126764 eV PBE+vdW (tier 2 basis)
N    -0.060364  0.408282  0.984639
C    -0.257077  -0.337648  2.292504
C    0.717066  0.238564  3.318682
O    0.571842  -0.072268  4.542385
H    -0.697724  1.208269  0.882728
H    -0.215716  -0.243612  0.175037
H    -1.282978  -0.143307  2.633882
C    -0.055694  -1.856054  2.113019
C    -1.070123  -2.535393  1.172716
C    -0.689470  -2.536173  -0.311950
N    -1.728306  -3.141504  -1.105612
C    -1.514119  -3.219961  -2.514681
N    -2.276065  -2.510407  -3.257671
N    -0.448029  -4.037845  -2.848575
H    -0.150396  -2.282847  3.120493
H    0.978549  -2.055392  1.786310
H    -2.066906  -2.083522  1.309650
H    -1.180665  -3.583225  1.482199
H    0.255781  -3.075599  -0.463693
H    -0.472310  -1.489271  -0.694148
H    -2.629671  -2.677941  -0.980960
H    -2.158992  -2.705311  -4.256371
H    -0.302353  -4.185608  -3.841938
H    -0.355239  -4.890192  -2.302557
O    1.675480  0.994017  2.921081
H    0.907852  0.771616  0.954479
Sr    2.449594  1.179490  5.191163
