27
Energy: -103699.212031 eV PBE+vdW (tier 2 basis)
N    0.402626  0.604111  -0.010275
C    -0.122203  0.294520  1.384969
C    1.053180  -0.320433  2.155982
O    0.914899  -0.517019  3.391780
H    -0.266039  0.368485  -0.753721
H    0.661183  1.593317  -0.117077
H    -0.450595  1.233752  1.844041
C    -1.266483  -0.735336  1.374576
C    -0.867984  -2.137525  0.875622
C    -1.602548  -3.292295  1.567683
N    -1.515801  -3.315302  3.038965
C    -0.624718  -4.080590  3.738550
N    0.665640  -4.122148  3.396797
N    -1.124568  -4.749340  4.801587
H    -2.119943  -0.331750  0.810373
H    -1.590060  -0.790326  2.423598
H    0.210936  -2.309140  0.994738
H    -1.057041  -2.239828  -0.203677
H    -1.219044  -4.241410  1.170457
H    -2.672573  -3.253672  1.325285
H    -2.400428  -3.168103  3.514320
H    1.065563  -4.989598  3.773014
H    -0.512068  -5.165773  5.492465
H    -2.113343  -4.956786  4.886919
O    2.042426  -0.751699  1.467176
H    1.272128  0.028752  -0.102937
Sr    2.416430  -2.389380  3.306515
