27
Energy: -103697.502757 eV PBE+vdW (tier 2 basis)
N    0.598477  0.607631  0.681572
C    0.566021  -0.016397  1.981866
C    1.891076  -0.706265  2.303075
O    2.302462  -0.889818  3.461327
H    1.190369  1.434986  0.639949
H    -0.331222  0.857310  0.350398
H    0.410928  0.685010  2.830992
C    -0.578098  -1.070870  1.989271
C    -0.731508  -1.921490  3.253575
C    -1.197808  -1.125946  4.490703
N    -0.743039  -1.735304  5.753020
C    0.435022  -1.527774  6.339250
N    0.975881  -2.221066  7.324591
N    1.270734  -0.433185  5.906092
H    -0.421032  -1.731616  1.125783
H    -1.510622  -0.520102  1.789639
H    0.219476  -2.421919  3.488115
H    -1.449976  -2.726915  3.050035
H    -2.291342  -1.063554  4.539665
H    -0.833091  -0.092246  4.459997
H    -1.297550  -2.515304  6.102970
H    0.442278  -3.034579  7.636067
H    0.746349  0.447317  5.917000
H    1.594338  -0.565364  4.891804
O    2.561012  -1.128459  1.246958
H    3.379626  -1.578951  1.540638
Sr    3.024797  -1.076129  7.636372
