27
Energy: -103699.211948 eV PBE+vdW (tier 2 basis)
N    0.552181  -0.909886  0.839405
C    -0.640679  -0.353335  1.604310
C    -0.096896  0.115859  2.960110
O    -0.923579  0.471928  3.840353
H    0.555755  -0.641403  -0.152190
H    0.602337  -1.935365  0.891270
H    -1.374652  -1.157608  1.727507
C    -1.277775  0.862907  0.908023
C    -0.366250  2.101266  0.810519
C    -1.101276  3.442786  0.921149
N    -1.940845  3.615149  2.120415
C    -1.535030  4.275559  3.246657
N    -0.340030  4.036884  3.793036
N    -2.425386  5.142353  3.778617
H    -2.158783  1.095431  1.522797
H    -1.661468  0.563359  -0.078204
H    0.179904  2.114014  -0.144802
H    0.412665  2.082519  1.585530
H    -1.768374  3.575971  0.059504
H    -0.361721  4.253429  0.880908
H    -2.934986  3.690177  1.929998
H    -0.083178  4.851968  4.361953
H    -3.180165  5.538767  3.229834
H    -2.299913  5.513281  4.712729
O    1.169426  0.276482  3.058270
H    1.390539  -0.518327  1.328664
Sr    0.665923  2.011299  4.773235
