27
Energy: -103698.507903 eV PBE+vdW (tier 2 basis)
N    -1.327632  0.478988  0.203648
C    -0.825336  -0.261004  1.401236
C    0.454195  0.471374  1.820215
O    0.402310  1.705430  1.899050
H    -0.640272  0.414072  -0.554437
H    -2.157893  -0.002018  -0.151080
H    -1.491076  0.031259  2.230934
C    -0.907177  -1.783050  1.353208
C    -2.368918  -2.292763  1.250036
C    -3.418316  -1.639596  2.186938
N    -4.107703  -0.473444  1.593956
C    -3.905369  0.836803  1.850082
N    -3.184571  1.391712  2.799489
N    -4.380146  1.763456  0.894463
H    -0.476690  -2.179811  2.287847
H    -0.322812  -2.202189  0.520285
H    -2.355555  -3.369412  1.464388
H    -2.730309  -2.219121  0.212460
H    -2.987485  -1.354072  3.156032
H    -4.197220  -2.375964  2.418028
H    -4.867142  -0.704097  0.957675
H    -3.013759  0.788689  3.606105
H    -4.993602  2.465311  1.312614
H    -4.814554  1.371294  0.059326
O    1.560511  -0.155071  2.143303
H    1.501230  -1.123507  2.022377
Sr    -1.720305  2.840160  1.391265
