27
Energy: -103698.465322 eV PBE+vdW (tier 2 basis)
N    0.369853  -0.240463  -0.169948
C    -0.073227  0.050567  1.176769
C    1.064309  -0.002248  2.197590
O    1.425280  0.984243  2.883254
H    1.117148  0.361907  -0.510264
H    0.628651  -1.216471  -0.313515
H    -0.423192  1.093398  1.195539
C    -1.227073  -0.900149  1.563167
C    -1.898617  -0.673616  2.926946
C    -3.009150  0.387190  2.978581
N    -2.588579  1.755361  2.617181
C    -1.743675  2.503371  3.333778
N    -1.234240  2.253253  4.517088
N    -1.187417  3.671418  2.719846
H    -0.836479  -1.927711  1.530391
H    -1.961704  -0.829882  0.747497
H    -1.144987  -0.487015  3.709302
H    -2.384187  -1.611784  3.230518
H    -3.474795  0.403833  3.975633
H    -3.808104  0.126469  2.274200
H    -3.030001  2.175408  1.804538
H    -1.699883  1.500739  5.026082
H    -1.351292  3.739378  1.713786
H    -1.541707  4.523977  3.163320
O    1.684525  -1.159197  2.272002
H    2.448911  -1.121238  2.883768
Sr    1.049517  2.948661  4.098886
