27
Energy: -103697.847042 eV PBE+vdW (tier 2 basis)
N    1.334571  0.307358  1.024344
C    0.383951  0.334779  2.158756
C    1.130635  0.264899  3.489164
O    0.465066  0.112062  4.571546
H    1.438098  -1.137354  0.400250
H    1.011185  0.921216  0.273373
H    -0.116136  1.320335  2.212756
C    -0.744030  -0.709426  2.035827
C    -0.342507  -2.194222  1.920741
C    0.000963  -2.700739  0.517980
N    1.350206  -2.206451  0.053526
C    1.698042  -2.297739  -1.414705
N    2.723034  -2.886958  -1.856873
N    0.862616  -1.532198  -2.181451
H    -1.368090  -0.428569  1.173566
H    -1.388028  -0.584891  2.915556
H    -1.200540  -2.795568  2.252590
H    0.468897  -2.447477  2.624108
H    -0.754034  -2.356651  -0.199469
H    0.015439  -3.796322  0.478246
H    2.074928  -2.739445  0.545341
H    3.332363  -3.336033  -1.172235
H    1.055270  -1.597402  -3.178545
H    -0.125303  -1.480895  -1.960549
O    2.402505  0.441365  3.522618
H    2.245593  0.663020  1.329483
Sr    2.329960  0.595509  5.880054
