27
Energy: -103697.768722 eV PBE+vdW (tier 2 basis)
N    0.893146  0.463313  0.659474
C    -0.167186  0.039658  1.645715
C    0.212373  -1.348073  2.233821
O    1.490004  -1.581111  2.312677
H    0.694498  0.002133  -0.236783
H    0.756702  1.459504  0.457670
H    -0.079438  0.740495  2.493538
C    -1.607088  0.121529  1.120021
C    -2.037429  -1.023771  0.173460
C    -3.293139  -1.754863  0.701152
N    -3.462998  -3.116173  0.193998
C    -2.836060  -4.234708  0.655870
N    -2.589229  -5.376117  0.166636
N    -2.417914  -4.142314  2.103316
H    -1.749995  1.102407  0.645057
H    -2.262743  0.136173  2.002394
H    -1.230975  -1.766038  0.070492
H    -2.234980  -0.646152  -0.838443
H    -4.202095  -1.195098  0.446498
H    -3.259632  -1.784613  1.798013
H    -3.826354  -3.206711  -0.750865
H    -2.842044  -5.492994  -0.817831
H    -2.012806  -5.067692  2.304474
H    -3.227009  -3.999131  2.723406
O    -0.666786  -2.118845  2.619865
H    -1.702384  -3.389898  2.307164
Sr    3.181271  -0.372550  1.587702
