27
Energy: -103698.300364 eV PBE+vdW (tier 2 basis)
N    0.443971  -0.720494  0.371364
C    -0.275021  -0.484404  1.660195
C    0.643601  0.439191  2.471484
O    1.092549  1.441001  1.897359
H    1.272479  -1.301327  0.536568
H    -0.165002  -1.262323  -0.252061
H    -1.089429  0.214812  1.423355
C    -0.953699  -1.703623  2.301410
C    -2.005726  -2.368115  1.380247
C    -3.305218  -1.593499  1.042559
N    -3.147157  -0.209378  0.548997
C    -2.413134  0.195579  -0.516107
N    -1.876466  1.410550  -0.640701
N    -2.084010  -0.750999  -1.453356
H    -1.445321  -1.383830  3.235894
H    -0.207612  -2.467707  2.571234
H    -2.337097  -3.295362  1.868757
H    -1.516173  -2.711519  0.456266
H    -3.934000  -1.507304  1.936785
H    -3.895352  -2.186118  0.326773
H    -3.399723  0.521303  1.205992
H    -2.353781  2.075236  -0.021745
H    -2.659497  -1.588257  -1.494176
H    -1.886823  -0.369893  -2.374698
O    0.917563  0.241231  3.738272
H    0.535593  -0.588651  4.087113
Sr    0.599800  1.764744  -0.480259
