27
Energy: -103696.867126 eV PBE+vdW (tier 2 basis)
N    0.137685  -1.933046  0.992705
C    0.416188  -0.509366  1.052849
C    1.784399  -0.007208  0.542924
O    1.992244  1.154822  0.271889
H    0.844960  -2.473086  1.494193
H    0.135141  -2.275139  0.032349
H    -0.302507  0.003766  0.393636
C    0.248981  0.016060  2.497269
C    -1.122119  -0.279075  3.116961
C    -2.259816  0.463618  2.417650
N    -3.547316  0.147433  3.079493
C    -4.658153  0.868194  3.108410
N    -5.789825  0.608063  3.737405
N    -4.729720  2.115539  2.361232
H    0.462611  1.094389  2.509739
H    1.012102  -0.456002  3.134178
H    -1.104042  0.006900  4.179148
H    -1.312279  -1.362215  3.054477
H    -2.327915  0.163245  1.360965
H    -2.091457  1.549104  2.462450
H    -3.565140  -0.747076  3.571095
H    -5.781409  -0.235317  4.314729
H    -4.352205  2.001728  1.413930
H    -4.134146  2.826821  2.802681
O    2.700903  -0.993571  0.462480
H    3.539356  -0.594266  0.152838
Sr    -7.304759  2.265739  2.969418
