27
Energy: -103698.951612 eV PBE+vdW (tier 2 basis)
N    0.279355  0.087445  0.303577
C    0.166336  -0.291624  1.766392
C    1.634251  -0.666726  2.146985
O    1.813416  -1.098917  3.350818
H    -0.062032  1.030127  0.088531
H    -0.194423  -0.578601  -0.317824
H    -0.087492  0.629438  2.309486
C    -0.875702  -1.400439  2.044701
C    -2.012490  -1.054595  3.028585
C    -1.610445  -0.575350  4.431285
N    -0.587626  -1.444993  5.016033
C    -0.175092  -1.456644  6.310009
N    1.105644  -1.761760  6.563926
N    -1.067029  -1.168262  7.276915
H    -0.349276  -2.304585  2.380636
H    -1.351717  -1.695675  1.097895
H    -2.632265  -1.956867  3.123006
H    -2.660739  -0.279970  2.593577
H    -2.514631  -0.569519  5.052566
H    -1.246983  0.468046  4.405039
H    0.182209  -1.618197  4.371982
H    1.226573  -1.961218  7.560422
H    -0.790797  -1.165459  8.250561
H    -2.061168  -1.130496  7.089164
O    2.501841  -0.512460  1.286295
H    1.337558  0.023622  0.153654
Sr    3.065011  -1.682510  5.161895
