27
Energy: -103696.919872 eV PBE+vdW (tier 2 basis)
N    -0.861118  0.185976  -0.177706
C    -0.748081  0.462679  1.240593
C    0.230971  1.576068  1.684598
O    0.692095  1.654684  2.805234
H    -1.372594  0.912792  -0.674695
H    0.048772  0.088823  -0.628409
H    -1.734016  0.824299  1.583297
C    -0.414335  -0.823703  2.021413
C    -1.557536  -1.837961  1.975825
C    -1.219953  -3.177433  2.627467
N    -0.861916  -2.976260  4.053533
C    -0.900467  -3.846025  5.049178
N    -0.616447  -3.646161  6.323862
N    -1.275546  -5.229001  4.789680
H    -0.162597  -0.506100  3.047306
H    0.501774  -1.265749  1.595138
H    -1.816165  -2.037715  0.925897
H    -2.462576  -1.421731  2.446238
H    -0.366024  -3.649383  2.115274
H    -2.081016  -3.857015  2.569369
H    -0.522570  -2.036185  4.268612
H    -0.390442  -2.680128  6.569954
H    -0.804940  -5.589525  3.952288
H    -2.279329  -5.288420  4.579358
O    0.478932  2.455282  0.696749
H    1.064195  3.151552  1.058323
Sr    -0.621152  -5.809446  7.291657
