27
Energy: -103696.857968 eV PBE+vdW (tier 2 basis)
N    -0.155019  -1.216911  0.163258
C    -0.067843  -0.680303  1.505649
C    1.362530  -0.277784  1.908846
O    2.355602  -0.916872  1.662274
H    0.544052  -1.943723  0.000942
H    -0.036497  -0.499054  -0.550075
H    -0.695923  0.221487  1.545824
C    -0.599776  -1.744707  2.494286
C    -0.536779  -1.392390  3.987118
C    -1.365697  -0.153124  4.346706
N    -1.345808  0.141748  5.794622
C    -2.163849  -0.378353  6.697558
N    -3.159334  -1.222741  6.522650
N    -2.018906  0.017426  8.095436
H    -0.016936  -2.664930  2.342227
H    -1.630833  -1.975938  2.189198
H    0.505131  -1.225651  4.300257
H    -0.897232  -2.258420  4.564429
H    -2.415108  -0.256829  4.032022
H    -0.970314  0.742957  3.853611
H    -0.590983  0.739080  6.125049
H    -3.271164  -1.557768  5.564010
H    -1.961220  1.037414  8.189948
H    -1.141152  -0.348716  8.482635
O    1.379386  0.898920  2.612612
H    2.321586  1.105831  2.782599
Sr    -4.213289  -1.359504  8.650150
