27
Energy: -103698.896764 eV PBE+vdW (tier 2 basis)
N    0.064134  0.359731  0.273204
C    0.174927  -0.230925  1.665841
C    1.593079  -0.883708  1.651010
O    2.077936  -1.214987  2.795509
H    -0.823644  0.147206  -0.196190
H    0.211007  1.374915  0.248272
H    0.146093  0.589592  2.392615
C    -0.983814  -1.230230  1.877308
C    -0.961188  -2.073421  3.161282
C    -1.242286  -1.311425  4.468688
N    -1.022356  -2.145051  5.650744
C    0.203647  -2.481387  6.122164
N    1.311731  -1.825424  5.778907
N    0.301444  -3.560916  6.936454
H    -0.984791  -1.928040  1.024783
H    -1.930181  -0.667460  1.825618
H    0.003977  -2.590462  3.244419
H    -1.720424  -2.859860  3.049552
H    -2.285700  -0.974324  4.504688
H    -0.636065  -0.395537  4.546803
H    -1.838111  -2.561838  6.086871
H    1.031606  -0.915471  5.398373
H    1.050217  -3.573684  7.619067
H    -0.514007  -4.119451  7.161427
O    2.123896  -1.032719  0.547468
H    0.887290  -0.127154  -0.211564
Sr    3.248173  -2.230096  4.423041
