27
Energy: -103698.149764 eV PBE+vdW (tier 2 basis)
N    2.232130  -0.999897  1.891299
C    1.147787  -0.378364  2.617309
C    1.439848  -0.533394  4.110945
O    2.350697  -1.262889  4.525373
H    2.149943  -0.779129  0.897794
H    -2.825193  1.687892  -2.948664
H    1.091042  0.721145  2.446240
C    -0.268517  -0.986438  2.333756
C    -0.773934  -0.811634  0.893614
C    -1.260346  0.609682  0.571669
N    -1.782313  0.759932  -0.792758
C    -3.066947  0.678966  -1.168239
N    -3.426865  1.093043  -2.391741
N    -4.001237  0.200668  -0.335730
H    -1.017671  -0.571646  3.031294
H    -0.205765  -2.062387  2.549187
H    -1.597308  -1.523802  0.730196
H    0.010516  -1.105815  0.179301
H    -0.446475  1.340581  0.672025
H    -2.044463  0.931173  1.272722
H    -1.108276  0.938409  -1.530124
H    -4.328331  0.850897  -2.785909
H    -4.987391  0.322065  -0.533914
H    -3.757449  -0.336628  0.485376
O    0.714211  0.109377  5.013458
H    0.048505  0.688713  4.598406
Sr    3.896516  -2.138072  2.950266
