27
Energy: -103697.211598 eV PBE+vdW (tier 2 basis)
N    0.865947  1.033267  1.661263
C    0.585165  0.282048  2.922590
C    1.863587  0.216787  3.755221
O    2.827821  0.971125  3.514483
H    0.856277  0.360425  0.886684
H    -0.009068  1.638713  1.504733
H    -0.070746  0.943898  3.519391
C    -0.146176  -1.082816  2.751307
C    -1.379231  -1.302518  3.663572
C    -2.734878  -0.809639  3.107625
N    -2.797848  0.622787  2.810967
C    -2.222828  1.201715  1.706210
N    -1.609909  2.362940  1.676397
N    -2.201795  0.443711  0.553912
H    0.572836  -1.903631  2.896559
H    -0.460518  -1.159592  1.701226
H    -1.212964  -0.846706  4.655927
H    -1.488917  -2.380477  3.850463
H    -3.521030  -1.034374  3.839337
H    -2.994258  -1.384032  2.208934
H    -2.843416  1.230191  3.623775
H    -1.700035  2.851968  2.571503
H    -2.066166  1.009987  -0.278990
H    -2.944641  -0.239384  0.439459
O    1.960493  -0.584495  4.784779
H    1.179196  -1.163608  4.893728
Sr    2.954648  2.455772  1.747829
