27
Energy: -103699.094289 eV PBE+vdW (tier 2 basis)
N    0.706895  -0.011750  0.580427
C    0.272415  0.255419  1.999887
C    1.520668  0.220768  2.929657
O    2.609761  0.687288  2.374351
H    0.807049  -1.026722  0.462765
H    -0.067290  0.234950  -0.044769
H    -0.056852  1.308000  2.014513
C    -0.893750  -0.600984  2.505255
C    -0.574489  -2.089043  2.697836
C    -1.576559  -2.842652  3.585237
N    -1.937475  -2.212166  4.874367
C    -1.168205  -2.124867  5.980477
N    0.149285  -1.931711  5.884924
N    -1.753402  -2.227006  7.184049
H    -1.757082  -0.472736  1.833949
H    -1.199593  -0.164520  3.466899
H    0.434808  -2.211982  3.111747
H    -0.575055  -2.624961  1.735540
H    -1.196430  -3.856264  3.776598
H    -2.531310  -2.951563  3.056649
H    -2.933880  -2.123141  5.042783
H    0.719866  -2.022702  6.718553
H    -1.289230  -1.899923  8.023650
H    -2.657674  -2.669795  7.297745
O    1.442273  -0.179421  4.084533
H    0.555137  -1.371906  5.118387
Sr    3.046227  1.134246  0.286174
