27
Energy: -103697.316185 eV PBE+vdW (tier 2 basis)
N    0.533679  -1.354863  0.606847
C    0.200712  0.022292  0.947053
C    1.325104  0.783308  1.663542
O    1.217326  1.492908  2.670395
H    1.046264  -1.424268  -0.269720
H    1.085572  -1.827856  1.320489
H    0.101718  0.569463  -0.006220
C    -1.186072  0.103523  1.630116
C    -1.436844  -0.868546  2.791404
C    -0.792422  -0.565038  4.149795
N    -1.572664  0.339998  5.034218
C    -1.591216  1.666116  5.097935
N    -2.237956  2.413060  5.984660
N    -0.821620  2.467149  4.187392
H    -1.904841  -0.157690  0.842472
H    -1.415859  1.146646  1.896478
H    -1.083358  -1.861071  2.474599
H    -2.520010  -0.987888  2.938143
H    0.222039  -0.162332  4.053293
H    -0.705396  -1.491967  4.729061
H    -2.136747  -0.135451  5.736167
H    -2.864068  1.906250  6.612834
H    -1.442665  2.750838  3.419720
H    -0.027050  1.975716  3.693995
O    2.499511  0.611376  1.060241
H    3.183540  1.129215  1.531174
Sr    -0.960824  4.396326  5.895762
