27
Energy: -103697.884832 eV PBE+vdW (tier 2 basis)
N    1.402472  -0.566496  1.043004
C    0.081909  -0.379453  1.600018
C    0.198838  0.660238  2.704993
O    1.277609  0.958329  3.229222
H    -5.550791  0.842199  -0.147883
H    1.338817  -1.180712  0.228618
H    -0.640271  0.042139  0.863013
C    -0.516741  -1.718865  2.152796
C    -1.912349  -1.773282  2.800003
C    -3.104066  -1.331144  1.926094
N    -3.593188  0.011742  2.328601
C    -4.539710  0.700504  1.633219
N    -4.936727  0.280489  0.432148
N    -5.032395  1.830888  2.149560
H    0.211060  -2.121169  2.871853
H    -0.498771  -2.410168  1.296527
H    -1.929932  -1.222353  3.754350
H    -2.083505  -2.819529  3.085265
H    -3.927793  -2.055737  2.013007
H    -2.801029  -1.281649  0.870429
H    -3.665364  0.126143  3.339794
H    -4.721628  -0.652296  0.101849
H    -4.657581  2.234501  3.000362
H    -5.811216  2.317182  1.719092
O    -0.900316  1.281888  3.129946
H    -1.669725  0.991598  2.594489
Sr    3.258650  0.262685  2.042012
