27
Energy: -103697.067885 eV PBE+vdW (tier 2 basis)
N    -0.301714  0.339109  -0.022726
C    -0.493068  0.375126  1.493664
C    0.888942  0.667994  2.095385
O    1.848713  0.969565  1.295658
H    -1.067413  0.806909  -0.524331
H    0.603867  0.802567  -0.237071
H    -1.121962  1.254880  1.703726
C    -1.209573  -0.892136  1.983603
C    -1.810953  -0.762422  3.388716
C    -2.844175  -1.879172  3.684393
N    -3.649155  -1.613730  4.850119
C    -4.592229  -0.590428  4.868808
N    -5.008060  0.098469  3.852730
N    -5.071772  -0.287139  6.125617
H    -0.528253  -1.755991  1.914774
H    -2.034931  -1.081947  1.275322
H    -2.330127  0.204853  3.474724
H    -1.023974  -0.771990  4.153092
H    -2.341205  -2.844683  3.829230
H    -3.508961  -2.009312  2.814025
H    -3.274334  -1.911459  5.744045
H    -4.593781  -0.214826  2.973009
H    -5.877851  0.330101  6.104307
H    -5.150814  -1.039264  6.802141
O    1.044011  0.648928  3.351392
H    -0.249129  -0.630542  -0.365005
Sr    3.295724  1.380910  3.198236
