27
Energy: -103699.32183 eV PBE+vdW (tier 2 basis)
N    -0.112657  0.352509  0.395019
C    -0.438981  0.264646  1.833165
C    0.755760  0.656636  2.694763
O    0.701331  0.478772  3.964035
H    -0.111869  -2.376192  -3.712918
H    -0.866031  0.836153  -0.095736
H    -1.195859  1.024643  2.106772
C    -1.030381  -1.099636  2.243905
C    -0.128990  -2.328581  1.993361
C    -0.451338  -3.143390  0.738277
N    -0.207369  -2.365968  -0.477446
C    -0.276651  -2.859507  -1.711043
N    0.067386  -2.087910  -2.759927
N    -0.671978  -4.122626  -1.934798
H    -1.990444  -1.217029  1.719754
H    -1.280516  -1.037279  3.309997
H    -0.232176  -3.018997  2.840336
H    0.934846  -2.041719  1.969138
H    -1.506580  -3.465769  0.782690
H    0.176929  -4.047322  0.724436
H    -0.081792  -1.333642  -0.332952
H    0.525225  -1.197979  -2.619642
H    -0.606879  -4.541864  -2.853832
H    -1.077318  -4.685106  -1.198704
O    1.783396  1.217866  2.162836
H    0.727481  0.925190  0.277973
Sr    2.680661  1.632733  4.290483
