27
Energy: -103698.995361 eV PBE+vdW (tier 2 basis)
N    -0.067892  0.555102  0.400018
C    -0.157470  0.435742  1.884515
C    1.258976  0.303343  2.446333
O    2.189171  -0.120654  1.755691
H    -0.983169  0.319747  0.005367
H    0.051328  1.547542  0.168672
H    -0.623676  1.340340  2.309192
C    -1.018483  -0.770414  2.344514
C    -0.475750  -2.198507  2.160474
C    -0.495098  -2.791428  0.736532
N    0.894302  -3.063524  0.225350
C    0.921127  -3.525206  -1.141733
N    1.119328  -2.572778  -2.010507
N    0.774436  -4.838371  -1.367012
H    -2.005134  -0.669568  1.864997
H    -1.216010  -0.627907  3.416762
H    -1.091734  -2.841822  2.801607
H    0.540393  -2.279034  2.577636
H    -0.975596  -2.120762  0.012767
H    -1.081333  -3.721880  0.726307
H    1.337979  -3.750739  0.842032
H    1.058646  -2.868004  -2.987390
H    0.845078  -5.225962  -2.303480
H    0.530651  -5.487489  -0.627069
O    1.487722  0.586844  3.712556
H    0.712222  0.961334  4.174570
Sr    2.068015  -0.771299  -0.575732
