27
Energy: -103697.66387 eV PBE+vdW (tier 2 basis)
N    -1.255923  0.808411  2.105990
C    -0.029806  -0.034516  2.364181
C    0.707908  -0.057203  1.015632
O    0.162688  0.313185  -0.007128
H    -1.134653  1.770226  2.438391
H    -1.328320  0.844411  1.064088
H    0.593508  0.460353  3.120805
C    -0.414201  -1.456448  2.808215
C    -0.925161  -1.599902  4.252531
C    -2.041196  -0.629248  4.680996
N    -3.079881  -0.461720  3.661310
C    -4.211142  -1.079307  3.781510
N    -4.708660  -1.937734  4.698188
N    -5.256406  -0.801724  2.768835
H    0.479096  -2.084485  2.695670
H    -1.152170  -1.850855  2.092166
H    -0.088199  -1.477728  4.955342
H    -1.272641  -2.636702  4.368367
H    -1.610198  0.368659  4.865698
H    -2.446000  -0.946925  5.655231
H    -2.144405  0.372690  2.566970
H    -4.024724  -2.237176  5.393217
H    -5.199266  0.180475  2.485957
H    -5.049440  -1.338199  1.919330
O    1.941259  -0.537513  1.128591
H    2.366084  -0.552841  0.245310
Sr    -6.983615  -1.942642  4.302109
