27
Energy: -103697.378417 eV PBE+vdW (tier 2 basis)
N    0.799456  -0.030195  -0.036503
C    1.036973  -0.627944  1.270688
C    2.059149  -1.754537  1.179644
O    2.093483  -2.761954  1.892091
H    0.333319  0.871902  0.061753
H    1.666665  0.132951  -0.546026
H    1.536539  0.063282  1.990441
C    -0.309086  -1.020530  1.922300
C    -1.226260  -1.913813  1.072898
C    -0.956319  -3.420421  1.078844
N    -1.467831  -4.151752  2.268221
C    -0.870474  -4.436974  3.418975
N    -1.343032  -5.204168  4.395716
N    0.451961  -3.963136  3.713303
H    -0.839232  -0.073920  2.099761
H    -0.131827  -1.427046  2.928679
H    -1.135886  -1.579654  0.028417
H    -2.274879  -1.744455  1.355971
H    0.106075  -3.656503  0.958553
H    -1.473916  -3.885717  0.230989
H    -2.396206  -4.554045  2.151553
H    -2.312625  -5.506236  4.286030
H    0.358459  -3.146214  4.329098
H    1.010838  -3.591703  2.900397
O    3.001063  -1.508954  0.273150
H    3.668857  -2.224475  0.294824
Sr    0.674210  -5.923221  5.387631
