27
Energy: -103698.646861 eV PBE+vdW (tier 2 basis)
N    0.944306  -0.480197  0.187458
C    -0.066208  -0.065016  1.233097
C    0.841204  0.405692  2.428874
O    0.276028  1.099048  3.354450
H    1.082920  0.226585  -0.543930
H    0.733852  -1.377403  -0.263563
H    -0.642412  0.785351  0.849347
C    -1.007194  -1.248058  1.579545
C    -1.665977  -0.983375  2.931906
C    -2.760922  -1.913688  3.465074
N    -2.772276  -1.832464  4.945372
C    -2.531991  -0.700874  5.642960
N    -2.778124  0.536444  5.263584
N    -1.793369  -0.801319  6.833318
H    -0.423655  -2.181432  1.625681
H    -1.749227  -1.359097  0.775616
H    -2.042081  0.045650  2.917922
H    -0.858331  -1.016456  3.676231
H    -2.555438  -2.964004  3.223782
H    -3.750367  -1.676294  3.049103
H    -2.765859  -2.713971  5.449443
H    -3.478703  0.592377  4.522666
H    -2.236992  -0.343200  7.629876
H    -1.447058  -1.726509  7.082283
O    2.022721  0.051976  2.380907
H    1.831515  -0.537728  0.789235
Sr    -0.553192  1.584783  5.410556
