27
Energy: -103697.478813 eV PBE+vdW (tier 2 basis)
N    0.172720  -0.282350  -0.007204
C    0.022364  -0.140652  1.441384
C    1.400580  -0.182782  2.094712
O    1.730254  -0.876567  3.060747
H    0.837278  0.395600  -0.380385
H    -0.719630  -0.103999  -0.469751
H    -0.375976  0.849851  1.756486
C    -0.938300  -1.204690  1.990909
C    -0.581531  -2.662336  1.612640
C    -0.526477  -3.616388  2.804807
N    0.549930  -3.193205  3.723088
C    1.037044  -3.848271  4.749604
N    2.029085  -3.479239  5.552399
N    0.483600  -5.146279  5.141230
H    -1.938975  -0.961167  1.609512
H    -1.012806  -1.075899  3.081567
H    0.373366  -2.695154  1.068466
H    -1.321094  -3.066560  0.910930
H    -0.332818  -4.641734  2.455234
H    -1.488015  -3.615587  3.344681
H    0.982220  -2.250599  3.496427
H    2.455083  -2.585114  5.296861
H    0.626801  -5.829273  4.387688
H    -0.535860  -5.084016  5.243473
O    2.243367  0.674962  1.527107
H    3.107382  0.636485  1.985159
Sr    2.132497  -5.159575  7.175681
