27
Energy: -103696.994374 eV PBE+vdW (tier 2 basis)
N    -0.070819  -0.110090  -0.045376
C    0.003612  -0.079022  1.480030
C    1.449352  0.310430  1.827433
O    2.261115  0.557880  0.863241
H    0.822544  0.291971  -0.400619
H    -0.148991  -1.075772  -0.393163
H    -0.646470  0.743121  1.815121
C    -0.488960  -1.412483  2.069387
C    -0.812856  -1.358467  3.567240
C    -1.311923  -2.711872  4.085633
N    -1.534766  -2.623081  5.523060
C    -2.061359  -3.716092  6.236461
N    -1.424989  -4.077333  7.294715
N    -3.200808  -4.271755  5.684048
H    0.255481  -2.199206  1.861860
H    -1.405735  -1.688279  1.521267
H    -1.578209  -0.591713  3.761826
H    0.081875  -1.061797  4.132489
H    -0.580046  -3.504245  3.826740
H    -2.252839  -2.982351  3.587381
H    -0.708496  -2.316879  6.037056
H    -1.909655  -4.803795  7.828794
H    -3.636673  -5.009258  6.227004
H    -3.871853  -3.634010  5.265898
O    1.800036  0.399877  3.039761
H    -0.868261  0.422401  -0.414742
Sr    4.002152  1.093366  2.482902
