27
Energy: -103698.541433 eV PBE+vdW (tier 2 basis)
N    -0.249579  -0.584264  0.222568
C    0.116477  -0.779875  1.654187
C    1.268145  -1.783224  1.747593
O    1.751809  -2.329637  0.750899
H    -1.176023  -0.988109  0.033729
H    -0.366846  0.418830  0.060396
H    0.556665  0.173004  1.992992
C    -1.068875  -1.071614  2.632304
C    -1.543608  -2.506539  2.950993
C    -2.315213  -3.320401  1.900002
N    -1.445806  -3.863190  0.851033
C    -1.352325  -3.501902  -0.442625
N    -0.351603  -3.848538  -1.245928
N    -2.275960  -2.608477  -0.951472
H    -1.915396  -0.460353  2.283297
H    -0.799938  -0.617554  3.598441
H    -2.221730  -2.406374  3.811380
H    -0.710872  -3.122409  3.327380
H    -3.114869  -2.717689  1.451776
H    -2.813946  -4.161244  2.400784
H    -0.721726  -4.499188  1.174494
H    0.161219  -4.651653  -0.866888
H    -2.385549  -2.696709  -1.959364
H    -3.177477  -2.555160  -0.484440
O    1.790494  -2.066460  2.924913
H    1.384037  -1.569237  3.661339
Sr    1.211476  -1.995210  -1.548562
