27
Energy: -103697.165617 eV PBE+vdW (tier 2 basis)
N    0.262436  -0.837832  -0.037787
C    -0.076117  -0.325553  1.357772
C    1.228118  0.172238  1.989304
O    1.213222  0.556831  3.196825
H    0.400536  -1.858134  -0.032805
H    -0.481626  -0.629113  -0.715835
H    -0.716084  0.559349  1.211075
C    -0.837802  -1.371991  2.174392
C    -2.170554  -1.773404  1.530703
C    -3.131816  -2.484306  2.520265
N    -4.487857  -2.547934  2.038718
C    -5.246674  -1.391933  1.863234
N    -4.963502  -0.209644  2.311738
N    -6.372251  -1.566018  1.087925
H    -1.019484  -0.913343  3.157609
H    -0.189971  -2.245352  2.360360
H    -2.017969  -2.431263  0.659201
H    -2.690563  -0.869644  1.171380
H    -3.113017  -1.952333  3.485833
H    -2.791798  -3.507150  2.727718
H    -4.735873  -3.354374  1.475957
H    -4.121808  -0.203588  2.890637
H    -7.012650  -0.779261  1.129398
H    -6.831737  -2.470347  1.099759
O    2.289313  0.217954  1.269130
H    1.154500  -0.400953  -0.335749
Sr    3.482630  1.215559  3.132541
