27
Energy: -103698.981343 eV PBE+vdW (tier 2 basis)
N    -0.706460  1.217337  0.691875
C    -0.289225  0.515771  1.936941
C    1.238583  0.524662  2.009534
O    1.938194  0.683553  1.006674
H    -0.717720  2.226102  0.877043
H    -1.686794  0.984659  0.504791
H    -0.669137  1.044555  2.827853
C    -0.867230  -0.923396  2.000469
C    -0.700174  -1.851097  0.782956
C    0.700843  -2.436540  0.516288
N    1.351311  -1.906929  -0.733566
C    0.673849  -2.230073  -1.974442
N    0.189379  -1.187816  -2.589713
N    0.619675  -3.513237  -2.355424
H    -1.944458  -0.809999  2.193019
H    -0.469660  -1.418770  2.898956
H    -1.091716  -1.374948  -0.129877
H    -1.388135  -2.688977  0.955335
H    0.636291  -3.533957  0.474432
H    1.399982  -2.205220  1.329835
H    2.303417  -2.287170  -0.764300
H    -0.298776  -1.398303  -3.463886
H    0.184048  -3.791039  -3.230173
H    1.042750  -4.253868  -1.806958
O    1.832472  0.317023  3.169669
H    1.209610  0.265686  3.921063
Sr    1.090910  0.716933  -1.259897
