27
Energy: -103697.71736 eV PBE+vdW (tier 2 basis)
N    -0.425895  -0.454123  -0.585351
C    -0.238240  -0.127794  0.835234
C    0.875341  0.946742  0.882844
O    1.441132  1.321524  1.918847
H    -1.406079  -0.545365  -0.845664
H    0.057571  -1.309508  -0.861832
H    -1.147165  0.399243  1.170097
C    -0.005311  -1.339917  1.772025
C    -0.417383  -1.158568  3.258909
C    0.712453  -1.174478  4.293530
N    1.563313  0.012512  4.139265
C    2.444345  0.507481  4.973638
N    3.196550  1.587519  4.787906
N    2.708296  -0.115185  6.274561
H    1.041030  -1.674222  1.690345
H    -0.609050  -2.157176  1.358125
H    -1.093820  -1.976316  3.538719
H    -1.002713  -0.235925  3.388978
H    1.322143  -2.085608  4.174396
H    0.274908  -1.197032  5.303101
H    1.452354  0.539639  3.201684
H    3.031824  2.048365  3.888107
H    2.946161  -1.106203  6.154403
H    1.853637  -0.118963  6.843310
O    1.160754  1.465595  -0.279817
H    0.566231  0.922378  -0.912105
Sr    4.528030  1.732532  6.693632
