27
Energy: -103698.710276 eV PBE+vdW (tier 2 basis)
N    -0.230006  -1.076700  -0.019783
C    0.173702  -0.693257  1.390401
C    1.733342  -0.623921  1.300938
O    2.333892  -0.056599  2.284925
H    -0.893702  -1.858826  -0.059070
H    -0.614233  -0.296754  -0.564298
H    -0.219256  0.309800  1.596235
C    -0.391675  -1.737111  2.379239
C    0.220090  -1.756918  3.785932
C    -0.049735  -0.530237  4.689096
N    1.065532  -0.353624  5.638164
C    2.135191  0.442645  5.411723
N    3.394822  0.209017  5.689946
N    1.957529  1.691251  4.746396
H    -0.219553  -2.736985  1.949277
H    -1.483068  -1.602684  2.436370
H    1.305881  -1.891366  3.692616
H    -0.156786  -2.655877  4.293167
H    -0.980713  -0.646928  5.257025
H    -0.159880  0.386990  4.098558
H    1.290874  -1.202981  6.154932
H    3.559054  -0.647664  6.223521
H    1.012172  1.865686  4.410204
H    2.218626  2.446287  5.386110
O    2.250739  -1.104674  0.287197
H    0.724984  -1.355480  -0.424056
Sr    4.099268  0.890797  3.390659
