27
Energy: -103696.88609 eV PBE+vdW (tier 2 basis)
N    -0.091129  1.336511  0.573896
C    0.674951  0.519461  1.500989
C    2.059413  0.094810  0.979151
O    2.377077  0.084850  -0.184164
H    0.424823  2.186929  0.343135
H    -0.201438  0.844069  -0.316571
H    0.859941  1.119911  2.409286
C    -0.111677  -0.757258  1.884153
C    -1.596902  -0.523514  2.202975
C    -1.882432  0.618193  3.174993
N    -1.197204  0.393961  4.471626
C    -1.458001  0.954761  5.639185
N    -0.865328  0.754436  6.805362
N    -2.520914  1.948055  5.738144
H    0.413392  -1.262803  2.711860
H    -0.064806  -1.474107  1.050655
H    -2.047205  -1.456991  2.571641
H    -2.131875  -0.259161  1.282010
H    -2.963819  0.692175  3.353734
H    -1.527503  1.562269  2.729909
H    -0.413641  -0.260444  4.434083
H    -0.130118  0.044520  6.801144
H    -2.424562  2.657038  5.001474
H    -3.432055  1.508265  5.558046
O    2.869506  -0.286347  2.004771
H    3.718504  -0.572589  1.610508
Sr    -1.853576  2.332387  8.257044
