27
Energy: -103697.469536 eV PBE+vdW (tier 2 basis)
N    1.008769  -1.012865  -0.240362
C    0.927548  -0.466600  1.110789
C    2.287071  -0.614729  1.816654
O    2.559894  -1.514510  2.618213
H    1.385273  -1.959641  -0.271840
H    1.512848  -0.429189  -0.904792
H    0.703308  0.609346  1.019580
C    -0.220668  -1.148481  1.870344
C    -0.510552  -0.598378  3.288741
C    -0.505250  -1.665840  4.387408
N    0.829533  -2.278072  4.456205
C    1.346137  -2.941135  5.460991
N    0.818781  -3.304832  6.622407
N    2.750777  -3.341919  5.349946
H    -0.017209  -2.231242  1.900343
H    -1.106172  -1.041698  1.233351
H    -1.495531  -0.115998  3.309378
H    0.208492  0.189030  3.564872
H    -1.251335  -2.448112  4.175807
H    -0.751878  -1.217812  5.362243
H    1.463513  -2.072502  3.631549
H    -0.176436  -3.098208  6.719320
H    3.295069  -2.608511  4.877618
H    2.821311  -4.154650  4.725386
O    3.269780  0.223467  1.481948
H    2.968361  0.895531  0.842087
Sr    2.695601  -3.983081  7.865576
