27
Energy: -103696.949425 eV PBE+vdW (tier 2 basis)
N    0.087352  -0.075011  -0.256243
C    0.198899  -0.117072  1.189159
C    1.492066  -0.845585  1.523148
O    1.955530  -1.781702  0.937300
H    0.326850  -0.978150  -0.668457
H    -0.852712  0.176246  -0.558892
H    0.291727  0.920835  1.555269
C    -0.998335  -0.808231  1.916520
C    -0.997349  -0.902384  3.452388
C    -1.050918  0.416526  4.230265
N    0.254191  1.117761  4.196127
C    0.520345  2.346244  4.590481
N    1.667812  3.001293  4.490877
N    -0.506947  3.153404  5.241348
H    -1.081402  -1.828027  1.514186
H    -1.906298  -0.276660  1.589909
H    -0.151061  -1.503671  3.819792
H    -1.894071  -1.464241  3.749725
H    -1.311817  0.207785  5.279337
H    -1.826532  1.075148  3.808608
H    1.034681  0.584930  3.763004
H    2.402553  2.489527  3.996858
H    -0.983512  2.616038  5.974564
H    -1.245779  3.392164  4.568711
O    2.110521  -0.327061  2.668565
H    2.889282  -0.898600  2.832906
Sr    1.323067  5.001189  5.681077
