27
Energy: -103698.196146 eV PBE+vdW (tier 2 basis)
N    1.679904  0.102174  0.098576
C    0.910800  -0.136258  1.300058
C    1.756012  -1.006094  2.233517
O    2.842972  -1.482513  1.877595
H    -3.040796  -0.882603  -2.312340
H    1.209060  0.810696  -0.466719
H    0.721376  0.798717  1.877061
C    -0.482040  -0.810620  1.085967
C    -1.482352  0.098687  0.360946
C    -2.889713  -0.517067  0.338374
N    -3.914214  0.371623  -0.224597
C    -4.490105  0.282025  -1.430613
N    -3.971317  -0.495871  -2.390751
N    -5.603850  0.983689  -1.686780
H    -0.917022  -1.097724  2.059515
H    -0.328193  -1.742977  0.521257
H    -1.144302  0.299718  -0.667316
H    -1.531519  1.074023  0.871684
H    -3.212112  -0.760263  1.360872
H    -2.910000  -1.466591  -0.214183
H    -4.249048  1.117871  0.377269
H    -4.512536  -0.745087  -3.209841
H    -5.938613  1.113897  -2.634106
H    -6.163358  1.380762  -0.941514
O    1.350447  -1.269295  3.465934
H    0.508900  -0.822370  3.675136
Sr    3.775615  -0.745717  -0.172087
