27
Energy: -103697.541711 eV PBE+vdW (tier 2 basis)
N    -0.480196  -0.831485  0.336572
C    0.383283  -0.437407  1.510951
C    1.842972  -0.840679  1.267625
O    2.665962  -0.912619  2.138776
H    0.019233  -0.640667  -0.540145
H    -1.350083  -0.288236  0.340347
H    0.392390  0.663647  1.547680
C    -0.172112  -0.969780  2.834690
C    -0.162144  -2.493456  3.041763
C    -1.264334  -3.309716  2.357947
N    -1.130962  -3.349204  0.893189
C    -1.597927  -4.381256  0.259596
N    -2.260564  -5.479459  0.672993
N    -1.357579  -4.480397  -1.196858
H    -1.186207  -0.563803  2.980661
H    0.445855  -0.510657  3.617402
H    -0.270680  -2.669995  4.120934
H    0.821806  -2.908116  2.776372
H    -2.255323  -2.901777  2.625326
H    -1.220362  -4.330666  2.772217
H    -0.740900  -1.934838  0.414669
H    -2.539883  -5.444672  1.653453
H    -2.024854  -3.881795  -1.694957
H    -0.430916  -4.107369  -1.420058
O    2.088860  -1.045967  -0.059431
H    3.051943  -1.189919  -0.161703
Sr    -2.115292  -6.959272  -1.095208
