27
Energy: -103698.266739 eV PBE+vdW (tier 2 basis)
N    -1.155159  -0.081819  -0.182188
C    -0.552970  -0.236415  1.134351
C    0.289702  1.004981  1.411726
O    1.373575  1.237802  0.839685
H    -1.848122  0.661404  -0.252589
H    -0.483476  -0.010836  -0.944822
H    -1.377334  -0.272476  1.865129
C    0.226308  -1.561276  1.224484
C    0.496800  -2.115701  2.643308
C    1.939575  -2.085924  3.161869
N    2.436194  -0.732647  3.457683
C    3.342564  0.004362  2.804387
N    3.766053  1.211111  3.117633
N    3.863901  -0.444583  1.556205
H    1.152976  -1.477773  0.633732
H    -0.401552  -2.276431  0.677016
H    0.195366  -3.171872  2.665668
H    -0.156650  -1.624267  3.381894
H    2.627300  -2.575637  2.459426
H    2.004852  -2.664632  4.093406
H    2.047808  -0.299940  4.293283
H    3.523864  1.520153  4.061019
H    4.861368  -0.657260  1.640867
H    3.384756  -1.251746  1.157905
O    -0.169363  1.954507  2.221792
H    -1.030924  1.712645  2.615170
Sr    3.547828  2.133678  0.881905
