27
Energy: -103698.433368 eV PBE+vdW (tier 2 basis)
N    -0.060909  0.644784  0.424154
C    0.049702  -0.391763  1.495017
C    1.528719  -0.787013  1.535276
O    2.355804  0.131998  1.614407
H    0.141080  0.223023  -0.488269
H    -1.035841  0.952680  0.366778
H    -0.045528  0.155721  2.446374
C    -1.073001  -1.432117  1.544376
C    -2.442240  -0.785843  1.865426
C    -2.576371  -0.060658  3.221232
N    -1.711140  1.122856  3.391006
C    -1.792929  2.324287  2.748689
N    -0.675525  3.040873  2.600040
N    -2.994937  2.678070  2.240014
H    -0.842663  -2.170052  2.331424
H    -1.147494  -1.981332  0.592779
H    -3.199170  -1.582391  1.857450
H    -2.748202  -0.107519  1.052350
H    -2.318412  -0.739239  4.044596
H    -3.632568  0.200861  3.381486
H    -1.014742  1.094504  4.126673
H    -0.918057  4.028117  2.461110
H    -3.086252  3.536600  1.709055
H    -3.853698  2.312079  2.638896
O    1.937509  -2.032602  1.543845
H    1.205995  -2.675922  1.457801
Sr    1.499096  2.431233  1.554039
