27
Energy: -103697.200865 eV PBE+vdW (tier 2 basis)
N    0.370788  0.788085  1.092004
C    -0.130344  -0.074256  2.246946
C    1.314599  0.184090  2.038986
O    2.102917  0.951860  2.782564
H    0.371274  0.234330  0.227620
H    -0.934283  2.568020  1.232144
H    -0.561816  0.552428  3.033895
C    -0.876329  -1.375483  2.023389
C    -2.412806  -1.239751  2.090879
C    -3.107155  -0.542669  0.911454
N    -2.646255  0.830851  0.655597
C    -2.850784  1.908558  1.432160
N    -1.890246  2.839217  1.483345
N    -3.980814  2.036853  2.140921
H    -0.580789  -2.083961  2.813585
H    -0.585329  -1.840757  1.064031
H    -2.683788  -0.731979  3.029553
H    -2.849932  -2.246254  2.159931
H    -4.193989  -0.548889  1.067407
H    -2.941609  -1.091819  -0.024428
H    -1.855545  0.928184  0.028477
H    -2.074550  3.782935  1.802367
H    -4.092813  2.788941  2.810056
H    -4.813595  1.518758  1.886895
O    2.174430  -0.906842  1.506134
H    1.675200  -1.713471  1.292736
Sr    4.096902  0.076976  2.699657
