27
Energy: -103697.007606 eV PBE+vdW (tier 2 basis)
N    1.233337  0.095598  0.523976
C    0.109019  0.140189  1.459377
C    0.529008  0.777442  2.787586
O    0.239298  0.350163  3.886905
H    1.770172  0.961888  0.554228
H    0.904805  -0.024202  -0.434267
H    -0.720547  0.786811  1.102853
C    -0.480538  -1.260439  1.686147
C    0.552918  -2.265269  2.208629
C    -0.092009  -3.603157  2.547396
N    0.927243  -4.537298  3.077393
C    0.679942  -5.611184  3.806923
N    -0.486709  -6.105349  4.171685
N    1.796914  -6.389211  4.335968
H    -0.903781  -1.614960  0.733585
H    -1.314515  -1.169364  2.396415
H    1.019481  -1.857447  3.117218
H    1.342262  -2.399544  1.452843
H    -0.564664  -4.063738  1.665245
H    -0.861790  -3.469833  3.323850
H    1.895138  -4.312247  2.851624
H    -1.295064  -5.612922  3.786925
H    2.290981  -6.868922  3.574363
H    2.494286  -5.782520  4.781157
O    1.238487  1.907334  2.582670
H    1.442171  2.295875  3.456716
Sr    0.053054  -7.839611  5.694731
