27
Energy: -103697.958226 eV PBE+vdW (tier 2 basis)
N    -0.224264  -0.972768  0.598595
C    -0.464324  -0.216152  1.845421
C    0.816066  0.333725  2.484665
O    0.710977  1.187912  3.435206
H    0.253450  -0.366626  -0.074580
H    -1.551130  -1.665523  -0.320619
H    -1.071277  0.666801  1.589243
C    -1.254473  -1.030996  2.893796
C    -2.657580  -1.442809  2.416363
C    -2.729986  -2.838882  1.757341
N    -3.754370  -2.947808  0.713485
C    -3.678107  -2.290740  -0.479776
N    -4.519827  -1.837341  -1.308018
N    -2.260250  -2.167065  -0.981655
H    -1.339946  -0.402756  3.788841
H    -0.669611  -1.916591  3.193877
H    -3.033615  -0.688509  1.707293
H    -3.352253  -1.414686  3.265696
H    -2.950692  -3.611913  2.502759
H    -1.758905  -3.125096  1.329030
H    -4.705736  -3.099502  1.039104
H    -5.496669  -1.883125  -1.006409
H    -2.355212  -1.645089  -1.863929
H    -1.882659  -3.098867  -1.203041
O    1.968868  -0.058552  2.080044
H    0.447772  -1.723228  0.789543
Sr    3.016126  1.355913  3.644589
