27
Energy: -103698.309369 eV PBE+vdW (tier 2 basis)
N    0.825416  -0.745428  0.645379
C    -0.578771  -0.882138  0.960124
C    -0.898408  -0.377339  2.350726
O    -2.029442  -0.466966  2.882248
H    0.999191  -0.977440  -0.332532
H    1.185533  0.194235  0.805475
H    -1.255667  -0.234790  0.350411
C    -1.060146  -2.334448  0.679876
C    -0.179572  -3.471768  1.224301
C    -0.407904  -3.877956  2.683749
N    -1.795187  -4.323178  2.892498
C    -2.664585  -3.758403  3.735677
N    -2.415701  -2.978010  4.765965
N    -4.051868  -3.843793  3.427655
H    -1.091879  -2.424409  -0.414488
H    -2.107607  -2.435372  1.003369
H    0.879740  -3.200375  1.119073
H    -0.326877  -4.358161  0.588935
H    -0.218922  -3.042205  3.370339
H    0.281543  -4.684065  2.967175
H    -2.134981  -5.045982  2.261718
H    -1.453204  -3.027810  5.102474
H    -4.274663  -4.280472  2.532233
H    -4.583377  -4.300090  4.173336
O    0.095358  0.251709  2.941239
H    -0.186181  0.654354  3.788212
Sr    -3.883348  -1.180466  4.121357
