27
Energy: -103699.314047 eV PBE+vdW (tier 2 basis)
N    -1.006000  0.401560  0.606160
C    -0.244612  0.490933  1.861708
C    1.202003  0.957034  1.680111
O    1.747100  0.948250  0.517184
H    -0.399307  0.022137  -0.125969
H    -3.977831  -2.075727  -0.732317
H    -0.712260  1.251823  2.506066
C    -0.258029  -0.867531  2.612973
C    -1.491682  -1.119276  3.501368
C    -2.865065  -0.817526  2.884090
N    -3.072788  -1.409266  1.563188
C    -3.778765  -2.498943  1.270945
N    -4.048832  -2.786479  -0.015920
N    -4.225300  -3.329890  2.226547
H    0.626191  -0.939620  3.259741
H    -0.157228  -1.662397  1.857934
H    -1.414161  -0.509785  4.414123
H    -1.451716  -2.167718  3.833554
H    -2.998367  0.265855  2.756630
H    -3.669130  -1.132495  3.561904
H    -2.535771  -0.916153  0.830042
H    -4.425478  -3.686074  -0.286683
H    -4.954290  -4.005635  2.033970
H    -3.908756  -3.251853  3.183498
O    1.866528  1.349269  2.707353
H    -1.274583  1.332969  0.283480
Sr    3.719682  1.834886  1.408811
