27
Energy: -103696.557429 eV PBE+vdW (tier 2 basis)
N    1.832299  -0.964417  1.959017
C    0.516710  -0.813022  2.677438
C    0.783693  -0.164560  4.036986
O    1.911065  0.303183  4.314339
H    2.110889  -1.950304  2.047966
H    1.651337  -0.858159  0.955264
H    -0.070751  -0.061417  2.120538
C    -0.297806  -2.129258  2.708118
C    -1.705279  -2.028090  3.312663
C    -2.643244  -3.195976  2.894417
N    -3.940916  -3.107048  3.535799
C    -4.731745  -1.957160  3.324735
N    -5.028154  -1.235170  4.346082
N    -5.038101  -1.745778  1.988354
H    0.286073  -2.904727  3.230371
H    -0.387609  -2.453179  1.659224
H    -2.202281  -1.092108  3.002417
H    -1.671976  -2.058881  4.417148
H    -2.189530  -4.160079  3.162228
H    -2.761554  -3.182828  1.802236
H    -3.912399  -3.296783  4.536889
H    -5.721150  -0.510685  4.133782
H    -5.248561  -2.581456  1.447782
H    -5.688346  -0.987943  1.806317
O    -0.166590  -0.029746  4.912695
H    -1.006060  -0.472240  4.634753
Sr    3.760780  0.504896  2.994704
