27
Energy: -103699.347445 eV PBE+vdW (tier 2 basis)
N    0.663101  -0.385282  0.199699
C    0.156860  -0.037587  1.537834
C    1.262357  0.283395  2.547485
O    0.944248  0.811706  3.673456
H    -0.527292  -1.410790  -0.800488
H    0.879232  0.466146  -0.322116
H    -0.427688  0.891005  1.452771
C    -0.815555  -1.096753  2.114813
C    -0.293236  -2.534609  2.255558
C    -0.243795  -3.397555  0.982067
N    -1.540408  -3.553253  0.316911
C    -1.906357  -2.987787  -0.846159
N    -1.215396  -1.969136  -1.359386
N    -2.990108  -3.464300  -1.484925
H    -1.721404  -1.084286  1.491502
H    -1.135636  -0.737881  3.102047
H    -0.930923  -3.051565  2.987835
H    0.718421  -2.549253  2.693276
H    0.107256  -4.404036  1.248287
H    0.463136  -3.010850  0.240891
H    -2.200652  -4.200293  0.735861
H    -1.393377  -1.682952  -2.314720
H    -3.409914  -2.957438  -2.254000
H    -3.374082  -4.376119  -1.269878
O    2.492339  0.035308  2.270538
H    1.557800  -0.874953  0.287649
Sr    3.165862  1.046953  4.277888
