27
Energy: -103699.123761 eV PBE+vdW (tier 2 basis)
N    0.256758  0.858347  0.026228
C    0.155070  0.213219  1.385121
C    1.455883  -0.603995  1.642921
O    2.537774  -0.041835  1.167109
H    -0.010506  0.155647  -0.673941
H    -0.477777  1.569624  -0.048083
H    0.179106  1.043496  2.112009
C    -1.125789  -0.604092  1.599007
C    -1.427325  -0.827520  3.089234
C    -2.446185  -1.928689  3.392332
N    -2.182025  -3.268648  2.815390
C    -1.226128  -4.138744  3.205482
N    -0.017022  -3.708625  3.571183
N    -1.507088  -5.451933  3.205528
H    -1.018802  -1.570467  1.081524
H    -1.974800  -0.083130  1.129843
H    -1.837421  0.095504  3.527003
H    -0.499901  -1.024385  3.640145
H    -3.429994  -1.647668  2.996507
H    -2.553142  -2.025011  4.482528
H    -2.978889  -3.697071  2.356154
H    0.628870  -4.358824  4.005114
H    -0.770039  -6.147104  3.230775
H    -2.461714  -5.788381  3.250846
O    1.435116  -1.664598  2.254818
H    0.396676  -2.859447  3.157409
Sr    2.764632  1.535729  -0.318059
