27
Energy: -103698.539618 eV PBE+vdW (tier 2 basis)
N    -0.060618  0.990142  1.619653
C    0.520690  0.003902  2.584309
C    2.033625  0.247765  2.548800
O    2.425082  1.420033  2.625614
H    0.288977  0.788917  0.676311
H    -1.068648  0.827051  1.560019
H    0.274244  0.377660  3.590813
C    -0.063821  -1.409012  2.519658
C    -1.581323  -1.439232  2.827183
C    -2.041411  -0.808419  4.156730
N    -1.927796  0.660713  4.161956
C    -1.311683  1.445295  5.092745
N    -0.746630  2.589860  4.695159
N    -1.250437  0.977624  6.357514
H    0.450437  -2.036328  3.267122
H    0.109103  -1.866200  1.532838
H    -1.897741  -2.491252  2.840072
H    -2.154083  -0.995647  1.994914
H    -1.435608  -1.192736  4.988695
H    -3.081523  -1.107785  4.348315
H    -2.383931  1.172619  3.414710
H    -0.637129  3.209455  5.505559
H    -0.689395  1.454171  7.054132
H    -1.944639  0.325914  6.707844
O    2.908609  -0.727449  2.496701
H    2.493271  -1.608853  2.412903
Sr    0.737558  3.188136  2.806465
