27
Energy: -103697.688559 eV PBE+vdW (tier 2 basis)
N    1.007286  -0.740748  0.173283
C    0.774138  -0.619065  1.628986
C    1.819246  -1.315618  2.479440
O    1.713181  -1.628379  3.624468
H    0.181810  -0.369762  -0.304295
H    1.769994  -0.120819  -0.111153
H    0.903396  0.435681  1.947594
C    -0.676645  -0.991642  2.023159
C    -1.111737  -2.451200  2.242167
C    -0.790667  -3.511031  1.174657
N    0.487479  -4.192794  1.447883
C    1.615287  -4.215903  0.736754
N    2.731904  -4.850054  1.041991
N    1.743020  -3.393157  -0.430499
H    -1.319104  -0.528669  1.257982
H    -0.908204  -0.453667  2.951437
H    -2.204411  -2.422521  2.353387
H    -0.739000  -2.807929  3.213712
H    -0.766102  -3.099808  0.159220
H    -1.569313  -4.285449  1.180519
H    0.504619  -4.724171  2.317659
H    2.664238  -5.504495  1.824317
H    1.255834  -2.459519  -0.345102
H    1.456464  -3.892131  -1.276783
O    3.125764  -1.476429  1.842881
H    3.697978  -1.507531  2.640418
Sr    4.212890  -3.199403  0.151515
