27
Energy: -103697.740672 eV PBE+vdW (tier 2 basis)
N    0.383060  1.102513  0.772918
C    0.420936  -0.201425  1.528373
C    0.726668  -1.343835  0.520784
O    1.496225  -1.008375  -0.468344
H    -0.563078  1.212283  0.386787
H    0.458753  1.867790  1.451142
H    1.309085  -0.144187  2.180663
C    -0.825393  -0.431441  2.402040
C    -0.641573  -1.399718  3.605135
C    -1.559470  -2.624765  3.612304
N    -1.077273  -3.681742  2.658114
C    -2.137811  -4.644228  2.082526
N    -3.292995  -4.817362  2.547854
N    -1.584955  -5.327324  1.046974
H    -1.653940  -0.765384  1.758090
H    -1.133558  0.544546  2.801786
H    -0.853323  -0.853014  4.532667
H    0.407467  -1.721416  3.697789
H    -2.578337  -2.354398  3.307782
H    -1.612756  -3.069395  4.612346
H    -0.366518  -4.267509  3.115908
H    -3.531062  -4.349613  3.421078
H    -2.186783  -6.012531  0.599865
H    -0.864264  -4.913198  0.465946
O    0.278789  -2.481594  0.686777
H    -0.575638  -3.191839  1.855272
Sr    2.095706  0.972236  -1.209422
