27
Energy: -103698.418074 eV PBE+vdW (tier 2 basis)
N    1.242526  -0.635544  1.232655
C    0.002844  -0.203902  1.880404
C    0.139312  -0.368315  3.389451
O    1.175907  -0.768981  3.938843
H    1.145411  -0.535620  0.219381
H    2.011846  -0.014452  1.490440
H    -0.181753  0.885559  1.764063
C    -1.238105  -0.903706  1.234901
C    -1.068598  -2.358105  0.759839
C    -1.390880  -3.493021  1.739295
N    -0.806271  -3.410662  3.097100
C    0.459348  -3.658404  3.479264
N    0.868228  -3.933989  4.697278
N    1.529482  -3.454457  2.561720
H    -1.487301  -0.297093  0.354318
H    -2.114001  -0.814024  1.896175
H    -0.072887  -2.499500  0.319356
H    -1.759608  -2.508542  -0.082103
H    -1.116397  -4.455334  1.284197
H    -2.473779  -3.528135  1.908835
H    -1.485330  -3.445117  3.853300
H    0.129591  -4.210761  5.347477
H    1.342458  -2.789139  1.796488
H    1.928398  -4.331849  2.222691
O    -0.863541  -0.010030  4.171373
H    -1.618028  0.357950  3.669484
Sr    2.732131  -2.387604  4.663457
