27
Energy: -103697.922575 eV PBE+vdW (tier 2 basis)
N    -1.093660  -0.700039  0.662257
C    -0.506631  -0.055894  1.842253
C    0.669713  0.860873  1.444881
O    0.959550  1.052269  0.250729
H    -0.871355  -1.701216  0.726661
H    -4.947894  -0.227343  1.173566
H    -1.232270  0.679055  2.257610
C    -0.148756  -1.024173  2.995695
C    -1.322039  -1.472165  3.883270
C    -2.371863  -2.415278  3.283393
N    -3.228364  -1.758818  2.289853
C    -4.532801  -1.989057  2.137360
N    -5.249660  -1.180487  1.327645
N    -5.153322  -3.005049  2.754000
H    0.589421  -0.564130  3.671984
H    0.370808  -1.896546  2.565196
H    -1.832998  -0.590426  4.300075
H    -0.893322  -2.006007  4.743455
H    -3.006164  -2.766830  4.107488
H    -1.886819  -3.301059  2.839892
H    -2.711903  -1.226412  1.547886
H    -6.210946  -1.400235  1.096396
H    -6.163790  -3.046587  2.813979
H    -4.636089  -3.773703  3.161006
O    1.345701  1.544139  2.346095
H    1.069184  1.331815  3.258613
Sr    -0.357002  0.111401  -1.431740
