27
Energy: -103697.550121 eV PBE+vdW (tier 2 basis)
N    -0.312767  -0.578200  -0.792715
C    -0.798449  -0.139822  0.522062
C    0.382808  0.430658  1.307219
O    0.778562  0.040945  2.407077
H    -1.106446  -0.781049  -1.403720
H    0.206000  0.171608  -1.252656
H    -1.508324  0.712162  0.468522
C    -1.538799  -1.280418  1.248622
C    -0.970613  -2.704035  1.084658
C    0.452077  -2.952142  1.572964
N    0.563074  -2.646070  3.049045
C    1.873537  -2.867919  3.595211
N    2.045493  -4.091303  4.049085
N    2.713212  -1.837576  3.613313
H    -2.562914  -1.304670  0.850266
H    -1.655501  -1.007487  2.308346
H    -0.988107  -2.987758  0.023961
H    -1.672574  -3.400729  1.587585
H    1.170271  -2.344250  1.004459
H    0.749711  -4.003100  1.405119
H    0.331101  -1.636934  3.121779
H    2.983011  -4.312067  4.388322
H    2.420826  -0.941700  3.216365
H    3.630234  -1.899942  4.046122
O    0.942565  1.447659  0.659507
H    1.669904  1.828849  1.192617
Sr    -0.225710  -4.800008  4.114550
