27
Energy: -103697.47533 eV PBE+vdW (tier 2 basis)
N    -0.544250  1.320149  1.454373
C    -0.085814  0.148383  2.200483
C    0.992387  -0.568993  1.388253
O    0.808294  -1.581214  0.698822
H    0.156122  2.059883  1.418749
H    -0.831099  1.097031  0.500759
H    0.382946  0.513915  3.126476
C    -1.303506  -0.724406  2.541655
C    -1.131702  -1.840794  3.587733
C    -0.206836  -3.006569  3.239332
N    -0.622190  -3.629424  1.926530
C    0.219033  -4.723711  1.514746
N    -0.230617  -5.897078  1.907315
N    1.287881  -4.429832  0.783382
H    -1.733290  -1.120023  1.605652
H    -2.056716  -0.024624  2.926411
H    -2.141501  -2.231738  3.821163
H    -0.771181  -1.413887  4.535806
H    -0.236206  -3.780952  4.024857
H    0.842817  -2.686345  3.174476
H    -0.523552  -2.859250  1.237414
H    0.366491  -6.696448  1.688992
H    1.892177  -5.152322  0.402298
H    1.488901  -3.448987  0.559844
O    2.161456  0.067737  1.434397
H    2.787923  -0.331797  0.797169
Sr    -2.452774  -5.295521  2.501148
