27
Energy: -103697.906487 eV PBE+vdW (tier 2 basis)
N    0.005304  0.638434  0.369133
C    0.098591  0.548775  1.830078
C    1.558698  0.719648  2.292178
O    2.472590  0.941372  1.479750
H    -0.364791  -0.256601  0.030397
H    -3.136701  3.044173  -0.583725
H    -0.390421  1.435269  2.295264
C    -0.571348  -0.706415  2.447879
C    -2.094767  -0.631060  2.646956
C    -2.948978  -0.424457  1.388302
N    -2.869656  0.927800  0.827379
C    -3.776284  1.892553  0.990250
N    -3.648626  3.036971  0.288582
N    -4.804411  1.768970  1.841999
H    -0.136077  -0.937123  3.433092
H    -0.311099  -1.571650  1.816097
H    -2.333382  0.155579  3.380917
H    -2.413881  -1.578979  3.104008
H    -3.999996  -0.662210  1.595628
H    -2.645233  -1.123319  0.595141
H    -1.945096  1.156235  0.407218
H    -4.250296  3.830307  0.474043
H    -5.605715  2.386707  1.790382
H    -4.845114  1.021247  2.521740
O    1.875305  0.722877  3.572384
H    1.108305  0.531122  4.145743
Sr    1.971889  1.224497  -0.785608
