27
Energy: -103697.203959 eV PBE+vdW (tier 2 basis)
N    0.342936  -0.321372  0.020967
C    -0.095142  -0.119837  1.388905
C    1.060418  -0.268555  2.370222
O    0.936668  -0.448345  3.584503
H    -0.372586  -0.023157  -0.640698
H    1.199272  0.185659  -0.195516
H    -0.468946  0.909968  1.605248
C    -1.256405  -1.101333  1.674812
C    -2.017596  -0.893395  3.002372
C    -1.788112  -2.033990  3.997983
N    -2.331568  -1.735841  5.367115
C    -1.491546  -1.065934  6.329171
N    -1.969452  -1.194728  7.561349
N    -0.371868  -0.484182  5.944816
H    -0.868781  -2.126988  1.587653
H    -1.957370  -0.986049  0.838787
H    -3.097564  -0.819140  2.801528
H    -1.726199  0.066229  3.454792
H    -0.723351  -2.273129  4.104782
H    -2.288747  -2.946376  3.645736
H    -3.168193  -1.149252  5.251140
H    -1.491209  -0.633541  8.268420
H    0.261079  -0.110660  6.647485
H    -0.033083  -0.435180  4.955052
O    2.253596  -0.133360  1.802696
H    2.946136  -0.188490  2.492761
Sr    -3.163905  -3.208750  7.394284
