27
Energy: -103698.654156 eV PBE+vdW (tier 2 basis)
N    -0.092457  -2.377700  1.405892
C    -0.456234  -0.953842  1.670564
C    0.299441  -0.518804  2.914318
O    0.726680  -1.315477  3.759749
H    -0.744894  -2.743509  0.705306
H    0.820395  -2.404903  0.937175
H    -0.119853  -0.290528  0.859491
C    -2.011692  -0.854064  1.762209
C    -2.703440  0.179158  2.669112
C    -2.832779  -0.186950  4.166403
N    -3.250941  -1.590280  4.346252
C    -2.425925  -2.599501  4.706229
N    -2.400945  -3.834103  4.258641
N    -1.369313  -2.341991  5.617762
H    -2.370925  -1.859651  2.031861
H    -2.358278  -0.683472  0.734780
H    -3.719538  0.309534  2.269351
H    -2.236731  1.171082  2.591583
H    -3.565795  0.476745  4.641813
H    -1.885293  -0.030318  4.696452
H    -4.025645  -1.874652  3.748603
H    -3.187419  -4.083488  3.654444
H    -1.458824  -2.969147  6.421136
H    -1.305474  -1.384282  5.958612
O    0.461492  0.786952  2.995795
H    0.985839  1.024823  3.790630
Sr    0.065950  -3.691622  3.793703
