27
Energy: -103697.321205 eV PBE+vdW (tier 2 basis)
N    0.569531  0.510454  0.138134
C    0.523572  -0.165431  1.414870
C    1.905622  -0.208479  2.059991
O    2.111090  -0.517831  3.242015
H    -0.357291  0.590268  -0.276580
H    0.981626  1.440514  0.184172
H    -0.113547  0.319750  2.189543
C    -0.060669  -1.589847  1.175813
C    -0.491803  -2.384836  2.418913
C    0.633568  -3.261857  2.987605
N    0.420243  -3.712069  4.381840
C    0.500359  -2.970366  5.481752
N    0.400493  -3.379253  6.737942
N    0.766920  -1.556481  5.392790
H    0.636212  -2.163020  0.547040
H    -0.949632  -1.428199  0.551411
H    -1.345465  -3.027222  2.166096
H    -0.864794  -1.684258  3.181868
H    1.603315  -2.754289  2.942374
H    0.734166  -4.177572  2.393815
H    0.264103  -4.708530  4.519218
H    0.144892  -4.360553  6.862119
H    -0.131938  -1.062099  5.341379
H    1.284569  -1.241135  4.526262
O    2.896084  0.130282  1.247850
H    3.740731  0.088647  1.742138
Sr    1.478315  -1.604450  7.867752
