27
Energy: -103697.321178 eV PBE+vdW (tier 2 basis)
N    0.125202  -0.216931  0.441908
C    0.018362  0.311476  1.785674
C    0.952746  1.498105  1.993128
O    1.116682  2.071687  3.074113
H    -0.417526  -1.072805  0.337644
H    1.084574  -0.413202  0.162748
H    0.315126  -0.393051  2.595439
C    -1.471561  0.680102  2.031622
C    -1.869695  1.030226  3.476835
C    -1.943276  2.543323  3.727115
N    -2.028373  2.882073  5.161492
C    -0.972046  2.937269  5.966133
N    0.287249  2.725156  5.672799
N    -1.176733  3.314433  7.366280
H    -2.040026  -0.206367  1.720970
H    -1.760918  1.471788  1.325092
H    -1.156350  0.570886  4.178113
H    -2.850379  0.591397  3.705733
H    -2.829141  2.978297  3.248981
H    -1.066532  3.061987  3.320672
H    -2.952967  3.003444  5.566832
H    0.498065  2.407263  4.701368
H    -1.642310  2.555333  7.876892
H    -1.797233  4.126784  7.449379
O    1.618322  1.858453  0.899236
H    2.209765  2.605019  1.124703
Sr    1.449188  3.416443  7.583252
