27
Energy: -103697.855395 eV PBE+vdW (tier 2 basis)
N    0.023617  0.672706  -0.216409
C    0.211694  0.372939  1.216295
C    1.547053  -0.318277  1.515214
O    1.909275  -0.454494  2.736660
H    -1.481950  0.894612  -0.641378
H    0.608997  1.463325  -0.496116
H    0.258750  1.331128  1.755940
C    -0.969380  -0.412824  1.830184
C    -1.347993  -1.772823  1.198783
C    -2.563727  -1.803670  0.249164
N    -2.293985  -1.554557  -1.178271
C    -2.553889  -0.419880  -1.899075
N    -2.682005  -0.188428  -3.138001
N    -2.527257  0.816496  -1.069735
H    -1.843983  0.255357  1.844874
H    -0.716811  -0.564352  2.887489
H    -1.599591  -2.451546  2.025037
H    -0.490445  -2.239452  0.688475
H    -3.349233  -1.124498  0.615766
H    -3.014371  -2.802688  0.298544
H    -2.278165  -2.390567  -1.754591
H    -2.687004  -1.016463  -3.739087
H    -2.724722  1.585030  -1.724064
H    -3.233473  0.827393  -0.325110
O    2.292317  -0.737307  0.558687
H    0.347408  -0.118903  -0.781557
Sr    3.962798  -1.342446  2.113409
