27
Energy: -103697.318046 eV PBE+vdW (tier 2 basis)
N    0.294372  0.794155  0.705180
C    0.288239  0.186814  2.018575
C    1.699522  0.034495  2.577661
O    1.938944  -0.258566  3.755966
H    -0.642996  0.832034  0.307577
H    0.675072  1.739162  0.703561
H    -0.234724  0.781879  2.799071
C    -0.424515  -1.190880  1.894047
C    -0.451850  -2.110082  3.121454
C    -1.068734  -1.438261  4.352459
N    -0.957210  -2.222130  5.603182
C    0.134448  -2.393510  6.340646
N    0.232717  -3.008604  7.510957
N    1.391133  -1.833688  5.922218
H    0.041577  -1.727106  1.056343
H    -1.456410  -0.971275  1.579266
H    0.567710  -2.453598  3.347095
H    -1.028669  -3.011466  2.870914
H    -2.141874  -1.268731  4.202904
H    -0.621441  -0.451790  4.531745
H    -1.821104  -2.610817  5.975658
H    -0.608514  -3.496924  7.822906
H    1.923748  -2.568902  5.440521
H    1.344279  -1.071978  5.202682
O    2.664945  0.261011  1.697099
H    3.530015  0.163434  2.145132
Sr    2.181094  -1.989291  8.381245
