27
Energy: -103696.961356 eV PBE+vdW (tier 2 basis)
N    0.340287  -0.809102  -0.132859
C    0.115250  -0.391006  1.248380
C    1.444593  -0.180509  1.999561
O    1.910893  -0.959747  2.807740
H    0.713289  -0.050520  -0.702723
H    0.987362  -1.596550  -0.194859
H    -0.411308  0.574894  1.216291
C    -0.742699  -1.437307  1.971740
C    -1.228860  -0.986905  3.354643
C    -1.791984  -2.121023  4.205364
N    -2.948621  -2.766871  3.543036
C    -3.713029  -3.694447  4.093659
N    -3.621833  -4.218264  5.298912
N    -4.828851  -4.250565  3.332145
H    -0.147119  -2.358767  2.072353
H    -1.581112  -1.656924  1.289803
H    -1.971499  -0.178218  3.269787
H    -0.385189  -0.579480  3.928390
H    -2.128388  -1.740635  5.181940
H    -1.018659  -2.887803  4.374094
H    -3.117708  -2.501751  2.573762
H    -2.841666  -3.867460  5.857881
H    -4.489937  -4.719777  2.484257
H    -5.455250  -3.506510  3.004691
O    2.050721  0.955215  1.600406
H    2.919570  1.008862  2.047676
Sr    -5.450211  -5.729111  5.439553
