27
Energy: -103696.911504 eV PBE+vdW (tier 2 basis)
N    0.016435  -0.425125  -0.316758
C    0.199000  -0.252486  1.156069
C    1.707691  -0.095401  1.387470
O    2.420457  0.427884  0.504486
H    0.236707  -1.409415  -0.521782
H    -1.009142  -0.388468  -0.584003
H    -0.192125  0.750950  1.410970
C    -0.556913  -1.243889  2.064524
C    -0.451191  -2.760373  1.756992
C    -1.794084  -3.419186  1.362976
N    -2.307821  -3.022834  0.049668
C    -2.815322  -1.773934  -0.254227
N    -2.587593  -1.109193  -1.358769
N    -3.544529  -1.158307  0.741421
H    -1.611189  -0.936805  2.024589
H    -0.274804  -1.036904  3.111677
H    -0.072448  -3.288465  2.643167
H    0.291399  -2.969797  0.966439
H    -2.546526  -3.219274  2.137831
H    -1.668753  -4.508830  1.345124
H    -1.873847  -3.493194  -0.738120
H    -2.072166  -1.692652  -2.026535
H    -4.073777  -0.361007  0.398591
H    -4.093903  -1.764865  1.343682
O    2.270233  -0.439027  2.511797
H    1.631397  -0.849494  3.131808
Sr    1.644452  1.065516  -1.585813
