27
Energy: -103697.85494 eV PBE+vdW (tier 2 basis)
N    -0.006123  0.811892  0.477390
C    0.041393  -0.151592  1.636630
C    1.483925  -0.715895  1.778212
O    2.424868  0.067891  1.337742
H    -0.202230  0.263064  -0.369435
H    -0.842870  1.395004  0.583979
H    -0.114918  0.458458  2.543198
C    -1.064876  -1.216970  1.563694
C    -1.264461  -2.022865  2.870034
C    -1.042277  -3.534263  2.675625
N    -0.856200  -4.272494  3.927268
C    0.274646  -4.267935  4.688807
N    0.527969  -4.489239  5.908147
N    1.533760  -4.049139  3.882684
H    -0.842530  -1.898328  0.725823
H    -2.003675  -0.709989  1.300680
H    -2.274849  -1.853064  3.264754
H    -0.574216  -1.661623  3.644928
H    -0.174136  -3.704528  2.024261
H    -1.895380  -3.990876  2.157730
H    -1.701259  -4.487444  4.449935
H    -0.289562  -4.632133  6.506456
H    2.285881  -4.045002  4.586086
H    1.699924  -4.833506  3.237000
O    1.689140  -1.807713  2.307576
H    1.557832  -3.153976  3.324749
Sr    2.325455  1.945485  0.207329
