27
Energy: -103699.089458 eV PBE+vdW (tier 2 basis)
N    -2.243493  0.146297  1.770757
C    -1.379591  -0.888020  2.410585
C    -0.131506  -0.193109  2.957733
O    0.279747  0.865121  2.468504
H    -2.951690  -0.336263  1.209484
H    -2.785746  0.611920  2.507265
H    -1.911292  -1.374858  3.245208
C    -0.960363  -2.003099  1.417610
C    -0.123001  -1.598705  0.190261
C    -0.933080  -1.123493  -1.032859
N    -0.109380  -0.791166  -2.177551
C    0.442580  0.424739  -2.417892
N    0.264276  1.434949  -1.563445
N    1.161103  0.545514  -3.553936
H    -1.879741  -2.522678  1.103063
H    -0.399055  -2.751614  1.994207
H    0.445864  -2.483557  -0.127305
H    0.650079  -0.858408  0.452653
H    -1.580179  -0.256982  -0.815367
H    -1.624750  -1.919040  -1.343620
H    0.080904  -1.535009  -2.839086
H    0.705926  2.267323  -1.966399
H    1.236724  -0.202889  -4.232182
H    1.626470  1.412763  -3.787758
O    0.560579  -0.751175  3.926420
H    0.145615  -1.558998  4.288185
Sr    -0.671999  2.016436  0.596465
