27
Energy: -103698.864247 eV PBE+vdW (tier 2 basis)
N    -1.030674  1.405149  0.830930
C    -0.836295  0.472441  1.951530
C    0.686662  0.258891  2.040135
O    1.203543  -0.578881  2.814085
H    -1.472345  0.983713  0.014241
H    -1.564902  2.234062  1.087929
H    -1.125589  0.975327  2.887861
C    -1.560633  -0.882266  1.892419
C    -1.194545  -1.779078  0.692749
C    -1.313976  -3.274674  1.008593
N    -0.116533  -3.804552  1.721671
C    1.084174  -4.089684  0.988535
N    2.160278  -4.128416  1.734825
N    1.021332  -4.234213  -0.340147
H    -2.644469  -0.706668  1.916910
H    -1.329550  -1.403292  2.834966
H    -0.173091  -1.573424  0.331395
H    -1.854526  -1.560622  -0.157722
H    -1.526601  -3.852987  0.096168
H    -2.170676  -3.458137  1.670281
H    -0.368725  -4.649644  2.241239
H    2.994255  -4.470399  1.252774
H    1.865474  -4.380213  -0.884927
H    0.141752  -4.374157  -0.824257
O    1.374991  0.994293  1.239800
H    0.594935  1.511069  0.747638
Sr    1.679718  -2.665655  3.617590
