27
Energy: -103698.005575 eV PBE+vdW (tier 2 basis)
N    0.868950  0.972889  0.219196
C    0.056561  0.254238  1.270326
C    0.996362  -0.091690  2.459433
O    2.223719  -0.365690  2.120958
H    0.869073  1.970890  0.465259
H    0.348800  0.942101  -0.663645
H    -0.219001  -0.716755  0.823315
C    -1.214165  1.027946  1.670737
C    -2.467537  0.213591  2.055690
C    -2.414895  -0.744911  3.243355
N    -1.915426  -0.090808  4.521155
C    -2.648788  1.127191  4.986174
N    -2.059624  2.215517  4.710125
N    -3.840912  0.831406  5.565981
H    -1.523373  1.634863  0.806577
H    -0.972388  1.741609  2.472773
H    -2.790443  -0.400025  1.200143
H    -3.279952  0.935919  2.217207
H    -1.725585  -1.582253  3.075881
H    -3.411850  -1.157878  3.436994
H    -1.876911  -0.796862  5.268462
H    -2.553890  3.050169  5.037779
H    -4.077827  -0.100181  5.887722
H    -4.388406  1.584559  5.968281
O    0.580148  -0.122590  3.616012
H    -0.907541  0.170239  4.307200
Sr    3.334936  0.092309  0.296649
