27
Energy: -103697.968887 eV PBE+vdW (tier 2 basis)
N    0.118374  -1.274888  0.149303
C    0.226982  -0.412254  1.349428
C    1.641528  -0.420025  1.928580
O    1.898817  0.316305  2.944312
H    -1.214983  -2.301401  0.293189
H    -0.018254  -0.705169  -0.687283
H    0.060266  0.639177  1.065856
C    -0.828829  -0.752476  2.433220
C    -0.958853  -2.256197  2.759893
C    -2.139205  -2.969269  2.098210
N    -2.156017  -2.781285  0.587646
C    -2.503511  -3.968256  -0.249557
N    -3.563459  -3.799586  -0.920847
N    -1.641952  -5.010573  -0.093444
H    -1.795693  -0.344941  2.103207
H    -0.572333  -0.185375  3.336354
H    -1.100859  -2.382953  3.841573
H    -0.024311  -2.790480  2.522898
H    -3.096286  -2.590845  2.475284
H    -2.109032  -4.046241  2.295058
H    -2.903487  -2.125128  0.323064
H    -3.819504  -4.576580  -1.535650
H    -1.788318  -5.845495  -0.649227
H    -0.711622  -4.889004  0.286545
O    2.564908  -1.127260  1.383395
H    1.007175  -1.766206  0.011575
Sr    4.167457  -0.153868  2.824864
