27
Energy: -103698.595508 eV PBE+vdW (tier 2 basis)
N    0.325590  -0.734197  0.426226
C    -0.189274  0.236259  1.433045
C    0.969157  0.573925  2.368793
O    1.903294  -0.209291  2.554926
H    -0.476057  -1.138411  -0.067646
H    0.838547  -0.222106  -0.300207
H    -0.512510  1.174612  0.951283
C    -1.427281  -0.402851  2.144801
C    -1.743698  -0.092158  3.628876
C    -1.521951  -1.259736  4.609907
N    -0.117791  -1.658867  4.760714
C    0.566780  -2.617684  4.109550
N    1.858609  -2.844974  4.150518
N    -0.088910  -3.407896  3.131953
H    -1.311513  -1.487554  2.017138
H    -2.295435  -0.130783  1.531403
H    -2.803056  0.184999  3.711987
H    -1.193128  0.784252  3.998592
H    -2.123487  -2.134552  4.323961
H    -1.885881  -0.970564  5.604269
H    0.447880  -1.064917  5.362457
H    2.350848  -2.350172  4.897777
H    0.124723  -4.395926  3.286105
H    -1.098739  -3.291854  3.069482
O    0.975373  1.726761  3.011887
H    0.249077  2.321458  2.739471
Sr    2.098588  -2.463755  1.713788
