27
Energy: -103697.689795 eV PBE+vdW (tier 2 basis)
N    1.223578  0.391910  2.794599
C    0.508169  -0.756223  3.384720
C    1.483632  -1.936170  3.591300
O    2.654687  -1.698749  3.945814
H    1.305070  0.184384  1.788625
H    -0.097897  1.747565  2.082276
H    0.248407  -0.491152  4.430902
C    -0.817714  -1.085002  2.676955
C    -1.885416  -0.025120  3.014703
C    -2.811901  0.369600  1.869133
N    -2.156965  0.884770  0.639023
C    -1.457987  2.032058  0.519827
N    -0.607773  2.427461  1.476271
N    -1.608617  2.769222  -0.592336
H    -1.216621  -2.071843  2.968096
H    -0.631508  -1.129621  1.592010
H    -1.402633  0.873583  3.420112
H    -2.532818  -0.392305  3.823529
H    -3.535745  1.116524  2.227120
H    -3.387715  -0.501125  1.531793
H    -2.589922  0.569304  -0.223936
H    -0.259914  3.379199  1.449717
H    -0.932186  3.476738  -0.855002
H    -2.433578  2.682483  -1.175227
O    1.135555  -3.194515  3.438879
H    0.202388  -3.276517  3.159048
Sr    3.379038  0.528067  3.785614
