27
Energy: -103697.982417 eV PBE+vdW (tier 2 basis)
N    -0.827818  -0.310001  -0.275279
C    -0.288519  -0.149277  1.089044
C    1.235315  -0.015643  1.146846
O    1.941988  -0.159693  0.086098
H    -0.599600  -1.243396  -0.631519
H    -2.531743  -0.040367  -0.441218
H    -0.670540  0.804221  1.490125
C    -0.733752  -1.299056  2.028491
C    -2.208056  -1.697962  1.892688
C    -3.223762  -0.565874  2.146106
N    -4.486083  -0.746815  1.421194
C    -4.586426  -0.725716  0.059888
N    -5.375173  -1.243706  -0.782888
N    -3.591868  0.203919  -0.588869
H    -0.497992  -0.999011  3.058004
H    -0.121416  -2.190113  1.819395
H    -2.404426  -2.529617  2.583212
H    -2.385523  -2.113704  0.889279
H    -2.806770  0.416972  1.879302
H    -3.473399  -0.486333  3.210469
H    -5.179448  -1.335595  1.875208
H    -6.057319  -1.901446  -0.396525
H    -3.823301  0.143019  -1.590595
H    -3.749806  1.173534  -0.282942
O    1.788513  0.243896  2.274049
H    -0.349178  0.334806  -0.910606
Sr    3.908719  0.216707  1.321241
