27
Energy: -103697.882986 eV PBE+vdW (tier 2 basis)
N    -0.041934  -0.192087  -0.140605
C    0.132414  -0.059662  1.321982
C    1.602028  -0.094150  1.753442
O    1.908897  0.261021  2.944888
H    -1.530643  -0.845597  -0.411128
H    0.091017  0.704781  -0.612767
H    -0.250107  0.922205  1.639931
C    -0.655355  -1.170494  2.059901
C    -2.177779  -0.944717  2.207332
C    -2.958482  -0.413242  0.999715
N    -2.590503  -1.133685  -0.270164
C    -3.346744  -0.854172  -1.559446
N    -3.493870  -1.722906  -2.461382
N    -3.692420  0.460544  -1.683757
H    -0.251753  -1.287020  3.073838
H    -0.450533  -2.121942  1.542787
H    -2.361238  -0.230082  3.022427
H    -2.623466  -1.893065  2.541618
H    -2.731236  0.646542  0.825691
H    -4.037266  -0.514139  1.170732
H    -2.644984  -2.147692  -0.123848
H    -3.082736  -2.642842  -2.298814
H    -4.198581  0.662798  -2.543227
H    -4.031316  0.975381  -0.878731
O    2.503334  -0.486660  0.929909
H    0.684304  -0.812509  -0.512535
Sr    4.175989  -0.097383  2.544572
