27
Energy: -103697.54212 eV PBE+vdW (tier 2 basis)
N    -0.180214  0.344210  0.290478
C    0.040765  -0.053166  1.684892
C    1.468921  -0.543320  1.870225
O    2.173744  -0.962580  0.937581
H    -1.163568  0.604211  0.174509
H    0.352408  1.189196  0.068135
H    -0.091436  0.789558  2.390065
C    -0.985801  -1.145436  2.114070
C    -1.195041  -2.347183  1.178849
C    -0.048403  -3.376381  1.105695
N    0.605470  -3.605842  -0.254426
C    -0.004469  -3.070651  -1.460167
N    -0.590507  -3.881226  -2.233945
N    0.418053  -1.724875  -1.696412
H    -1.948427  -0.624430  2.221756
H    -0.735763  -1.495454  3.126883
H    -1.491118  -2.011011  0.176039
H    -2.085934  -2.868430  1.552279
H    -0.430860  -4.355186  1.414464
H    0.749634  -3.128613  1.818047
H    0.568014  -4.617705  -0.410126
H    -0.906353  -3.490857  -3.127925
H    0.156777  -1.022159  -0.946738
H    0.069230  -1.377348  -2.591686
O    1.989832  -0.561297  3.078267
H    1.403601  -0.165845  3.755002
Sr    2.784360  -2.335156  -0.828950
