27
Energy: -103698.385342 eV PBE+vdW (tier 2 basis)
N    -0.327096  0.585239  2.392715
C    0.672051  -0.440007  2.384400
C    2.023372  -0.186416  3.063271
O    2.812207  -1.130140  3.292471
H    -0.637155  0.860256  3.322405
H    -0.068524  1.418372  1.865958
H    0.277745  -1.294743  2.963830
C    0.928846  -0.915618  0.923882
C    -0.126131  -1.898258  0.396916
C    0.229840  -3.377277  0.513307
N    0.428936  -3.834189  1.943480
C    0.662803  -5.254638  2.050464
N    1.924950  -5.575928  2.152472
N    -0.397768  -6.070958  2.056240
H    1.940832  -1.346837  0.812231
H    0.946936  -0.014529  0.295300
H    -0.291549  -1.716875  -0.674266
H    -1.095182  -1.686474  0.875731
H    1.164905  -3.596263  -0.026500
H    -0.555964  -3.980871  0.033831
H    -0.410407  -3.581574  2.474709
H    2.111331  -6.581180  2.141681
H    -0.293071  -7.075441  2.169725
H    -1.337156  -5.733914  1.874510
O    2.283443  1.053402  3.388742
H    3.159573  1.131853  3.825108
Sr    3.015536  -3.449260  2.738811
