27
Energy: -103698.97872 eV PBE+vdW (tier 2 basis)
N    0.204614  -1.869342  1.227202
C    0.058690  -0.422616  1.565482
C    1.314328  0.051129  2.301687
O    2.120181  -0.745363  2.797093
H    -0.666054  -2.346434  1.485979
H    0.270171  -1.962172  0.210359
H    -0.017770  0.156397  0.631715
C    -1.221688  -0.126328  2.394634
C    -1.212798  -0.412574  3.906490
C    -0.808632  -1.803844  4.400156
N    -1.536293  -2.902798  3.748252
C    -1.047309  -4.189139  3.717646
N    0.251848  -4.406489  3.540205
N    -1.959705  -5.177795  3.807333
H    -2.039844  -0.667600  1.896250
H    -1.474805  0.935956  2.266892
H    -2.223487  -0.181587  4.275571
H    -0.557799  0.303989  4.425625
H    -0.956048  -1.843638  5.491384
H    0.262974  -1.971897  4.248837
H    -2.546613  -2.842204  3.854438
H    0.448159  -5.399325  3.695143
H    -1.705242  -6.141512  3.625913
H    -2.902092  -5.016459  4.143768
O    1.536101  1.339563  2.453005
H    0.878416  1.905428  2.003052
Sr    2.107302  -3.128511  2.579126
