27
Energy: -103698.117125 eV PBE+vdW (tier 2 basis)
N    -0.345879  -0.963717  -0.520888
C    -0.132051  -0.063820  0.631212
C    1.331432  0.357603  0.800996
O    1.612606  1.330568  1.585756
H    -1.713245  -1.930786  -0.200229
H    -0.383514  -0.437087  -1.395992
H    -0.695723  0.867128  0.466109
C    -0.630721  -0.727025  1.939545
C    -2.154847  -0.691463  2.190464
C    -3.096692  -1.048968  1.035376
N    -2.628340  -2.268501  0.291083
C    -3.562953  -2.950993  -0.657883
N    -3.596902  -4.202689  -0.474140
N    -4.108042  -2.115264  -1.584848
H    -0.159243  -0.229337  2.796732
H    -0.257094  -1.763847  1.951411
H    -2.445832  0.315948  2.520565
H    -2.363969  -1.354414  3.042699
H    -3.141202  -0.232495  0.301516
H    -4.111398  -1.230841  1.408943
H    -2.391353  -3.034177  0.938472
H    -4.203445  -4.721875  -1.114040
H    -4.802322  -2.506402  -2.213299
H    -4.215694  -1.124429  -1.401351
O    2.257546  -0.271943  0.175605
H    0.459684  -1.590934  -0.612301
Sr    3.886283  1.137032  1.125490
