27
Energy: -103696.880221 eV PBE+vdW (tier 2 basis)
N    -0.126312  0.502232  -0.023550
C    -0.533916  0.003178  1.279646
C    0.329015  0.353461  2.511532
O    -0.004226  0.070618  3.640994
H    -0.122262  1.521868  -0.043250
H    0.825225  0.208895  -0.251868
H    -1.510705  0.455869  1.519628
C    -0.690925  -1.534622  1.256314
C    -1.533042  -2.062058  0.087551
C    -2.934963  -1.449903  0.040897
N    -3.750742  -1.991786  -1.067402
C    -4.563612  -3.037402  -1.047401
N    -5.268531  -3.547668  -2.040810
N    -4.766221  -3.775619  0.193003
H    -1.107985  -1.851381  2.222374
H    0.305209  -1.997273  1.185218
H    -1.602487  -3.160658  0.167435
H    -1.028296  -1.840269  -0.863205
H    -2.871224  -0.369551  -0.137961
H    -3.478698  -1.586814  0.986157
H    -3.609917  -1.542511  -1.972129
H    -5.184933  -3.053354  -2.931568
H    -5.219759  -3.176271  0.893093
H    -3.865586  -4.038030  0.610149
O    1.472280  0.988915  2.181795
H    1.955725  1.174204  3.012739
Sr    -6.305685  -5.471824  -1.124127
