27
Energy: -103697.711598 eV PBE+vdW (tier 2 basis)
N    -0.507584  0.946952  0.905286
C    -0.336164  0.155421  2.127875
C    1.154653  0.227275  2.516855
O    1.655432  -0.490366  3.390350
H    -1.299863  1.584955  0.953063
H    -0.604825  0.387294  0.059022
H    -0.854366  0.683094  2.944885
C    -0.877607  -1.290184  2.138535
C    -0.296786  -2.303659  1.129945
C    1.199775  -2.623019  1.194692
N    1.622406  -3.114534  2.563178
C    3.060015  -3.269463  2.673142
N    3.462714  -4.504102  2.439649
N    3.764792  -2.201814  3.012459
H    -1.960406  -1.237381  1.960537
H    -0.774896  -1.670737  3.165921
H    -0.494733  -1.976773  0.097049
H    -0.879812  -3.235123  1.236921
H    1.807750  -1.747046  0.924612
H    1.451416  -3.399041  0.453356
H    1.340540  -2.354291  3.212529
H    4.474569  -4.643918  2.448252
H    4.770021  -2.250719  3.154725
H    3.268403  -1.308896  3.193485
O    1.848235  1.104609  1.834810
H    1.156252  1.479353  1.186076
Sr    1.419655  -5.659089  2.688188
