27
Energy: -103699.274865 eV PBE+vdW (tier 2 basis)
N    1.229853  -3.803985  0.439461
C    0.561094  -2.564157  -0.100094
C    1.668448  -1.522330  -0.438441
O    2.755063  -2.047373  -0.940096
H    1.427189  -3.644017  1.435079
H    0.540140  -4.562573  0.446551
H    0.126059  -2.858545  -1.070433
C    -0.555616  -2.018721  0.801901
C    -1.577668  -1.119163  0.056193
C    -1.889172  0.211153  0.744957
N    -0.710587  1.077748  0.699528
C    -0.689367  2.379935  0.974966
N    0.426680  3.086401  0.724661
N    -1.763042  2.999889  1.488536
H    -0.094134  -1.475823  1.641111
H    -1.092405  -2.868558  1.246622
H    -2.524598  -1.660884  -0.059251
H    -1.230093  -0.899891  -0.964245
H    -2.199842  0.035489  1.789130
H    -2.726476  0.696697  0.220202
H    0.162029  0.630051  0.370056
H    1.211344  2.657109  0.250227
H    -1.791154  4.005940  1.594907
H    -2.581502  2.482541  1.779244
O    1.499952  -0.320974  -0.253960
H    0.538089  4.037972  1.049281
Sr    3.473088  -4.108174  -0.870213
