27
Energy: -103697.943425 eV PBE+vdW (tier 2 basis)
N    -1.587523  -0.921246  0.784526
C    -0.602113  -0.683662  1.905447
C    0.434368  0.329648  1.442058
O    0.240474  0.984946  0.352288
H    -2.604641  -1.061394  1.161235
H    -1.566686  -0.107848  0.149453
H    -1.190533  -0.160769  2.686274
C    -0.006959  -1.985765  2.503492
C    -0.337318  -2.228290  3.989962
C    -1.616763  -3.046659  4.277430
N    -2.735949  -2.747098  3.388615
C    -3.291475  -1.499598  3.276290
N    -3.054047  -0.440043  3.963695
N    -4.033200  -1.323487  2.063176
H    1.083042  -1.936935  2.395533
H    -0.338795  -2.842687  1.896434
H    -0.360655  -1.261030  4.511105
H    0.493882  -2.779915  4.448727
H    -1.894463  -2.925591  5.336668
H    -1.402988  -4.113105  4.135960
H    -3.241549  -3.541587  3.011428
H    -2.539335  -0.638456  4.824394
H    -4.657977  -0.520616  2.159542
H    -4.571806  -2.140720  1.771174
O    1.446337  0.561907  2.181422
H    -1.326654  -1.747021  0.232638
Sr    2.173136  2.298465  0.793897
