27
Energy: -103699.03126 eV PBE+vdW (tier 2 basis)
N    -0.466143  1.918804  0.822673
C    -0.296544  1.012345  1.956860
C    0.922949  1.558352  2.699609
O    0.762917  2.152503  3.826475
H    0.111381  1.669836  0.021717
H    -1.435131  2.021581  0.533500
H    -1.147471  1.170132  2.633786
C    -0.170919  -0.496519  1.646410
C    -1.484577  -1.069853  1.099510
C    -1.512501  -2.584627  0.887466
N    -0.684605  -2.996623  -0.257593
C    -0.415714  -4.266584  -0.589900
N    -0.937301  -5.276465  0.117100
N    0.401531  -4.533010  -1.620968
H    0.099968  -1.029695  2.572618
H    0.664683  -0.647707  0.944373
H    -1.769141  -0.568468  0.159860
H    -2.297210  -0.846759  1.807137
H    -2.555390  -2.898361  0.717152
H    -1.139538  -3.098338  1.786934
H    -0.471991  -2.285686  -0.950199
H    -1.697088  -5.127513  0.768646
H    0.939342  -3.804074  -2.071946
H    0.472434  -5.465216  -2.010319
O    2.086662  1.508243  2.151719
H    -0.640395  -6.232760  -0.035497
Sr    2.861841  3.082861  3.673428
