27
Energy: -103697.432534 eV PBE+vdW (tier 2 basis)
N    -0.305586  0.427676  -0.093151
C    -0.792056  0.307797  1.343827
C    0.174302  1.087871  2.221651
O    -0.158744  1.363524  3.415392
H    -0.501642  -0.442307  -0.610730
H    -0.751369  1.205039  -0.596689
H    -1.803919  0.751246  1.405443
C    -0.825446  -1.173531  1.772138
C    -1.754831  -2.072338  0.940387
C    -3.248679  -1.674700  0.944285
N    -3.787322  -1.419485  2.269514
C    -3.708168  -0.192125  2.914691
N    -3.367471  -0.153204  4.152843
N    -3.969027  0.911737  2.069589
H    -1.155045  -1.172316  2.820925
H    0.198566  -1.580834  1.753344
H    -1.647621  -3.087116  1.351693
H    -1.412763  -2.175218  -0.108291
H    -3.821283  -2.483275  0.469617
H    -3.419066  -0.785259  0.322485
H    -3.707620  -2.184039  2.936554
H    -3.533511  0.763223  4.576974
H    -4.108893  1.768932  2.599538
H    -4.757833  0.766068  1.437972
O    1.331223  1.402080  1.752198
H    0.716028  0.601969  -0.073638
Sr    1.945953  2.246819  3.917568
