27
Energy: -103698.917478 eV PBE+vdW (tier 2 basis)
N    1.023410  -1.159708  -0.399570
C    0.762407  -0.328304  0.805635
C    1.891087  -0.565102  1.812529
O    2.530765  -1.623770  1.817185
H    0.122528  -1.381619  -0.839622
H    1.544788  -0.604532  -1.084139
H    0.732501  0.742327  0.545952
C    -0.595034  -0.691164  1.460024
C    -0.782611  -2.167551  1.873886
C    -1.787213  -2.979972  1.051992
N    -1.583245  -3.013423  -0.416267
C    -0.973535  -4.088116  -1.028423
N    0.176581  -4.551767  -0.553265
N    -1.579958  -4.575055  -2.130546
H    -1.378884  -0.386491  0.750751
H    -0.730207  -0.040891  2.334467
H    -1.138168  -2.207165  2.912975
H    0.183096  -2.698606  1.922813
H    -2.788849  -2.558978  1.208282
H    -1.813083  -4.009263  1.434565
H    -2.377882  -2.651777  -0.936417
H    0.348974  -5.483222  -0.945434
H    -1.113214  -5.245960  -2.730137
H    -2.562122  -4.408827  -2.320777
O    2.155136  0.335369  2.733709
H    1.635740  1.157567  2.635236
Sr    2.208074  -3.438912  0.280481
