27
Energy: -103696.419947 eV PBE+vdW (tier 2 basis)
N    0.730657  -1.036384  0.378031
C    0.250630  -0.363066  1.628443
C    1.471112  0.112948  2.401223
O    2.566364  -0.471507  2.280878
H    -0.016428  -1.664605  0.060991
H    0.800178  -0.334278  -0.368523
H    -0.393473  0.495090  1.379506
C    -0.551958  -1.376759  2.488836
C    -1.174577  -0.859131  3.789619
C    -2.251427  0.233785  3.602602
N    -3.057383  0.380318  4.790445
C    -4.065590  -0.556194  5.081456
N    -4.396663  -1.587817  4.374418
N    -4.725955  -0.291135  6.249805
H    0.104950  -2.234859  2.713912
H    -1.358095  -1.754790  1.837988
H    -0.411474  -0.526822  4.509457
H    -1.662206  -1.721722  4.265645
H    -2.865892  -0.003800  2.709922
H    -1.802800  1.220122  3.398780
H    -3.249341  1.331249  5.089207
H    -3.966216  -1.591093  3.447324
H    -5.440261  -0.962890  6.507690
H    -4.251870  0.180451  7.010328
O    1.391647  1.104276  3.249099
H    0.503380  1.513542  3.283916
Sr    3.107789  -2.127712  0.763146
