27
Energy: -103698.005307 eV PBE+vdW (tier 2 basis)
N    1.674631  -1.027757  0.445437
C    0.335325  -0.425518  0.798757
C    0.555647  0.623765  1.924493
O    1.687909  1.263792  1.857329
H    1.837970  -1.807430  1.095034
H    1.588016  -1.487719  -0.466634
H    0.025901  0.156247  -0.086907
C    -0.727969  -1.491573  1.124826
C    -2.193750  -1.192913  0.744816
C    -2.904819  0.013787  1.353247
N    -2.836264  0.048001  2.871210
C    -3.343600  -1.158417  3.595598
N    -2.426765  -1.934661  4.001247
N    -4.700196  -1.219038  3.626075
H    -0.665939  -1.758577  2.190601
H    -0.469618  -2.404279  0.567177
H    -2.773036  -2.098872  0.971816
H    -2.276625  -1.060921  -0.345345
H    -3.960647  0.015781  1.058015
H    -2.460284  0.965869  1.036641
H    -3.306119  0.897903  3.210887
H    -2.770930  -2.755381  4.507466
H    -5.143596  -1.968786  4.145835
H    -5.289020  -0.417835  3.428833
O    -0.300265  0.830954  2.782577
H    -1.803099  0.174282  3.085869
Sr    3.541980  0.772401  0.811334
