27
Energy: -103697.779687 eV PBE+vdW (tier 2 basis)
N    1.402644  -0.940671  -0.540981
C    0.752868  -0.295556  0.607590
C    1.798003  0.120811  1.656934
O    2.830247  -0.557222  1.814639
H    0.002717  -1.147512  -1.759510
H    1.729697  -0.185808  -1.157875
H    0.177755  0.600446  0.310700
C    -0.201740  -1.274111  1.351257
C    -1.250387  -1.987013  0.490650
C    -2.454434  -1.181168  0.003542
N    -2.223998  -0.054037  -0.941106
C    -1.775682  -0.176191  -2.212846
N    -0.748432  -0.984723  -2.484323
N    -2.356148  0.550281  -3.180460
H    -0.689430  -0.745924  2.185526
H    0.416189  -2.055047  1.829631
H    -1.685855  -2.786672  1.109117
H    -0.767776  -2.505903  -0.347017
H    -2.958693  -0.721935  0.863332
H    -3.173442  -1.877542  -0.453690
H    -2.866446  0.721363  -0.804965
H    -0.526748  -1.180450  -3.454487
H    -1.908632  0.687424  -4.079771
H    -3.293058  0.922408  -3.072979
O    1.624826  1.166356  2.439937
H    0.800064  1.646773  2.234045
Sr    3.300030  -2.188040  0.183537
