27
Energy: -103698.374811 eV PBE+vdW (tier 2 basis)
N    0.573960  -0.025191  0.708619
C    -0.091015  -0.330897  1.968557
C    0.948566  -0.695658  3.013292
O    2.103164  -0.179950  2.982434
H    -0.071678  0.434359  0.065381
H    1.355648  0.614535  0.852906
H    -0.590161  0.546757  2.443770
C    -1.193655  -1.393167  1.785075
C    -0.815591  -2.622904  0.939206
C    0.460470  -3.363343  1.307103
N    0.436974  -3.846837  2.770247
C    1.632291  -4.608167  3.165725
N    2.585702  -3.948836  3.748663
N    1.582979  -5.906272  2.847420
H    -2.043537  -0.910575  1.283499
H    -1.578796  -1.682091  2.773378
H    -0.658374  -2.318051  -0.105304
H    -1.666319  -3.321718  0.922740
H    1.346018  -2.720174  1.219708
H    0.608645  -4.246309  0.673775
H    -0.418751  -4.393628  2.938228
H    3.384592  -4.570551  3.918004
H    2.354395  -6.530171  3.067477
H    0.806932  -6.321768  2.341904
O    0.651583  -1.540693  3.970543
H    0.385902  -2.939642  3.375137
Sr    2.924840  -1.543154  4.730043
