27
Energy: -103697.227703 eV PBE+vdW (tier 2 basis)
N    0.382632  -0.519523  0.333914
C    0.242568  -0.316225  1.758751
C    1.509350  -0.692987  2.517064
O    1.672528  -0.450154  3.717215
H    -0.463440  -0.258144  -0.169648
H    1.164325  -0.005685  -0.069246
H    0.065266  0.739866  2.063020
C    -0.958117  -1.178581  2.241689
C    -1.253027  -1.216491  3.745936
C    -1.652928  0.136206  4.344208
N    -1.691483  0.118832  5.847473
C    -0.510618  0.524556  6.581347
N    -0.819643  0.916681  7.810925
N    0.670850  0.530635  5.997673
H    -0.787679  -2.203502  1.885722
H    -1.843781  -0.813382  1.698430
H    -0.382002  -1.617325  4.284585
H    -2.074053  -1.932646  3.910669
H    -2.654522  0.423282  3.994376
H    -0.969632  0.940931  4.046675
H    -1.907648  -0.841962  6.144332
H    -0.017686  1.092001  8.419076
H    0.893383  0.137436  5.044526
H    1.469360  0.900706  6.508123
O    2.433202  -1.297538  1.786452
H    3.209041  -1.490963  2.353267
Sr    -3.080464  1.503328  7.606347
