27
Energy: -103697.865516 eV PBE+vdW (tier 2 basis)
N    1.597136  -1.358299  2.099129
C    0.575916  -0.243653  2.160283
C    0.872929  0.531004  3.446949
O    1.609219  0.101709  4.313873
H    2.540560  -0.973458  2.239401
H    1.566178  -1.804915  1.175459
H    0.797989  0.417631  1.311678
C    -0.874770  -0.775697  2.010196
C    -1.762243  -0.904947  3.258440
C    -1.313786  -1.854361  4.377685
N    -1.099458  -3.234256  3.942174
C    0.083928  -3.882374  3.840471
N    0.189104  -5.155619  3.435201
N    1.292017  -3.281019  4.134367
H    -0.826547  -1.741332  1.481229
H    -1.388293  -0.096731  1.318444
H    -2.754043  -1.220896  2.902663
H    -1.922653  0.085360  3.708540
H    -2.082819  -1.859236  5.162365
H    -0.400647  -1.492231  4.864061
H    -1.933804  -3.784536  3.757591
H    -0.676260  -5.592411  3.121764
H    1.468814  -2.125965  2.866434
H    1.203610  -2.507337  4.797459
O    0.228513  1.696367  3.457759
H    0.446312  2.182895  4.280831
Sr    2.304987  -5.489617  4.369390
