27
Energy: -103698.856932 eV PBE+vdW (tier 2 basis)
N    -0.290660  -0.822642  0.354426
C    -0.380976  -0.229948  1.710937
C    1.045848  0.111606  2.152923
O    1.981899  -0.630958  1.829393
H    -1.147621  -1.361401  0.155993
H    -0.254193  -0.073571  -0.343364
H    -1.020014  0.668533  1.716206
C    -0.918525  -1.239457  2.754828
C    -2.272047  -1.913963  2.457325
C    -2.212352  -3.265529  1.731691
N    -2.164696  -3.190959  0.249700
C    -1.357775  -4.038863  -0.487358
N    -0.064180  -4.139355  -0.200269
N    -1.946151  -4.676295  -1.519164
H    -0.993311  -0.698562  3.708609
H    -0.159550  -2.021928  2.931932
H    -2.959586  -1.225861  1.940955
H    -2.746682  -2.110200  3.428559
H    -3.100185  -3.851646  2.008405
H    -1.338997  -3.843583  2.058990
H    -3.087225  -3.061786  -0.162481
H    0.307973  -4.982187  -0.650625
H    -1.395681  -5.165004  -2.216266
H    -2.951544  -4.798929  -1.572213
O    1.288670  1.140360  2.932576
H    0.497668  1.686360  3.110439
Sr    1.721170  -2.510647  0.334061
