27
Energy: -103697.747252 eV PBE+vdW (tier 2 basis)
N    -0.830583  -1.960532  0.360195
C    -0.384544  -0.732157  1.110147
C    1.130987  -0.657418  0.870608
O    1.738436  -1.584930  0.367201
H    -1.309040  -1.711542  -0.510005
H    0.062620  -2.441160  0.108773
H    -0.870234  0.146750  0.666622
C    -0.716842  -0.810411  2.608424
C    -2.212384  -1.016064  2.924069
C    -2.628373  -2.462199  3.204344
N    -2.388315  -3.363347  2.067553
C    -2.811858  -4.583027  2.182695
N    -3.453609  -5.226236  3.178045
N    -2.612867  -5.517642  1.046680
H    -0.371019  0.135410  3.044177
H    -0.109340  -1.599906  3.078979
H    -2.839952  -0.593659  2.123440
H    -2.460414  -0.436905  3.823352
H    -3.699694  -2.466462  3.471088
H    -2.075415  -2.826253  4.089518
H    -1.481971  -2.616676  0.976039
H    -3.597983  -4.651242  4.008352
H    -2.926903  -5.071565  0.180008
H    -1.609296  -5.680771  0.915724
O    1.649166  0.489746  1.294393
H    2.616916  0.485932  1.138833
Sr    -3.968300  -7.308614  2.322648
