27
Energy: -103699.359617 eV PBE+vdW (tier 2 basis)
N    0.407381  -0.869753  0.426685
C    0.374799  -0.437087  1.884580
C    1.590607  -1.111564  2.547989
O    2.179534  -0.523005  3.489866
H    -0.521698  -0.844771  -0.015086
H    1.043170  -0.289549  -0.137551
H    0.460758  0.654937  1.921789
C    -0.929995  -0.948112  2.526287
C    -1.037364  -0.639709  4.035670
C    -1.647759  -1.783526  4.864617
N    -0.937552  -3.066215  4.730366
C    0.335267  -3.288417  5.118767
N    1.130645  -2.492552  5.783620
N    0.974768  -4.465168  4.645160
H    -0.969020  -2.037674  2.365770
H    -1.784658  -0.507975  1.991015
H    -1.663838  0.247238  4.195330
H    -0.050169  -0.375407  4.436084
H    -2.680930  -1.978475  4.552556
H    -1.698821  -1.485441  5.922577
H    -1.491356  -3.871177  4.455942
H    0.663984  -1.705294  6.235468
H    1.242344  -5.086826  5.410711
H    0.462082  -4.987389  3.935379
O    1.862936  -2.295869  2.151040
H    0.775581  -1.842812  0.426287
Sr    3.102182  -2.644362  4.308843
