27
Energy: -103699.075633 eV PBE+vdW (tier 2 basis)
N    1.061995  -0.357839  0.435873
C    0.251351  0.034579  1.622271
C    1.147496  0.832029  2.569679
O    2.378693  0.719431  2.547283
H    0.549804  -1.083258  -0.075975
H    1.091754  0.435901  -0.213222
H    -0.588996  0.684303  1.324415
C    -0.369193  -1.210422  2.317367
C    0.545209  -2.415799  2.596292
C    1.479007  -2.306263  3.817828
N    2.279466  -3.499773  4.023070
C    3.469417  -3.760397  3.428730
N    3.980751  -2.928068  2.516381
N    4.093683  -4.896190  3.808050
H    -1.188582  -1.543456  1.664142
H    -0.859648  -0.885091  3.247482
H    1.124737  -2.692735  1.699459
H    -0.111651  -3.281452  2.762279
H    0.878455  -2.155145  4.725189
H    2.156311  -1.441045  3.777349
H    1.904007  -4.203922  4.647814
H    4.914344  -3.274264  2.272557
H    4.959942  -5.186261  3.373680
H    3.764828  -5.464059  4.579656
O    0.605045  1.628501  3.465203
H    -0.365940  1.706158  3.380825
Sr    3.588380  -0.896168  1.254763
