27
Energy: -103699.197114 eV PBE+vdW (tier 2 basis)
N    0.277736  0.944559  0.555265
C    0.505404  0.167204  1.827051
C    1.969694  -0.345820  1.882181
O    2.821274  0.348377  1.174511
H    -0.568489  1.510826  0.675947
H    0.020275  0.275211  -0.180460
H    0.453824  0.911797  2.639833
C    -0.573760  -0.889193  2.118707
C    -0.665837  -2.095561  1.161252
C    0.087395  -3.372289  1.571473
N    -0.402520  -3.957753  2.823868
C    0.296389  -4.121313  3.962172
N    1.406311  -3.423415  4.196707
N    -0.158667  -4.992643  4.879769
H    -1.541582  -0.366763  2.129319
H    -0.433089  -1.234479  3.152493
H    -0.314237  -1.838661  0.147309
H    -1.726055  -2.353161  1.025566
H    1.162347  -3.195858  1.672366
H    -0.038537  -4.127145  0.782243
H    -1.317218  -4.397510  2.794459
H    2.026307  -3.698724  4.948725
H    0.215212  -5.004425  5.820601
H    -0.827709  -5.713708  4.640494
O    2.273140  -1.293542  2.597485
H    1.685864  -2.618767  3.614947
Sr    2.533149  2.082781  -0.116213
