27
Energy: -103697.216822 eV PBE+vdW (tier 2 basis)
N    1.137218  -1.791119  0.085229
C    1.045069  -0.882199  1.225169
C    2.219038  -1.143833  2.175944
O    2.700331  -2.250836  2.382136
H    2.057124  -1.730743  -0.354168
H    0.462521  -1.516272  -0.631225
H    1.090991  0.187289  0.939667
C    -0.321804  -1.069482  1.955056
C    -0.720701  -2.531538  2.238179
C    -0.094964  -3.129100  3.501188
N    -0.103798  -4.628468  3.462991
C    0.649722  -5.297425  2.408651
N    0.094692  -6.458941  2.093325
N    1.717430  -4.731609  1.887074
H    -1.084950  -0.627117  1.299620
H    -0.337850  -0.466996  2.875448
H    -0.420586  -3.116993  1.353819
H    -1.820087  -2.578295  2.316368
H    -0.664802  -2.845029  4.395639
H    0.929783  -2.775019  3.659916
H    0.281465  -4.968295  4.353267
H    0.632838  -7.028547  1.437661
H    2.060106  -3.760464  2.107504
H    2.183252  -5.187449  1.106106
O    2.703398  -0.103456  2.853875
H    2.307883  0.738729  2.558902
Sr    -2.096214  -6.185056  2.887991
