27
Energy: -103699.103084 eV PBE+vdW (tier 2 basis)
N    0.319832  0.645568  0.070994
C    0.364395  0.200396  1.509712
C    1.751615  -0.427836  1.831332
O    2.732102  0.030988  1.093645
H    0.080265  -0.167298  -0.508540
H    -0.482509  1.273710  -0.044693
H    0.366750  1.131538  2.102911
C    -0.863341  -0.595100  1.985455
C    -1.218943  -1.931653  1.308265
C    -0.253468  -3.112433  1.518591
N    0.128631  -3.326513  2.911877
C    -0.304486  -4.279398  3.737484
N    0.348987  -4.494315  4.891009
N    -1.375668  -5.034632  3.446322
H    -1.739234  0.064441  1.892441
H    -0.738654  -0.750683  3.066404
H    -1.354620  -1.808734  0.220691
H    -2.215290  -2.211291  1.681799
H    0.683783  -2.958243  0.966019
H    -0.690200  -4.033227  1.109959
H    0.841550  -2.659692  3.238312
H    -0.063098  -5.037231  5.639567
H    -1.578266  -5.878040  3.968569
H    -2.006224  -4.793953  2.694167
O    1.885057  -1.224245  2.751707
H    1.259672  -4.084449  5.057861
Sr    2.726804  1.468320  -0.544432
