27
Energy: -103699.190469 eV PBE+vdW (tier 2 basis)
N    1.095991  0.059910  0.303684
C    1.256224  0.331320  1.717896
C    2.640516  0.023619  2.305566
O    3.021077  0.617613  3.382707
H    1.329995  -0.907764  0.076826
H    -5.869912  2.448505  0.445959
H    1.106623  1.409880  1.885135
C    0.209955  -0.450282  2.559698
C    -1.224139  -0.383802  2.017562
C    -1.821121  1.023021  1.960393
N    -3.231021  0.937459  1.553741
C    -3.985389  1.949092  1.110931
N    -5.198578  1.704553  0.591977
N    -3.532196  3.208874  1.166478
H    0.251101  -0.089216  3.597342
H    0.498666  -1.512449  2.584296
H    -1.849226  -1.012968  2.671502
H    -1.256145  -0.817357  1.008947
H    -1.284462  1.629375  1.215624
H    -1.743588  1.514058  2.945407
H    -3.688591  0.039104  1.675606
H    -5.487261  0.766902  0.342046
H    -4.022444  3.962879  0.701178
H    -2.735198  3.455391  1.738171
O    3.410074  -0.830685  1.731328
H    1.696351  0.653342  -0.267354
Sr    5.057464  -0.484902  3.323701
