27
Energy: -103698.388671 eV PBE+vdW (tier 2 basis)
N    0.330085  0.564192  1.027381
C    0.107627  0.107224  2.371174
C    1.324887  0.025394  3.294096
O    1.244814  0.194782  4.532620
H    0.790539  1.470219  0.965881
H    0.831794  -0.104093  0.443681
H    -0.555123  0.833460  2.871092
C    -0.587717  -1.284062  2.319021
C    -1.061167  -1.942117  3.622099
C    -2.348032  -1.419610  4.260432
N    -2.253915  -0.006295  4.796593
C    -3.141277  0.237919  5.909448
N    -2.537604  0.205894  7.067008
N    -4.432465  0.478372  5.654888
H    0.105870  -1.974328  1.816015
H    -1.435659  -1.156065  1.629541
H    -0.246572  -1.983908  4.368515
H    -1.261741  -3.000290  3.395312
H    -2.611460  -2.059244  5.113858
H    -3.178635  -1.486322  3.541550
H    -2.456454  0.650492  4.038150
H    -3.155685  0.299026  7.876309
H    -4.820210  0.392804  4.721550
H    -5.090290  0.690945  6.399992
O    2.462337  -0.242536  2.698872
H    3.200605  -0.287294  3.343138
Sr    -0.153807  0.306802  6.440316
