27
Energy: -103696.960064 eV PBE+vdW (tier 2 basis)
N    0.249488  0.019962  0.424328
C    0.064289  -0.290370  1.829962
C    1.262488  -0.022495  2.774980
O    1.382911  -0.534383  3.866278
H    1.095852  -0.404687  0.044050
H    0.309465  1.022572  0.254839
H    -0.727444  0.378628  2.211709
C    -0.401122  -1.744800  2.018659
C    -1.770537  -1.994477  1.382966
C    -2.180641  -3.458942  1.498805
N    -3.496177  -3.683856  0.859939
C    -4.193548  -4.807455  0.932521
N    -3.879070  -5.924547  1.552777
N    -5.494834  -4.885161  0.275921
H    -0.416419  -1.965573  3.094501
H    0.350185  -2.415187  1.568986
H    -1.730933  -1.695105  0.323200
H    -2.527716  -1.364549  1.877680
H    -2.258947  -3.758780  2.556101
H    -1.439386  -4.111146  1.009540
H    -3.866356  -2.913987  0.305422
H    -2.963149  -5.917662  2.005577
H    -5.391361  -4.798966  -0.741797
H    -6.099585  -4.106910  0.561170
O    2.127764  0.868984  2.251271
H    2.829614  1.023425  2.915952
Sr    -5.788997  -7.325824  1.278663
