27
Energy: -103699.20163 eV PBE+vdW (tier 2 basis)
N    0.678923  0.310781  -0.341339
C    -0.111073  -0.098559  0.879518
C    0.814273  -0.947058  1.794795
O    2.063990  -0.561584  1.798338
H    0.647877  -0.471787  -1.006439
H    0.163745  1.056927  -0.819812
H    -0.290847  0.834911  1.440163
C    -1.471074  -0.741778  0.541888
C    -2.620294  -0.428729  1.521960
C    -2.767671  -1.302006  2.773575
N    -3.263011  -2.653119  2.471391
C    -2.715803  -3.820684  2.852127
N    -1.422637  -3.907072  3.160514
N    -3.492615  -4.917977  2.893483
H    -1.346691  -1.828428  0.419057
H    -1.779742  -0.356765  -0.441370
H    -3.567152  -0.472035  0.963133
H    -2.540936  0.615905  1.861289
H    -3.492075  -0.826748  3.451051
H    -1.825913  -1.391515  3.322674
H    -4.207097  -2.709163  2.100659
H    -1.065928  -4.728269  3.632996
H    -4.501695  -4.851238  2.939898
H    -3.087505  -5.843520  2.959505
O    0.371780  -1.871701  2.464030
H    -0.761091  -3.158030  2.920403
Sr    3.151196  0.716015  0.405271
