27
Energy: -103699.251957 eV PBE+vdW (tier 2 basis)
N    0.351254  -0.290723  -0.326682
C    0.220884  -0.323171  1.143989
C    1.437037  0.317518  1.803156
O    1.401073  0.605890  3.053018
H    -0.109239  -1.114163  -0.720024
H    -0.277842  1.160830  -1.486183
H    0.278708  -1.363393  1.526372
C    -1.113191  0.257659  1.654805
C    -1.499806  1.604230  1.019663
C    -2.451749  1.419812  -0.178539
N    -2.460076  2.537691  -1.121276
C    -1.587939  2.667466  -2.131090
N    -0.538047  1.845473  -2.227273
N    -1.775792  3.637528  -3.043708
H    -1.039998  0.348109  2.744830
H    -1.903992  -0.485255  1.472903
H    -0.598220  2.143928  0.691680
H    -1.983988  2.246945  1.766083
H    -3.482746  1.283935  0.170658
H    -2.198873  0.513549  -0.744278
H    -3.142032  3.276552  -0.989375
H    -0.006295  1.821647  -3.088801
H    -2.664928  4.113802  -3.131141
H    -1.076629  3.839726  -3.746687
O    2.523434  0.479793  1.133413
H    1.342419  -0.378099  -0.566879
Sr    3.676497  1.017421  3.100995
