27
Energy: -103699.385373 eV PBE+vdW (tier 2 basis)
N    -0.105499  0.368804  0.682873
C    -0.956585  -0.618011  1.470870
C    -0.060422  -1.144230  2.599471
O    -0.595451  -1.830546  3.507326
H    -0.181107  0.242495  -0.333962
H    -0.338756  1.345666  0.899632
H    -1.790970  -0.061140  1.914377
C    -1.520710  -1.749573  0.593391
C    -0.533149  -2.597786  -0.229343
C    0.422043  -3.548605  0.505348
N    -0.288851  -4.551792  1.303003
C    0.298193  -5.300809  2.283203
N    1.230245  -4.783581  3.083525
N    -0.150668  -6.568914  2.411845
H    -2.257341  -1.304782  -0.091898
H    -2.099481  -2.387443  1.276065
H    0.092056  -1.969922  -0.886051
H    -1.140489  -3.185317  -0.935052
H    1.109759  -3.004112  1.157748
H    1.051018  -4.044293  -0.252529
H    -1.050324  -5.016195  0.814913
H    1.713166  -5.555405  3.553549
H    0.068496  -7.117986  3.233800
H    -0.674983  -7.034881  1.680747
O    1.197032  -0.911214  2.517697
H    0.875879  0.184608  0.999527
Sr    1.528793  -2.670688  4.263050
