27
Energy: -103697.204649 eV PBE+vdW (tier 2 basis)
N    -0.421578  -0.143147  -0.071363
C    -0.253146  -0.110274  1.365677
C    1.208474  0.096613  1.753447
O    1.618680  0.140252  2.916371
H    -1.400265  -0.049640  -0.337612
H    0.112261  0.576329  -0.554693
H    -0.768329  0.735642  1.878037
C    -0.859967  -1.426752  1.932863
C    -1.063924  -1.515461  3.459279
C    0.096668  -2.199861  4.179206
N    0.027729  -2.020330  5.665902
C    0.172793  -0.680774  6.208807
N    -0.415279  -0.576545  7.390114
N    0.805111  0.248258  5.516717
H    -0.273592  -2.278006  1.557986
H    -1.840646  -1.515534  1.447766
H    -1.991722  -2.080929  3.657857
H    -1.221855  -0.499598  3.856992
H    1.063706  -1.841546  3.805468
H    0.070772  -3.283383  4.003982
H    0.780040  -2.580801  6.085665
H    -0.256682  0.308386  7.875769
H    0.858337  1.194184  5.886775
H    1.140670  0.121750  4.532080
O    2.020062  0.269781  0.718920
H    2.927361  0.438383  1.048620
Sr    -1.981822  -2.333577  7.286737
