27
Energy: -103697.350248 eV PBE+vdW (tier 2 basis)
N    -1.167656  2.117520  -0.078395
C    -0.506853  1.513265  1.070155
C    0.972455  1.294123  0.763066
O    1.672907  0.386558  1.222522
H    -0.671493  2.940535  -0.418562
H    -2.114138  2.409029  0.164041
H    -0.479652  2.175260  1.970957
C    -1.232574  0.197648  1.449641
C    -1.448306  -0.091921  2.943694
C    -0.194585  -0.228265  3.822051
N    0.810307  -1.114868  3.221439
C    1.198056  -2.314558  3.577764
N    2.108391  -3.078607  2.981765
N    0.640357  -2.982313  4.758044
H    -0.738096  -0.649794  0.953096
H    -2.226300  0.250043  0.986988
H    -2.043588  -1.014650  3.024682
H    -2.061004  0.703233  3.395223
H    -0.466005  -0.571796  4.828403
H    0.301429  0.745400  3.944728
H    1.233660  -0.661971  2.357368
H    2.529537  -2.652783  2.153182
H    0.781958  -2.404483  5.594180
H    -0.377674  -3.074291  4.668233
O    1.477274  2.224355  -0.037753
H    2.430595  2.049658  -0.176697
Sr    2.218017  -5.021810  4.277284
