27
Energy: -103698.452257 eV PBE+vdW (tier 2 basis)
N    0.273171  -0.317501  0.401828
C    0.177431  0.081362  1.791789
C    1.546264  0.251590  2.422434
O    1.761615  0.227838  3.656495
H    0.903310  0.272144  -0.140424
H    -0.642397  -0.273493  -0.045534
H    -0.254740  1.102104  1.946442
C    -0.716048  -0.894462  2.583062
C    -0.248983  -2.353456  2.528110
C    -1.073944  -3.310104  3.402778
N    -1.269674  -2.832884  4.788251
C    -0.285333  -2.443471  5.603611
N    1.006217  -2.653577  5.475281
N    -0.603411  -1.554645  6.674328
H    -1.735158  -0.807804  2.177166
H    -0.786294  -0.531568  3.620344
H    0.818881  -2.416674  2.787692
H    -0.309603  -2.726233  1.497645
H    -0.622875  -4.313133  3.412040
H    -2.083353  -3.429400  2.991223
H    -2.226491  -2.759234  5.120531
H    1.244629  -3.392189  4.812396
H    -0.425188  -1.983108  7.586615
H    -1.556092  -1.187366  6.659177
O    2.502458  0.501838  1.558775
H    3.355321  0.686496  2.004396
Sr    1.791395  -0.413118  5.908518
