27
Energy: -103699.400215 eV PBE+vdW (tier 2 basis)
N    0.367473  -0.284281  -0.066247
C    -0.069341  0.047138  1.296394
C    1.041084  0.578010  2.208928
O    0.717910  1.164836  3.305081
H    -1.399432  -0.921915  -3.050597
H    0.705090  0.559843  -0.534267
H    -0.809830  0.859535  1.225925
C    -0.765050  -1.144636  1.996677
C    -1.984172  -1.670180  1.219004
C    -1.646992  -2.832617  0.263216
N    -2.584259  -2.968484  -0.850687
C    -2.495679  -2.268539  -1.991662
N    -1.559740  -1.325320  -2.135773
N    -3.354223  -2.527981  -2.992762
H    -1.078193  -0.805052  2.991589
H    -0.035031  -1.954741  2.161448
H    -2.437458  -0.845296  0.649565
H    -2.754385  -2.003877  1.926523
H    -1.646572  -3.788263  0.801592
H    -0.641631  -2.720758  -0.162220
H    -3.402610  -3.553146  -0.720631
H    -0.945114  -1.007031  -1.360413
H    -3.398981  -1.939336  -3.814560
H    -3.949478  -3.346583  -2.981301
O    2.276118  0.427890  1.890143
H    1.178438  -0.908242  -0.026283
Sr    2.938382  1.537671  3.841138
