27
Energy: -103698.496878 eV PBE+vdW (tier 2 basis)
N    0.667854  -0.569043  -0.310812
C    0.581814  -0.035415  1.056141
C    1.944762  -0.105252  1.739507
O    2.965550  -0.544462  1.193118
H    -0.270943  -0.568855  -0.716430
H    1.214236  0.060784  -0.903187
H    0.332368  1.045483  1.052987
C    -0.556079  -0.729423  1.858332
C    -0.364586  -2.135263  2.452761
C    -0.020076  -3.319976  1.513672
N    1.364709  -3.775744  1.693680
C    2.427551  -3.636278  0.890954
N    3.671821  -3.967466  1.175788
N    2.302196  -2.979229  -0.366803
H    -1.433934  -0.722547  1.194108
H    -0.847117  -0.065274  2.686717
H    -1.310296  -2.371131  2.959067
H    0.384328  -2.103774  3.259571
H    -0.184050  -3.084038  0.457398
H    -0.669084  -4.174050  1.744111
H    1.561274  -4.191325  2.602392
H    3.788789  -4.528375  2.022486
H    1.531119  -2.277152  -0.430980
H    2.268940  -3.654744  -1.133600
O    2.060240  0.348603  2.974414
H    1.223474  0.712098  3.326502
Sr    4.626592  -1.961203  0.220094
