27
Energy: -103699.154755 eV PBE+vdW (tier 2 basis)
N    0.144978  -0.211883  0.198105
C    0.020985  -0.238368  1.714624
C    1.127299  -1.200965  2.184529
O    1.516136  -2.077645  1.340811
H    -0.761491  -0.124932  -0.279543
H    0.752823  0.549707  -0.130555
H    0.201567  0.774739  2.092327
C    -1.389758  -0.730827  2.104754
C    -1.787557  -0.568726  3.596726
C    -2.009428  -1.848625  4.434350
N    -0.819282  -2.365840  5.114442
C    0.037181  -3.325102  4.727647
N    1.152734  -3.686905  5.318671
N    -0.155130  -3.973339  3.484088
H    -1.507378  -1.773635  1.767808
H    -2.105184  -0.146174  1.506577
H    -2.739368  -0.023027  3.619455
H    -1.068085  0.076340  4.120080
H    -2.473330  -2.649468  3.840813
H    -2.737909  -1.619756  5.222767
H    -0.523557  -1.835358  5.929952
H    1.263888  -3.321652  6.266588
H    -0.193408  -4.986647  3.608046
H    -0.959638  -3.666964  2.941949
O    1.528865  -1.129078  3.373465
H    0.604882  -1.121905  -0.042391
Sr    2.531500  -3.374574  3.282354
