27
Energy: -103698.330299 eV PBE+vdW (tier 2 basis)
N    -1.615302  0.297301  1.899022
C    -0.731558  -0.847628  2.306554
C    0.513121  -0.351068  3.007354
O    1.427513  -1.191786  3.307867
H    -2.575679  -0.165755  1.638768
H    -1.746483  0.950926  2.679245
H    -1.353159  -1.370349  3.069276
C    -0.453367  -1.794256  1.126982
C    -1.671840  -2.134494  0.242984
C    -2.963460  -2.535848  0.964222
N    -3.754859  -1.356041  1.443701
C    -4.255825  -1.405914  2.784021
N    -3.372912  -1.500038  3.720331
N    -5.601982  -1.237682  2.896657
H    -0.042634  -2.714000  1.563192
H    0.340260  -1.377660  0.488094
H    -1.368722  -2.970044  -0.402694
H    -1.890819  -1.309776  -0.454976
H    -2.752369  -3.166121  1.836843
H    -3.591555  -3.121745  0.280649
H    -4.481641  -1.104823  0.774222
H    -3.788736  -1.614121  4.646691
H    -6.019219  -1.197243  3.819688
H    -6.228853  -1.505583  2.146311
O    0.620387  0.889208  3.329714
H    -1.244688  0.824100  1.100232
Sr    2.690577  0.439379  4.386552
