27
Energy: -103697.589865 eV PBE+vdW (tier 2 basis)
N    -1.296382  -0.956530  -0.595761
C    -1.087731  -0.396479  0.739696
C    0.127583  0.526029  0.710050
O    1.069495  0.525356  1.509934
H    -1.354038  -0.223872  -1.303095
H    -2.181201  -1.464672  -0.625890
H    -1.905687  0.280442  1.075423
C    -0.980451  -1.517153  1.783836
C    0.079441  -2.602263  1.475193
C    1.050291  -2.862800  2.625553
N    1.811875  -1.635088  2.914704
C    2.840852  -1.547793  3.720392
N    3.421878  -2.477062  4.467057
N    3.513946  -0.250523  3.844426
H    -1.972824  -1.982390  1.853757
H    -0.815783  -1.059675  2.771390
H    0.641745  -2.340586  0.567183
H    -0.407787  -3.556335  1.241006
H    1.754550  -3.666502  2.359380
H    0.511099  -3.170647  3.536603
H    1.482652  -0.765536  2.408689
H    2.962093  -3.388525  4.439432
H    2.894458  0.410456  4.328551
H    3.656332  0.164338  2.916274
O    0.051770  1.409601  -0.280029
H    0.830706  2.001325  -0.254096
Sr    5.342443  -1.408803  5.294281
