27
Energy: -103699.262617 eV PBE+vdW (tier 2 basis)
N    1.327159  -0.309120  0.030958
C    0.414096  0.038972  1.197050
C    1.293693  0.751039  2.240141
O    0.730724  1.152934  3.297612
H    1.383425  -1.322908  -0.129263
H    1.041992  0.136810  -0.849277
H    -0.309167  0.781070  0.832732
C    -0.363124  -1.164120  1.761164
C    0.387369  -2.484837  2.038774
C    1.718244  -2.465488  2.800324
N    1.648885  -1.757539  4.082950
C    2.696138  -1.670508  4.962143
N    2.979647  -0.490467  5.505965
N    3.394367  -2.799567  5.202050
H    -1.193551  -1.391025  1.078293
H    -0.844061  -0.786501  2.674510
H    0.582955  -3.017042  1.092663
H    -0.325430  -3.131658  2.569494
H    2.522272  -2.024520  2.180878
H    2.007499  -3.511077  2.965149
H    1.019680  -0.961713  4.130554
H    3.557386  -0.608484  6.343452
H    2.982305  -3.711524  5.041126
H    4.222892  -2.776002  5.784181
O    2.539841  0.874108  2.003112
H    2.270314  0.048641  0.315593
Sr    2.819362  1.679018  4.398093
