27
Energy: -103698.526268 eV PBE+vdW (tier 2 basis)
N    -0.342847  -0.162952  -0.057868
C    -0.542352  0.233653  1.340203
C    0.578951  1.141400  1.825971
O    1.667334  1.276726  1.250285
H    -1.167158  -0.684143  -0.367327
H    -0.293851  0.656344  -0.667329
H    -1.479010  0.809431  1.475077
C    -0.655957  -1.008984  2.282014
C    0.620134  -1.778976  2.669486
C    1.283933  -2.659050  1.596761
N    1.834346  -1.923913  0.456153
C    3.034654  -1.353145  0.359462
N    3.479578  -0.637801  -0.660913
N    3.913915  -1.312047  1.473450
H    -1.381842  -1.689079  1.809771
H    -1.142528  -0.679836  3.211486
H    0.341478  -2.453681  3.492351
H    1.360778  -1.087801  3.108149
H    0.554316  -3.372561  1.189735
H    2.074219  -3.274548  2.048251
H    1.109682  -1.472722  -0.132366
H    2.937587  -0.771147  -1.516750
H    4.830264  -1.703629  1.244339
H    3.562887  -1.743322  2.327705
O    0.404500  1.802950  2.956910
H    -0.492854  1.690670  3.329884
Sr    3.971270  1.299620  0.663185
