27
Energy: -103696.974777 eV PBE+vdW (tier 2 basis)
N    0.230853  1.044635  0.415631
C    -0.073876  0.381821  1.676131
C    1.161557  -0.340311  2.254478
O    1.297496  -1.547427  2.321432
H    0.619250  0.410928  -0.283197
H    0.860849  1.837058  0.529192
H    -0.358983  1.166707  2.394593
C    -1.239366  -0.593597  1.472087
C    -1.766223  -1.216573  2.770215
C    -2.800827  -2.297997  2.474441
N    -3.251698  -2.943701  3.726854
C    -3.999186  -4.034571  3.791592
N    -4.509369  -4.734645  2.800786
N    -4.327026  -4.600191  5.096537
H    -0.903594  -1.394641  0.794628
H    -2.036614  -0.040650  0.956218
H    -2.217324  -0.437582  3.406491
H    -0.929409  -1.670958  3.321164
H    -2.356919  -3.075145  1.832142
H    -3.680024  -1.879902  1.958636
H    -2.951709  -2.506069  4.595982
H    -4.322561  -4.355492  1.870561
H    -4.919724  -3.954353  5.630849
H    -3.482563  -4.737127  5.663015
O    2.100114  0.546902  2.640840
H    2.887945  0.046911  2.934889
Sr    -5.530823  -6.611891  3.854413
