27
Energy: -103699.223543 eV PBE+vdW (tier 2 basis)
N    -1.297776  1.160035  2.063865
C    -0.411819  -0.065609  2.222963
C    0.572084  -0.015580  1.037364
O    1.680204  -0.602383  1.149623
H    -2.252846  1.014512  2.417099
H    -0.907444  1.987260  2.534675
H    0.126373  0.017090  3.174395
C    -1.288075  -1.335657  2.171226
C    -0.488319  -2.658354  2.265531
C    -0.856462  -3.700904  1.189387
N    -0.782314  -3.193521  -0.187144
C    0.318784  -2.921431  -0.917752
N    0.366816  -2.282231  -2.064590
N    1.596772  -3.225191  -0.402391
H    -1.862617  -1.299812  1.232092
H    -2.017680  -1.284262  2.992601
H    -0.653931  -3.124418  3.245329
H    0.587542  -2.441681  2.219262
H    -1.885611  -4.054369  1.328002
H    -0.219897  -4.591174  1.294660
H    -1.657424  -2.898590  -0.608452
H    -0.541085  -2.152086  -2.515542
H    2.107730  -3.843966  -1.033775
H    1.634476  -3.582181  0.549870
O    0.163595  0.556571  -0.027272
H    -1.313556  1.351903  1.037244
Sr    2.042280  -0.631126  -1.280968
