27
Energy: -103697.983832 eV PBE+vdW (tier 2 basis)
N    0.093070  -0.233723  0.295136
C    0.224072  0.067058  1.731120
C    1.580988  -0.419937  2.263591
O    2.158506  -1.391265  1.739272
H    -2.162931  1.501526  -1.848939
H    0.358947  0.616239  -0.215717
H    0.157251  1.152771  1.927011
C    -0.852817  -0.633719  2.610237
C    -2.255216  0.003830  2.599321
C    -3.209051  -0.414823  1.478908
N    -2.737656  0.021628  0.164560
C    -3.528526  0.341842  -0.855061
N    -2.987927  0.924540  -1.951097
N    -4.844940  0.083088  -0.842098
H    -0.504358  -0.642853  3.654162
H    -0.909256  -1.695108  2.311777
H    -2.170368  1.101148  2.616124
H    -2.752783  -0.272868  3.539269
H    -4.187858  0.044144  1.677499
H    -3.348321  -1.509567  1.492955
H    -1.685704  -0.033047  0.031501
H    -3.559313  1.101351  -2.768794
H    -5.474138  0.511047  -1.510800
H    -5.256346  -0.533693  -0.153451
O    2.159024  0.141921  3.305020
H    1.653434  0.905837  3.644502
Sr    1.432319  -2.088030  -0.367258
