27
Energy: -103699.457878 eV PBE+vdW (tier 2 basis)
N    0.618102  -0.052757  0.592730
C    -0.571252  0.283939  1.482386
C    -0.252529  -0.368097  2.840356
O    -0.785073  0.090409  3.888481
H    0.353770  -0.151778  -0.396454
H    1.366437  0.650047  0.654968
H    -0.625019  1.374485  1.582439
C    -1.851298  -0.282319  0.828766
C    -3.192244  0.139018  1.480505
C    -3.960122  -0.990072  2.177849
N    -3.246153  -1.433407  3.369963
C    -3.252792  -2.658694  3.949428
N    -2.319515  -2.928426  4.867594
N    -4.172562  -3.554634  3.531816
H    -1.769950  -1.380158  0.791228
H    -1.852532  0.069283  -0.214302
H    -3.848353  0.541655  0.698918
H    -3.041188  0.968641  2.187689
H    -4.076766  -1.843394  1.493778
H    -4.969237  -0.626630  2.430627
H    -2.767064  -0.705218  3.889838
H    -2.571388  -3.771765  5.388419
H    -4.149214  -4.507031  3.874415
H    -5.025436  -3.262276  3.069986
O    0.506505  -1.394471  2.817079
H    0.991554  -0.955135  0.960388
Sr    -0.136030  -1.918448  5.170463
