27
Energy: -103699.113982 eV PBE+vdW (tier 2 basis)
N    0.971888  -0.618167  0.461120
C    -0.074365  -0.485739  1.556551
C    0.592343  -0.950436  2.859840
O    -0.056575  -0.777158  3.924953
H    0.627574  -1.139052  -0.354730
H    1.318234  0.291455  0.132027
H    -0.292236  0.583544  1.670414
C    -1.400850  -1.228650  1.270005
C    -1.418619  -2.549594  0.475072
C    -0.460754  -3.711212  0.835096
N    -0.063578  -3.843339  2.231833
C    -0.790460  -4.245206  3.311224
N    -0.237772  -4.087003  4.510802
N    -2.034394  -4.724210  3.093034
H    -2.068208  -0.535786  0.740907
H    -1.855747  -1.376640  2.258273
H    -1.283169  -2.355316  -0.602255
H    -2.457701  -2.898822  0.545877
H    0.486854  -3.609311  0.289534
H    -0.891198  -4.649794  0.450124
H    0.930851  -3.788227  2.404883
H    -0.748123  -4.622566  5.216773
H    -2.617328  -4.989830  3.877754
H    -2.297243  -5.112194  2.194402
O    1.741173  -1.509895  2.798031
H    1.763509  -1.133889  0.914211
Sr    1.283086  -2.289216  5.196619
