27
Energy: -103697.48193 eV PBE+vdW (tier 2 basis)
N    -0.124833  -1.386118  0.291062
C    0.171545  -0.972663  1.688772
C    0.958736  0.339437  1.672630
O    0.892768  1.103482  0.688300
H    0.583618  -2.075220  0.012528
H    -1.084704  -1.968684  0.348257
H    -0.798757  -0.651617  2.111407
C    0.737677  -2.082206  2.618454
C    0.023902  -2.208152  3.983533
C    -1.217165  -3.123645  3.968184
N    -2.164089  -2.788961  2.905328
C    -2.341717  -3.487897  1.735400
N    -2.386759  -2.814870  0.602331
N    -2.418156  -4.839081  1.853920
H    1.820197  -1.936986  2.762838
H    0.658771  -3.038470  2.081575
H    -0.259812  -1.210906  4.363026
H    0.722894  -2.617063  4.726178
H    -1.712927  -3.081826  4.947668
H    -0.898932  -4.162375  3.813962
H    -2.495956  -1.832194  2.857381
H    -2.776986  -3.375994  -0.158426
H    -2.479166  -5.411194  1.020610
H    -2.784194  -5.251516  2.705305
O    1.655641  0.734820  2.706931
H    1.683653  0.066857  3.421409
Sr    -0.225308  0.570737  -1.270438
