27
Energy: -103698.682202 eV PBE+vdW (tier 2 basis)
N    0.270119  0.090223  0.181631
C    -0.301486  -0.298656  1.526467
C    0.910151  -0.066309  2.498910
O    0.711677  -0.389824  3.724270
H    0.348423  -0.696767  -0.471930
H    -0.223691  0.856384  -0.286321
H    -1.072621  0.439515  1.781060
C    -0.832764  -1.734457  1.614439
C    -2.339808  -2.007156  1.461641
C    -3.363504  -1.083151  2.153741
N    -3.021401  -0.464242  3.453829
C    -2.405524  -0.981261  4.532834
N    -1.934545  -2.180035  4.754303
N    -2.076397  -0.052368  5.573323
H    -0.517911  -2.102963  2.596841
H    -0.293195  -2.368373  0.893192
H    -2.500288  -3.045913  1.783684
H    -2.629616  -2.002688  0.400744
H    -4.311972  -1.632524  2.250301
H    -3.578090  -0.224473  1.504692
H    -3.496646  0.420763  3.608889
H    -2.271907  -2.894407  4.108941
H    -2.618205  -0.243705  6.420088
H    -2.181790  0.931301  5.322256
O    1.934205  0.400697  1.995268
H    1.258695  0.409886  0.500952
Sr    0.250388  -1.388991  5.682437
