27
Energy: -103698.794693 eV PBE+vdW (tier 2 basis)
N    0.885913  0.416364  0.426559
C    0.189888  0.251441  1.749842
C    1.175239  0.595278  2.915609
O    2.042781  1.540541  2.601230
H    1.431364  -0.434846  0.247061
H    0.186563  0.431843  -0.322047
H    -0.587421  1.034099  1.780960
C    -0.469437  -1.108315  1.998254
C    -1.684268  -1.455740  1.134954
C    -2.538794  -2.594730  1.710086
N    -1.868516  -3.904348  1.777172
C    -1.465267  -4.547907  2.884104
N    -1.222468  -3.888097  4.023413
N    -1.293731  -5.878428  2.845353
H    -0.764279  -1.059538  3.058375
H    0.299050  -1.896917  1.933721
H    -1.389017  -1.708531  0.104158
H    -2.355170  -0.585067  1.058193
H    -3.438420  -2.730800  1.095124
H    -2.888911  -2.342511  2.720191
H    -1.852185  -4.448764  0.920061
H    -1.127664  -4.384425  4.901659
H    -0.780672  -6.363571  3.572102
H    -1.741001  -6.448614  2.137385
O    1.081927  0.037433  3.988430
H    -1.058863  -2.888758  4.035887
Sr    2.578494  2.436484  0.719593
