27
Energy: -103699.13703 eV PBE+vdW (tier 2 basis)
N    -0.184262  0.394018  -0.060883
C    -0.211787  0.512171  1.454131
C    1.247277  0.640626  1.907060
O    2.101079  -0.071725  1.277687
H    -0.113077  1.311421  -0.522386
H    0.669389  -0.150526  -0.295405
H    -0.797308  1.398231  1.723650
C    -0.783498  -0.791988  2.049002
C    -0.678957  -0.866206  3.582424
C    -0.549035  -2.289186  4.132221
N    0.536017  -3.112053  3.550910
C    1.776496  -3.250850  4.116079
N    2.488975  -2.188851  4.493784
N    2.238970  -4.517718  4.219811
H    -0.212399  -1.627836  1.611518
H    -1.832187  -0.899649  1.733076
H    -1.563669  -0.407519  4.045533
H    0.169905  -0.275457  3.944642
H    -1.475130  -2.850682  3.952906
H    -0.417210  -2.232438  5.221043
H    0.203564  -3.958430  3.099468
H    3.186183  -2.507155  5.177299
H    3.211490  -4.703128  4.434642
H    1.612821  -5.315124  4.230339
O    1.504040  1.295563  2.953483
H    -1.015170  -0.085651  -0.433200
Sr    3.373823  -0.161321  3.396769
