27
Energy: -103697.63268 eV PBE+vdW (tier 2 basis)
N    0.283310  0.656080  0.049922
C    0.586281  0.484944  1.514326
C    2.123646  0.441445  1.727212
O    2.809931  1.128236  0.861633
H    0.333754  -0.262819  -0.404649
H    -0.702048  0.924249  -0.044897
H    0.294351  1.440364  1.985080
C    -0.226965  -0.594845  2.245245
C    -0.110697  -2.080815  1.849016
C    1.221790  -2.818687  2.006706
N    1.876341  -2.617379  3.360232
C    1.032594  -2.867732  4.608256
N    0.856471  -1.987624  5.493968
N    0.457201  -4.101001  4.596609
H    -1.290218  -0.329378  2.144399
H    -0.022043  -0.473464  3.317368
H    -0.412342  -2.233370  0.800030
H    -0.872962  -2.615408  2.433027
H    1.978246  -2.487077  1.283536
H    1.066764  -3.892500  1.852135
H    2.733403  -3.186107  3.411074
H    1.308330  -1.086697  5.333497
H    0.906810  -4.881789  4.131181
H    -0.041583  -4.344451  5.449041
O    2.614946  -0.148964  2.690540
H    2.185820  -1.601789  3.356184
Sr    2.153581  2.232429  -0.919419
