27
Energy: -103699.225196 eV PBE+vdW (tier 2 basis)
N    0.709451  -0.244403  -1.074118
C    0.055359  0.065280  0.248442
C    1.068092  0.747004  1.199412
O    2.322769  0.465006  0.981220
H    0.567673  0.561508  -1.692972
H    0.179488  -0.997006  -1.527276
H    -0.772821  0.771031  0.088241
C    -0.497838  -1.243824  0.849070
C    -1.113246  -1.206137  2.260716
C    -2.354089  -0.324888  2.474989
N    -1.987660  1.070788  2.727500
C    -2.742578  1.961954  3.369177
N    -2.188338  3.116036  3.778107
N    -4.040252  1.728243  3.620740
H    0.317956  -1.987140  0.870881
H    -1.251294  -1.635324  0.145576
H    -0.354344  -0.946875  3.013029
H    -1.414178  -2.237472  2.489111
H    -2.899566  -0.710780  3.349108
H    -3.030007  -0.398107  1.605415
H    -1.007779  1.341119  2.503139
H    -1.185238  3.249037  3.737103
H    -4.576706  2.337077  4.226060
H    -4.529146  0.950711  3.198214
O    0.658470  1.469837  2.105819
H    -2.752182  3.892863  4.098267
Sr    3.287921  -0.538820  -0.700233
