27
Energy: -103697.717075 eV PBE+vdW (tier 2 basis)
N    0.069733  -0.830301  -0.247012
C    -0.103698  -0.119636  1.029875
C    1.322435  0.264279  1.506672
O    1.564711  0.995663  2.475744
H    -0.241931  -0.288297  -1.051448
H    -0.401459  -1.733677  -0.271789
H    -0.642221  0.830007  0.881948
C    -0.902772  -0.979972  2.037436
C    -1.178747  -0.361149  3.422491
C    -0.092236  -0.720184  4.446477
N    -0.105892  0.081409  5.691945
C    0.283716  1.346648  5.837894
N    0.450444  2.011175  6.971334
N    0.630649  2.139943  4.691323
H    -0.405036  -1.957068  2.151746
H    -1.868353  -1.187099  1.556749
H    -2.147585  -0.721133  3.792527
H    -1.281888  0.728367  3.320635
H    0.909648  -0.646333  4.008220
H    -0.217615  -1.760291  4.769534
H    -0.300098  -0.428734  6.550827
H    0.161123  1.519064  7.818693
H    -0.200276  2.666106  4.397576
H    0.942278  1.602766  3.826492
O    2.272690  -0.249898  0.775110
H    1.733847  -0.740483  0.045717
Sr    1.996725  3.653849  6.230926
