27
Energy: -103698.110531 eV PBE+vdW (tier 2 basis)
N    -0.253991  -1.663496  0.279731
C    -0.555846  -0.891660  1.520743
C    0.030713  0.509678  1.293818
O    -0.270334  1.083878  0.238551
H    0.757133  -1.799060  0.177526
H    -0.639787  -2.605518  0.385082
H    -1.618522  -0.633351  1.450718
C    -0.429827  -1.611794  2.880172
C    -1.673009  -1.359852  3.762141
C    -2.951490  -2.169768  3.410326
N    -3.287099  -2.283908  1.977671
C    -3.602348  -1.282439  1.120245
N    -3.513776  -1.372077  -0.208825
N    -3.876969  -0.050929  1.646528
H    0.481400  -1.319434  3.427640
H    -0.297112  -2.689297  2.699670
H    -1.890939  -0.280270  3.772300
H    -1.437505  -1.613641  4.804622
H    -3.808130  -1.764662  3.969866
H    -2.836881  -3.202834  3.759035
H    -3.101723  -3.183417  1.548418
H    -3.542714  -2.351664  -0.509485
H    -4.456108  0.544755  1.062450
H    -4.086922  0.024015  2.637249
O    0.770219  1.126950  2.181703
H    0.965218  0.570201  2.962155
Sr    -1.693173  -0.110432  -1.352656
