27
Energy: -103699.02487 eV PBE+vdW (tier 2 basis)
N    0.488486  0.985128  0.175108
C    1.013706  0.080932  1.205949
C    1.657201  -1.022567  0.362929
O    0.911384  -1.879547  -0.242117
H    -0.470174  0.753997  -0.082988
H    0.526944  1.960573  0.462578
H    1.837122  0.597916  1.717086
C    -0.017081  -0.423581  2.229654
C    0.580249  -1.273486  3.358238
C    -0.458397  -1.815585  4.351065
N    -1.152782  -0.788493  5.142586
C    -0.835218  -0.395689  6.383256
N    -1.705595  0.340637  7.091060
N    0.341747  -0.725455  6.931506
H    -0.790184  -1.000898  1.696961
H    -0.508963  0.470382  2.644398
H    1.350136  -0.695047  3.894960
H    1.095178  -2.152138  2.938652
H    0.000100  -2.528916  5.049540
H    -1.238094  -2.374950  3.816255
H    -1.979167  -0.365382  4.733781
H    -2.683222  0.397509  6.832947
H    0.501812  -0.621948  7.926334
H    1.095178  -1.111085  6.378363
O    2.920176  -0.990899  0.137561
H    -1.424593  0.817054  7.939686
Sr    2.592020  -2.165236  -1.817076
