27
Energy: -103699.023896 eV PBE+vdW (tier 2 basis)
N    0.461610  0.084391  0.204251
C    0.358108  0.222035  1.655819
C    1.807762  0.239548  2.142404
O    2.324588  1.343203  2.546595
H    0.533331  -0.884441  -0.101043
H    -0.288796  0.552022  -0.296580
H    -0.033721  1.226790  1.865566
C    -0.498819  -0.823803  2.402708
C    -1.993058  -0.673424  2.092005
C    -2.911947  -1.607266  2.891891
N    -2.850815  -3.024497  2.503294
C    -3.702259  -3.652281  1.682045
N    -3.702972  -4.993699  1.623360
N    -4.551205  -2.962948  0.908470
H    -0.342605  -0.702498  3.487726
H    -0.133008  -1.829952  2.140713
H    -2.171584  -0.809003  1.013189
H    -2.309141  0.354504  2.329717
H    -3.958552  -1.282722  2.814144
H    -2.665394  -1.564386  3.961698
H    -2.127311  -3.595591  2.926658
H    -3.293883  -5.554294  2.360743
H    -5.340616  -3.417469  0.465343
H    -4.469171  -1.961647  0.792540
O    2.529011  -0.823380  2.059550
H    -4.196393  -5.487319  0.889289
Sr    4.441098  0.454026  2.391531
