27
Energy: -103696.664872 eV PBE+vdW (tier 2 basis)
N    -0.503365  -0.375944  -0.125142
C    0.080932  -0.315814  1.195946
C    1.592425  -0.186251  1.023500
O    2.154838  0.015938  -0.022241
H    -1.439494  0.015342  -0.182163
H    0.104624  0.027014  -0.837573
H    -0.220834  0.595895  1.760756
C    -0.352300  -1.560279  2.032292
C    -0.749542  -1.313576  3.493865
C    0.412331  -1.040642  4.449028
N    -0.103529  -0.950420  5.838190
C    0.530021  -0.499862  6.910883
N    0.080294  -0.385264  8.146462
N    1.916994  -0.073564  6.795825
H    0.409234  -2.350731  1.964286
H    -1.234786  -1.962063  1.519443
H    -1.282188  -2.211489  3.848654
H    -1.463636  -0.475222  3.545602
H    0.923901  -0.104894  4.191439
H    1.149806  -1.856355  4.389832
H    -1.056077  -1.291080  5.973473
H    -0.903111  -0.632224  8.275149
H    1.970957  0.802704  6.261895
H    2.464529  -0.748379  6.249738
O    2.280152  -0.302822  2.209658
H    3.220105  -0.201264  1.957704
Sr    1.992609  0.187067  9.434014
