27
Energy: -103696.377221 eV PBE+vdW (tier 2 basis)
N    0.889180  0.291139  0.881019
C    0.526874  -0.092371  2.284637
C    1.694627  0.279603  3.184531
O    2.860429  0.275924  2.738989
H    0.282255  -0.243923  0.249517
H    0.616319  1.269030  0.723047
H    -0.383045  0.437369  2.608077
C    0.287519  -1.623982  2.352144
C    -0.073988  -2.220702  3.717176
C    -1.393674  -1.691643  4.329665
N    -1.872182  -2.490180  5.441633
C    -2.225158  -3.842943  5.258669
N    -1.938814  -4.813747  6.044229
N    -2.909690  -4.082644  4.070112
H    1.192543  -2.126833  1.962699
H    -0.527736  -1.843280  1.643043
H    0.754337  -2.117832  4.435606
H    -0.200604  -3.301382  3.560746
H    -2.164468  -1.656132  3.545833
H    -1.295350  -0.654372  4.699486
H    -1.401003  -2.327854  6.326895
H    -1.349504  -4.547269  6.837313
H    -3.197599  -5.057688  4.015270
H    -3.690301  -3.454526  3.889553
O    1.516498  0.553016  4.450429
H    0.573634  0.544942  4.715094
Sr    3.489200  0.016410  0.532244
