27
Energy: -103699.18454 eV PBE+vdW (tier 2 basis)
N    1.818945  -1.351126  0.339634
C    1.050938  -0.369606  1.163484
C    1.749441  -0.205942  2.505759
O    2.512939  -1.057607  2.980817
H    1.195231  -1.704967  -0.391541
H    2.534002  -0.831838  -0.181854
H    1.035666  0.617258  0.676904
C    -0.428477  -0.775986  1.381302
C    -0.758915  -1.963822  2.300976
C    -0.489472  -3.384213  1.763904
N    0.592138  -4.083375  2.545449
C    0.943749  -5.375316  2.003354
N    1.995724  -5.349738  1.233139
N    0.197213  -6.431515  2.354924
H    -0.875939  -0.927308  0.386100
H    -0.930562  0.112211  1.788312
H    -1.831023  -1.886412  2.522580
H    -0.264113  -1.843160  3.278110
H    -0.171007  -3.378236  0.713552
H    -1.413314  -3.979790  1.799638
H    0.273989  -4.182563  3.514328
H    2.212055  -6.239138  0.777701
H    0.429972  -7.370897  2.045730
H    -0.659018  -6.331510  2.888926
O    1.425407  0.909494  3.122477
H    1.868506  0.967891  3.996206
Sr    3.034772  -3.176762  1.859029
