27
Energy: -103697.437774 eV PBE+vdW (tier 2 basis)
N    2.737804  0.405583  0.732045
C    1.650961  0.585260  1.664584
C    2.010128  0.885753  3.125898
O    1.274617  1.492276  3.910317
H    3.340046  1.223785  0.662804
H    3.320721  -0.400964  0.953540
H    1.082244  1.470799  1.337101
C    0.726796  -0.661016  1.592468
C    -0.542493  -0.643179  2.452954
C    -1.491053  0.504636  2.080245
N    -2.574769  0.712215  3.057254
C    -2.435898  1.426349  4.170380
N    -1.364155  2.020849  4.631906
N    -3.614544  1.645280  5.010720
H    1.317884  -1.547215  1.866869
H    0.475312  -0.779852  0.529004
H    -0.280668  -0.571771  3.519120
H    -1.066997  -1.600876  2.327681
H    -1.969628  0.323829  1.109955
H    -0.952525  1.458437  1.998844
H    -3.461874  0.244783  2.888714
H    -0.453991  1.828191  4.156472
H    -4.437262  1.894885  4.451654
H    -3.864919  0.781831  5.506213
O    3.205022  0.419070  3.487839
H    3.362390  0.639339  4.428077
Sr    -2.139847  3.345597  6.397333
