27
Energy: -103698.130757 eV PBE+vdW (tier 2 basis)
N    0.870342  1.403518  1.501643
C    0.564207  0.534189  2.617511
C    1.880622  -0.015735  3.163747
O    2.977136  0.317558  2.691864
H    -2.162880  -2.040241  -1.249046
H    0.002444  1.836998  1.178828
H    0.134601  1.092176  3.482196
C    -0.468600  -0.601575  2.337455
C    -0.075920  -1.615522  1.256624
C    -1.139225  -2.717118  1.136937
N    -0.820914  -3.755321  0.147886
C    -1.408976  -3.943927  -1.041127
N    -2.159513  -2.986842  -1.603750
N    -1.237481  -5.106348  -1.688137
H    -1.408184  -0.099917  2.059984
H    -0.703029  -1.131081  3.278737
H    0.891923  -2.083488  1.500842
H    0.058391  -1.101871  0.293499
H    -2.125049  -2.297667  0.892917
H    -1.265781  -3.228517  2.102177
H    -0.128924  -4.447036  0.419739
H    -2.788401  -3.199104  -2.369017
H    -1.485276  -5.206728  -2.665400
H    -0.909450  -5.936140  -1.208532
O    1.886392  -0.859050  4.186628
H    0.983993  -1.020719  4.521688
Sr    3.001683  2.060959  1.069687
