27
Energy: -103697.41593 eV PBE+vdW (tier 2 basis)
N    -0.663326  -1.497989  0.277325
C    -0.835966  -0.138703  0.953010
C    0.443083  -0.551253  0.329567
O    0.972196  0.006814  -0.759428
H    -1.729058  -2.988978  0.929001
H    -1.042558  -1.478280  -0.674549
H    -1.383319  0.601912  0.362548
C    -1.097629  -0.101560  2.437344
C    -2.568379  -0.137176  2.887169
C    -3.271815  -1.501152  2.893005
N    -3.961500  -1.876502  1.641895
C    -3.780600  -3.022070  0.963194
N    -2.569064  -3.592659  0.925790
N    -4.818275  -3.581104  0.320468
H    -0.660031  0.837468  2.810807
H    -0.546194  -0.908925  2.947241
H    -3.164121  0.589098  2.312999
H    -2.596710  0.222830  3.925121
H    -4.041928  -1.498029  3.677275
H    -2.574051  -2.309883  3.142542
H    -4.841323  -1.398476  1.466866
H    -2.474082  -4.539113  0.576558
H    -4.677086  -4.277444  -0.401847
H    -5.775584  -3.367067  0.575218
O    1.583628  -0.988123  1.166380
H    1.317799  -1.652034  1.823629
Sr    3.135940  -0.059070  -0.473417
