27
Energy: -103698.253589 eV PBE+vdW (tier 2 basis)
N    0.690954  -0.398240  1.078313
C    0.443106  -0.441129  2.500610
C    1.618874  -1.019357  3.269784
O    1.572193  -1.318225  4.485910
H    -0.078086  0.060240  0.590403
H    1.548490  0.094184  0.831858
H    0.342362  0.560443  2.987094
C    -0.865606  -1.204129  2.809653
C    -1.013839  -2.559836  2.084885
C    -1.706108  -3.660289  2.904112
N    -0.794759  -4.266954  3.892418
C    -0.552413  -3.901632  5.154946
N    0.445963  -4.284074  5.927535
N    -1.364733  -2.913997  5.786015
H    -1.702995  -0.546154  2.540552
H    -0.918437  -1.309388  3.901268
H    -0.032856  -2.930431  1.750810
H    -1.586340  -2.421939  1.158984
H    -2.034174  -4.473587  2.245151
H    -2.615889  -3.304222  3.408849
H    -0.112196  -4.909737  3.495259
H    0.985735  -5.073927  5.568005
H    -1.830574  -3.323721  6.600749
H    -2.074406  -2.493690  5.185989
O    2.727108  -1.117460  2.573297
H    3.477652  -1.413867  3.129252
Sr    1.031335  -2.043449  6.657491
