27
Energy: -103698.857629 eV PBE+vdW (tier 2 basis)
N    1.359628  -0.934168  0.855586
C    0.221713  -0.115293  1.364257
C    0.758502  0.673519  2.564180
O    1.555488  0.134086  3.337855
H    1.024537  -1.502443  0.073432
H    2.044033  -0.301455  0.425799
H    -0.157926  0.557880  0.578798
C    -0.948562  -0.978327  1.919617
C    -1.353771  -2.252432  1.159535
C    -0.450532  -3.490915  1.286537
N    0.043194  -3.710538  2.689462
C    0.888810  -4.867036  2.818249
N    2.159057  -4.625480  2.637573
N    0.309130  -6.034111  3.135021
H    -1.828021  -0.321968  1.967005
H    -0.734679  -1.241915  2.966891
H    -1.498695  -2.050972  0.087190
H    -2.354274  -2.520254  1.530260
H    0.440420  -3.436918  0.648870
H    -1.018766  -4.367076  0.937570
H    -0.759275  -3.785863  3.321357
H    2.747457  -5.461461  2.627316
H    0.861997  -6.868610  3.308326
H    -0.698017  -6.152179  3.137806
O    0.326950  1.888064  2.824124
H    -0.269581  2.243295  2.136272
Sr    2.376176  -2.169972  3.006242
