27
Energy: -103697.854891 eV PBE+vdW (tier 2 basis)
N    0.964895  0.117268  0.491174
C    -0.079044  -0.456842  1.419792
C    0.574176  -1.580474  2.268362
O    1.846595  -1.434000  2.494501
H    0.968347  -0.461086  -0.358466
H    0.627795  1.027417  0.160604
H    -0.306743  0.345590  2.142774
C    -1.380692  -0.854696  0.689854
C    -2.700070  -0.590841  1.441419
C    -3.164979  -1.640870  2.459309
N    -3.492546  -2.918693  1.817160
C    -3.101704  -4.182998  2.129129
N    -3.381401  -5.329375  1.668812
N    -2.093634  -4.255694  3.243130
H    -1.321782  -1.908140  0.376960
H    -1.424953  -0.263853  -0.236934
H    -3.496528  -0.473593  0.691167
H    -2.652504  0.379916  1.959295
H    -4.055825  -1.258198  2.980018
H    -2.394107  -1.801866  3.219980
H    -4.227612  -2.881239  1.115719
H    -4.065277  -5.345920  0.908559
H    -1.806937  -5.244862  3.257457
H    -2.508647  -4.027186  4.156210
O    -0.102891  -2.506246  2.712085
H    -1.262647  -3.627974  3.072302
Sr    3.309238  -0.051885  1.620055
