27
Energy: -103698.344103 eV PBE+vdW (tier 2 basis)
N    -0.903576  0.341981  0.318788
C    0.125279  -0.349633  1.131586
C    1.341995  -0.321568  0.473153
O    2.418284  -0.954227  0.883996
H    -0.321861  0.700299  -0.485385
H    -1.637343  -0.281910  -0.052474
H    0.711960  1.659876  4.901095
C    -0.275867  -1.301474  2.213019
C    -0.286911  -0.804750  3.676944
C    -1.344937  0.264638  3.969734
N    -1.554074  0.523272  5.402421
C    -0.894492  1.409053  6.157491
N    0.193070  2.035585  5.684139
N    -1.336360  1.695119  7.391224
H    0.431142  -2.142649  2.177680
H    -1.264308  -1.743273  1.985321
H    0.719212  -0.436509  3.932172
H    -0.476341  -1.668942  4.331844
H    -2.322400  -0.053789  3.579930
H    -1.105404  1.223324  3.485053
H    -2.220641  -0.073778  5.881752
H    0.589205  2.829578  6.171981
H    -0.747088  2.167109  8.066511
H    -2.267271  1.434109  7.693475
O    1.449554  0.377698  -0.678886
H    -1.374028  1.136212  0.770878
Sr    3.578908  -0.381725  -0.965497
