27
Energy: -103698.351773 eV PBE+vdW (tier 2 basis)
N    0.367444  -1.939695  -0.536573
C    0.241786  -0.980128  0.549871
C    1.452468  -0.042538  0.496143
O    2.556635  -0.331192  1.007583
H    0.252385  -1.556560  -1.472846
H    1.198760  -2.525809  -0.492976
H    -0.671635  -0.390540  0.366452
C    0.130741  -1.681151  1.907840
C    -0.376033  -0.767511  3.042931
C    0.089840  -1.155331  4.460892
N    1.307672  -0.432490  4.876573
C    2.564900  -0.730411  4.528698
N    3.036243  -1.829108  3.987023
N    3.546567  0.303955  4.628573
H    1.113740  -2.109392  2.149495
H    -0.552396  -2.529347  1.771666
H    -1.474286  -0.766193  3.030335
H    -0.079969  0.280424  2.871933
H    0.249508  -2.238135  4.559932
H    -0.675307  -0.896470  5.200935
H    1.159172  0.404602  5.432884
H    2.394312  -2.622065  4.023450
H    4.252242  0.081673  5.336133
H    3.171831  1.235292  4.815476
O    1.398877  1.079404  -0.199487
H    0.503838  1.249744  -0.554610
Sr    4.430770  -0.791760  2.286786
