27
Energy: -103697.626828 eV PBE+vdW (tier 2 basis)
N    0.399246  -0.000533  0.250576
C    0.140019  -0.060646  1.698005
C    1.449079  0.156385  2.491781
O    2.346485  0.874546  2.010884
H    0.797793  -0.914496  -0.011243
H    -1.147632  -0.596273  -0.471255
H    -0.436815  0.846518  1.971950
C    -0.730770  -1.246075  2.159048
C    -0.279524  -2.654980  1.710350
C    -1.283748  -3.395180  0.808733
N    -1.143360  -3.232842  -0.656861
C    -1.800806  -2.330155  -1.419450
N    -1.944986  -1.071369  -0.993426
N    -2.283099  -2.722032  -2.610103
H    -1.744862  -1.047799  1.785618
H    -0.861805  -1.217727  3.254703
H    -0.143834  -3.284968  2.599188
H    0.705548  -2.640587  1.218859
H    -2.311242  -3.123817  1.089147
H    -1.185695  -4.473698  0.977933
H    -0.855049  -4.072759  -1.149473
H    -2.602259  -0.473947  -1.484760
H    -2.561625  -2.048319  -3.314238
H    -2.478998  -3.697772  -2.804757
O    1.642520  -0.343121  3.692141
H    0.879854  -0.881900  3.981807
Sr    2.050753  1.660033  -0.181924
