27
Energy: -103697.725308 eV PBE+vdW (tier 2 basis)
N    0.742407  0.481409  1.324208
C    0.016091  -0.087759  2.474716
C    0.884130  0.034669  3.750888
O    1.610139  1.037348  3.896776
H    -1.046695  0.703110  -1.830457
H    1.487606  -0.191358  1.089186
H    -0.821912  0.598303  2.709248
C    -0.642445  -1.472269  2.246350
C    0.222318  -2.506951  1.497047
C    -0.196113  -2.717857  0.037425
N    -0.289082  -1.443737  -0.685714
C    -0.757151  -1.325541  -1.928316
N    -0.981282  -0.100171  -2.440690
N    -1.001614  -2.406962  -2.681110
H    -1.573525  -1.295104  1.689644
H    -1.004577  -1.890130  3.201296
H    0.147247  -3.487238  1.984211
H    1.290612  -2.243248  1.542830
H    -1.178200  -3.217158  0.010063
H    0.535897  -3.382058  -0.449168
H    -0.030322  -0.582352  -0.156007
H    -1.264036  0.024869  -3.404490
H    -1.445602  -2.330827  -3.588123
H    -0.698689  -3.329052  -2.395308
O    0.875131  -0.856485  4.717046
H    0.267877  -1.595578  4.515145
Sr    1.884483  2.442728  2.036803
