27
Energy: -103699.252596 eV PBE+vdW (tier 2 basis)
N    -1.399653  -0.697672  1.306313
C    -0.241038  -0.592139  2.215977
C    1.040655  -0.356379  1.424974
O    0.981300  0.057242  0.208206
H    -2.227303  -0.325722  1.776931
H    -1.235169  -0.090053  0.499161
H    -0.299791  0.329968  2.830681
C    -0.127122  -1.770654  3.203839
C    -0.291969  -3.155675  2.555263
C    -1.740230  -3.671194  2.667079
N    -2.098375  -4.686512  1.677481
C    -2.544406  -4.401894  0.445721
N    -2.524034  -3.144019  -0.006500
N    -3.007063  -5.395608  -0.333831
H    -0.881195  -1.632218  3.992893
H    0.843291  -1.689291  3.707193
H    0.383075  -3.877464  3.032736
H    0.002486  -3.117809  1.495282
H    -2.458480  -2.846809  2.568043
H    -1.913697  -4.109784  3.657516
H    -1.974898  -5.663341  1.920282
H    -2.063658  -2.360575  0.503191
H    -3.237485  -5.236353  -1.306163
H    -3.250947  -6.298844  0.053166
O    2.176582  -0.481455  2.008645
H    -3.040260  -2.912157  -0.846318
Sr    3.286335  0.477840  0.220634
