27
Energy: -103698.489383 eV PBE+vdW (tier 2 basis)
N    0.104678  1.907310  0.709768
C    0.126799  0.735022  1.630217
C    1.569378  0.250905  1.714453
O    2.379284  0.472114  0.811235
H    -0.872108  2.110001  0.475002
H    0.421546  2.739485  1.220079
H    -0.192960  1.020332  2.646698
C    -0.873930  -0.333825  1.084150
C    -0.642027  -1.844433  1.281123
C    0.336200  -2.539282  0.303022
N    0.096730  -2.113086  -1.086873
C    0.870946  -1.242099  -1.775066
N    0.489931  -0.296236  -2.603412
N    2.271393  -1.231131  -1.560140
H    -0.973769  -0.134819  0.005942
H    -1.849006  -0.082924  1.521786
H    -1.626086  -2.321150  1.162550
H    -0.338507  -2.095441  2.308043
H    0.210328  -3.626636  0.380220
H    1.379403  -2.329445  0.567371
H    -0.884290  -2.109120  -1.361726
H    -0.503328  -0.317504  -2.845907
H    2.753062  -1.392113  -2.448027
H    2.623978  -1.890424  -0.868154
O    1.963305  -0.452356  2.760196
H    1.287027  -0.505118  3.463671
Sr    1.865850  1.412096  -1.374594
