27
Energy: -103697.84386 eV PBE+vdW (tier 2 basis)
N    0.529747  -0.200630  0.339691
C    0.192085  -0.562971  1.763662
C    1.388578  -1.355893  2.366546
O    2.555655  -0.976661  1.937131
H    0.284776  -1.004716  -0.251552
H    -0.119624  0.531744  0.034502
H    0.166806  0.391313  2.317807
C    -1.160404  -1.273164  1.915111
C    -1.717553  -1.208278  3.347646
C    -2.746209  -2.303067  3.680066
N    -2.356830  -3.679994  3.323341
C    -1.440036  -4.495841  3.921712
N    -1.225340  -5.742738  3.885456
N    -0.401519  -3.767961  4.725725
H    -1.044629  -2.323340  1.604879
H    -1.886865  -0.817730  1.225252
H    -2.217713  -0.243110  3.514833
H    -0.890868  -1.227175  4.070215
H    -3.669819  -2.116937  3.118760
H    -3.025299  -2.235437  4.744100
H    -3.054436  -4.195641  2.796498
H    -1.905868  -6.291771  3.354406
H    0.200733  -4.517223  5.096939
H    -0.796818  -3.244596  5.517198
O    1.223542  -2.249779  3.197682
H    0.186565  -3.114072  4.120502
Sr    3.110695  0.228721  0.192670
