27
Energy: -103697.806907 eV PBE+vdW (tier 2 basis)
N    1.007829  -1.156182  1.259742
C    0.422040  0.069070  1.853110
C    1.388613  0.663826  2.879821
O    2.312439  0.072726  3.428058
H    0.344925  -1.526652  0.573166
H    1.836556  -0.895545  0.718650
H    0.290451  0.859859  1.096914
C    -0.993007  -0.202853  2.438495
C    -1.186584  -1.524084  3.194136
C    -0.425532  -1.641071  4.533590
N    0.103341  -2.992652  4.785898
C    1.205025  -3.517538  4.248179
N    1.653723  -4.751113  4.417735
N    2.053316  -2.724939  3.402659
H    -1.695669  -0.198992  1.593128
H    -1.282202  0.656389  3.059332
H    -0.896566  -2.365002  2.548393
H    -2.261410  -1.656822  3.374270
H    -1.078711  -1.404022  5.380598
H    0.411653  -0.938019  4.593529
H    -0.459941  -3.604897  5.372124
H    1.065988  -5.360550  4.988740
H    1.558813  -2.367314  2.514385
H    2.272149  -1.791426  3.805625
O    1.095990  1.944170  3.109989
H    1.720430  2.304705  3.773006
Sr    3.754432  -4.595964  3.356697
