27
Energy: -103697.583479 eV PBE+vdW (tier 2 basis)
N    0.699694  0.351987  -0.439820
C    0.344861  0.259127  0.954802
C    1.288570  -0.546229  1.857813
O    1.552980  -0.251344  3.034727
H    0.644100  -0.541301  -0.927773
H    1.622031  0.752983  -0.598685
H    0.369634  1.281223  1.369224
C    -1.096665  -0.303504  1.072964
C    -1.681424  -0.385526  2.487278
C    -1.951754  0.993843  3.123957
N    -1.850514  0.966134  4.594155
C    -0.732938  1.105874  5.305464
N    -0.561098  0.850832  6.590142
N    0.467056  1.598408  4.672959
H    -1.111171  -1.310115  0.629865
H    -1.718795  0.326550  0.421178
H    -1.007979  -0.956637  3.144123
H    -2.618147  -0.957512  2.452604
H    -2.955954  1.358672  2.878629
H    -1.254037  1.751662  2.747270
H    -2.672107  0.631415  5.095412
H    -1.368042  0.450291  7.071664
H    0.275423  2.459868  4.152314
H    0.844991  0.900026  3.951271
O    1.805477  -1.616640  1.271221
H    2.388028  -2.091942  1.898203
Sr    1.697949  1.484659  6.902187
