27
Energy: -103698.681307 eV PBE+vdW (tier 2 basis)
N    1.167516  0.555928  0.598598
C    0.663480  -0.169721  1.799753
C    1.628208  -1.321586  2.107029
O    2.466329  -1.705075  1.286688
H    0.364903  0.850069  0.038369
H    1.595236  1.431988  0.912700
H    0.686000  0.512319  2.665534
C    -0.805530  -0.675994  1.686314
C    -1.102468  -1.967242  0.887102
C    -1.672523  -1.814332  -0.536341
N    -0.864628  -1.004498  -1.459559
C    0.354511  -1.308958  -1.949385
N    1.168879  -0.536017  -2.628373
N    0.949310  -2.535956  -1.574901
H    -1.412107  0.167722  1.321831
H    -1.157594  -0.831297  2.715565
H    -1.862762  -2.538663  1.437573
H    -0.219267  -2.625244  0.891166
H    -2.653384  -1.326084  -0.489729
H    -1.857341  -2.808840  -0.971380
H    -1.262902  -0.124245  -1.772021
H    0.738114  0.308572  -3.010492
H    1.285572  -3.034385  -2.401503
H    0.384680  -3.160686  -1.002978
O    1.551791  -1.946008  3.264925
H    0.898810  -1.556786  3.878942
Sr    2.965361  -0.852159  -0.912395
