27
Energy: -103697.803842 eV PBE+vdW (tier 2 basis)
N    -0.359271  1.149132  1.297554
C    0.515364  0.169996  2.023502
C    1.889048  0.066480  1.377881
O    2.177797  0.795607  0.363097
H    -1.238454  1.274050  1.981861
H    0.111711  2.049411  1.153022
H    0.660852  0.611511  3.026749
C    -0.184027  -1.199758  2.166424
C    -1.687984  -1.167395  2.518359
C    -2.116614  -0.269187  3.685787
N    -2.161362  1.172124  3.292207
C    -1.558537  2.235533  4.064561
N    -1.826168  3.470544  3.915963
N    -0.466812  1.838884  4.839296
H    0.371045  -1.748888  2.938183
H    -0.060844  -1.773429  1.235327
H    -1.974888  -2.200648  2.758404
H    -2.289652  -0.910636  1.631352
H    -1.435836  -0.405445  4.533429
H    -3.111689  -0.571970  4.035186
H    -3.111973  1.447691  3.043445
H    -2.578115  3.668357  3.250372
H    -0.094719  2.650733  5.332119
H    -0.639252  1.080714  5.496654
O    2.739636  -0.740739  1.881266
H    -0.656487  0.804214  0.377966
Sr    4.376301  -0.107934  0.332148
