27
Energy: -103698.777719 eV PBE+vdW (tier 2 basis)
N    0.755907  -0.378249  -0.148925
C    0.680068  -0.449932  1.337179
C    2.009397  -1.029194  1.831865
O    2.614358  -1.872199  1.157913
H    -0.188750  -0.236148  -0.514045
H    1.257149  0.479700  -0.403839
H    0.516206  0.551884  1.768601
C    -0.424498  -1.404859  1.860802
C    -1.881922  -1.118918  1.443832
C    -2.399875  -1.834772  0.176786
N    -2.168330  -3.279217  0.185492
C    -1.083027  -3.893430  -0.343565
N    -0.289361  -3.338170  -1.261188
N    -0.746145  -5.117713  0.140307
H    -0.369369  -1.359302  2.957523
H    -0.158728  -2.442000  1.605171
H    -2.062946  -0.038381  1.332242
H    -2.521560  -1.429255  2.281779
H    -1.973953  -1.415625  -0.744026
H    -3.480879  -1.667957  0.091670
H    -2.826356  -3.845191  0.713785
H    -0.822349  -2.636017  -1.783251
H    -0.306841  -5.769480  -0.500831
H    -1.274278  -5.538122  0.897868
O    2.489888  -0.695908  3.008487
H    1.973373  0.003472  3.455343
Sr    2.005621  -2.610479  -1.044430
