27
Energy: -103698.959627 eV PBE+vdW (tier 2 basis)
N    0.492464  -0.900925  -0.314119
C    0.092717  -0.079960  0.864836
C    1.366401  0.554023  1.427398
O    2.436469  -0.065444  1.385153
H    0.700080  -0.268504  -1.095198
H    -0.328487  -1.425096  -0.630153
H    -0.634819  0.695021  0.572504
C    -0.510962  -0.944885  2.003375
C    -1.587905  -1.957046  1.575927
C    -1.067638  -3.375710  1.284881
N    -0.448086  -3.999490  2.450575
C    0.796636  -4.540710  2.507867
N    1.774854  -4.140159  1.688798
N    0.990823  -5.483388  3.455619
H    -0.928329  -0.249444  2.743734
H    0.293515  -1.482187  2.532969
H    -2.162762  -1.599580  0.706661
H    -2.330472  -2.027599  2.383221
H    -0.328060  -3.403736  0.475183
H    -1.909443  -4.001086  0.951873
H    -1.086701  -4.278555  3.189469
H    2.527208  -4.834367  1.756682
H    1.923057  -5.785220  3.709420
H    0.221007  -5.938050  3.932575
O    1.329449  1.722765  2.025496
H    0.454723  2.156509  1.977979
Sr    2.663339  -2.264152  0.425997
