27
Energy: -103699.151173 eV PBE+vdW (tier 2 basis)
N    0.760360  0.488108  0.204747
C    -0.272462  0.432931  1.229129
C    -0.400220  1.687569  2.108595
O    -1.416840  1.803897  2.890308
H    0.551428  1.200536  -0.494926
H    1.661036  0.743169  0.613408
H    -1.251934  0.357093  0.726556
C    -0.116232  -0.823181  2.121580
C    -0.583641  -2.129852  1.458879
C    0.256057  -2.668337  0.297039
N    1.512448  -3.263571  0.780729
C    2.545838  -3.605048  0.001197
N    3.650885  -4.143775  0.543471
N    2.498204  -3.392170  -1.319225
H    -0.714314  -0.684114  3.031889
H    0.935753  -0.894880  2.443327
H    -1.606282  -1.992296  1.078284
H    -0.672528  -2.911847  2.230957
H    0.505910  -1.838955  -0.380579
H    -0.324710  -3.432259  -0.244305
H    1.500520  -3.651298  1.719539
H    4.359460  -4.581154  -0.032610
H    3.314478  -3.521384  -1.903945
H    1.642570  -3.097697  -1.771129
O    0.479613  2.621063  2.049622
H    3.752630  -4.240718  1.545534
Sr    -0.766155  3.927592  3.520554
