27
Energy: -103698.079583 eV PBE+vdW (tier 2 basis)
N    0.130831  -0.520821  -0.416523
C    -0.112737  -0.074740  0.970306
C    1.178423  0.489820  1.555209
O    2.299167  0.365181  1.070844
H    -0.756760  -0.815539  -0.830866
H    0.462554  0.259111  -0.988792
H    -0.846739  0.747029  1.009034
C    -0.689644  -1.216696  1.852188
C    0.238637  -2.355441  2.314402
C    0.758228  -3.328366  1.242886
N    1.656147  -2.648104  0.305741
C    2.969002  -2.663071  0.326103
N    3.826661  -3.429540  0.985497
N    3.648144  -1.639895  -0.471159
H    -1.555589  -1.633959  1.313856
H    -1.104483  -0.743049  2.751349
H    -0.328997  -2.958032  3.038164
H    1.095248  -1.948532  2.875915
H    -0.072330  -3.750310  0.659627
H    1.271452  -4.175075  1.716009
H    1.167761  -1.831800  -0.197195
H    3.398291  -4.153836  1.562924
H    3.405136  -1.743051  -1.461945
H    3.248736  -0.727361  -0.166885
O    0.937902  1.148359  2.689106
H    1.774784  1.519805  3.034523
Sr    5.894862  -2.471028  0.415003
