27
Energy: -103697.26376 eV PBE+vdW (tier 2 basis)
N    0.750586  -0.796664  0.601357
C    0.236740  0.114380  1.639346
C    1.422425  0.524150  2.528622
O    1.703647  0.022133  3.611759
H    0.035028  -0.946000  -0.112443
H    1.555136  -0.402840  0.110760
H    -0.160018  1.064430  1.225446
C    -0.923255  -0.529894  2.441138
C    -1.018117  -2.067638  2.508694
C    0.200818  -2.857777  3.005705
N    0.735153  -2.335084  4.268417
C    0.885445  -2.913813  5.433241
N    1.416045  -2.383155  6.532551
N    0.474893  -4.302246  5.663566
H    -1.863246  -0.189324  1.986042
H    -0.926502  -0.099299  3.452821
H    -1.244838  -2.472838  1.512790
H    -1.890039  -2.307085  3.136169
H    1.007904  -2.774420  2.263394
H    -0.060059  -3.919203  3.106542
H    1.104975  -1.345521  4.142712
H    1.714126  -1.411427  6.420526
H    -0.539767  -4.395861  5.541433
H    0.885212  -4.919400  4.954296
O    2.212689  1.498235  2.073619
H    1.865409  1.896186  1.253342
Sr    1.460507  -4.122463  8.085880
