27
Energy: -103697.361335 eV PBE+vdW (tier 2 basis)
N    0.044637  0.682797  0.336542
C    0.326707  0.123981  1.670183
C    1.792947  -0.340629  1.674659
O    2.174073  -1.491495  1.478788
H    -0.871970  1.134172  0.339311
H    0.712133  1.411697  0.078836
H    0.256624  0.878066  2.481389
C    -0.667534  -1.008245  2.039380
C    -1.400867  -1.765511  0.912389
C    -0.569611  -2.414248  -0.203216
N    0.548599  -3.204356  0.321722
C    0.839863  -4.459414  0.092666
N    0.204257  -5.395879  -0.602393
N    2.094557  -4.973737  0.657023
H    -1.454014  -0.559634  2.661152
H    -0.153585  -1.716621  2.705109
H    -2.104004  -1.091759  0.403536
H    -2.021012  -2.533520  1.397646
H    -0.129611  -1.625723  -0.831066
H    -1.212749  -3.037782  -0.837367
H    1.227184  -2.606764  0.877425
H    -0.693872  -5.099724  -0.986924
H    1.996484  -5.072928  1.674451
H    2.849023  -4.288508  0.533388
O    2.723327  0.588141  1.896284
H    2.329289  1.450862  2.125627
Sr    1.752901  -7.152207  -0.715975
