27
Energy: -103697.844197 eV PBE+vdW (tier 2 basis)
N    -0.329031  -0.365709  -0.160368
C    -0.124171  -0.275647  1.296138
C    1.385309  -0.141003  1.612249
O    2.130312  0.442245  0.801757
H    -0.071899  -1.324513  -0.431992
H    -2.122299  -0.802009  -0.352890
H    -0.504100  0.715057  1.619654
C    -0.889992  -1.296873  2.166882
C    -0.760137  -2.787762  1.813203
C    -1.656611  -3.300042  0.668390
N    -3.077371  -2.991303  0.838471
C    -3.764464  -2.037153  0.186665
N    -3.138259  -1.065352  -0.484206
N    -5.108323  -2.077850  0.220491
H    -1.950856  -1.008093  2.153069
H    -0.618700  -1.152151  3.227793
H    -1.003498  -3.370338  2.713303
H    0.279461  -3.058694  1.566773
H    -1.564991  -4.392592  0.607521
H    -1.355705  -2.913801  -0.311735
H    -3.611228  -3.593857  1.456946
H    -3.692842  -0.474606  -1.092520
H    -5.607490  -2.914800  0.496816
H    -5.666872  -1.289339  -0.081091
O    1.923622  -0.575194  2.730503
H    1.261018  -1.010015  3.302682
Sr    1.231280  1.046914  -1.281020
