27
Energy: -103699.134907 eV PBE+vdW (tier 2 basis)
N    -0.728106  0.724515  0.044771
C    -0.430738  0.324360  1.469472
C    1.017582  0.771102  1.824124
O    1.372992  1.904897  1.272396
H    -1.732714  0.599229  -0.118535
H    -0.288401  0.036789  -0.578402
H    -1.084396  0.957516  2.093485
C    -0.743726  -1.137002  1.813918
C    0.277380  -2.188630  1.318386
C    0.797264  -3.028420  2.500795
N    2.017785  -3.783296  2.221908
C    3.259095  -3.383079  2.543889
N    3.500974  -2.126054  2.921445
N    4.268052  -4.269390  2.474959
H    -1.755241  -1.372804  1.453340
H    -0.815152  -1.185998  2.910116
H    1.136722  -1.703701  0.833104
H    -0.172307  -2.850673  0.566473
H    0.033420  -3.747945  2.824475
H    0.997392  -2.375266  3.359291
H    1.926897  -4.694414  1.785193
H    4.386506  -1.889927  3.352296
H    5.232408  -3.972251  2.554862
H    4.094033  -5.266664  2.459768
O    1.715538  0.108225  2.580428
H    2.816901  -1.367888  2.819709
Sr    0.367897  3.071619  -0.276924
