27
Energy: -103698.596779 eV PBE+vdW (tier 2 basis)
N    -0.711187  -0.538053  -0.536034
C    -0.083086  -0.520782  0.805797
C    1.139708  0.099156  0.769194
O    1.608107  0.569740  -0.403184
H    -0.003380  -0.057514  -1.138586
H    -0.874615  -1.487804  -0.902816
H    1.472998  0.049414  3.550231
C    -0.819652  -1.185918  1.921555
C    -1.855252  -0.297449  2.647106
C    -1.241007  0.682141  3.652671
N    -0.833844  0.021800  4.899405
C    0.405439  -0.199501  5.355145
N    1.485372  -0.035144  4.584486
N    0.560313  -0.592226  6.633924
H    -0.093496  -1.586546  2.644570
H    -1.334746  -2.081528  1.535425
H    -2.593873  -0.926450  3.167156
H    -2.431073  0.290474  1.916068
H    -1.971171  1.456410  3.924761
H    -0.372267  1.202424  3.229534
H    -1.590219  -0.286408  5.502992
H    2.395088  -0.072984  5.026215
H    1.431419  -0.989127  6.961950
H    -0.193478  -0.519744  7.305818
O    1.944977  0.277576  1.821235
H    -1.603595  -0.027092  -0.596842
Sr    3.573838  1.205587  0.459147
