27
Energy: -103697.716208 eV PBE+vdW (tier 2 basis)
N    -0.348789  0.707631  0.707092
C    -0.494524  0.207616  2.082283
C    0.822789  0.557812  2.803229
O    0.976959  0.438416  4.026530
H    -0.866149  1.570248  0.541749
H    -0.625472  0.031374  -0.003319
H    -1.307707  0.718151  2.622092
C    -0.767667  -1.316615  2.075189
C    -1.116780  -2.040206  3.394146
C    0.046583  -2.496676  4.296410
N    0.190480  -1.614535  5.520503
C    1.452408  -1.804291  6.199626
N    1.393266  -2.698585  7.167800
N    2.476300  -1.058627  5.807773
H    0.074908  -1.832251  1.586833
H    -1.631627  -1.455355  1.409404
H    -1.671948  -2.941893  3.102097
H    -1.827873  -1.433691  3.979937
H    0.995708  -2.506881  3.740343
H    -0.109294  -3.535613  4.634997
H    0.183381  -0.646055  5.125357
H    2.278828  -2.900828  7.634900
H    2.330073  -0.361989  5.060919
H    3.376599  -1.099657  6.277159
O    1.772334  0.970491  2.012315
H    1.289887  1.003960  1.103105
Sr    -0.946263  -2.770958  7.475718
