27
Energy: -103699.353415 eV PBE+vdW (tier 2 basis)
N    -0.941367  0.123424  0.561682
C    -0.553594  0.085279  2.031880
C    0.867592  0.678309  2.107142
O    1.399100  0.790638  3.243239
H    -1.766787  0.705806  0.377714
H    -1.120035  -0.812469  0.176846
H    -1.213544  0.788415  2.557584
C    -0.713301  -1.299462  2.685982
C    -0.159528  -2.546857  1.971611
C    1.334520  -2.609652  1.617547
N    2.213594  -2.396654  2.766515
C    3.297892  -1.594978  2.733610
N    3.864314  -1.065547  1.673038
N    3.803609  -1.110953  3.952627
H    -1.784060  -1.469380  2.866095
H    -0.262727  -1.192373  3.682284
H    -0.710289  -2.750989  1.037000
H    -0.417200  -3.406009  2.609202
H    1.592666  -1.840873  0.875866
H    1.544815  -3.582037  1.148092
H    2.022051  -2.922022  3.615330
H    3.635692  -1.535274  0.796415
H    3.260767  -1.321546  4.788400
H    4.794418  -1.314320  4.085337
O    1.430363  1.015022  1.012789
H    -0.098884  0.542481  0.090874
Sr    3.610189  1.271030  2.350184
