27
Energy: -103699.271019 eV PBE+vdW (tier 2 basis)
N    0.746794  -0.106688  0.388118
C    -0.339698  0.041916  1.447464
C    0.433222  0.280375  2.762259
O    1.517921  -0.383409  2.904253
H    1.533965  -0.601248  0.856099
H    0.429228  -0.643288  -0.430501
H    -0.947694  0.917322  1.190357
C    -1.170227  -1.258500  1.454130
C    -2.500079  -1.274282  2.231471
C    -2.459163  -1.173176  3.764433
N    -1.497813  -2.103866  4.363037
C    -0.642481  -1.762251  5.350526
N    -0.666818  -0.684424  6.095091
N    0.531058  -2.530323  5.495923
H    -0.518408  -2.081580  1.787114
H    -1.434642  -1.476922  0.406642
H    -3.004907  -2.209899  1.948196
H    -3.158155  -0.469964  1.871804
H    -3.469908  -1.355116  4.156695
H    -2.164069  -0.163298  4.072179
H    -1.541876  -3.079315  4.079244
H    -1.567819  -0.203870  6.100198
H    0.680338  -2.851513  6.452943
H    0.664947  -3.287035  4.827623
O    -0.041830  1.055180  3.628577
H    1.095947  0.803140  0.057712
Sr    1.507169  0.170036  5.356413
