27
Energy: -103695.628204 eV PBE+vdW (tier 2 basis)
N    -0.260323  -1.160025  -0.045145
C    -0.135721  -0.283351  1.111025
C    1.314991  -0.292950  1.578887
O    1.845763  -1.254864  2.194803
H    0.256265  -0.864174  -0.871782
H    -0.079399  -2.141825  0.157486
H    -0.369649  0.740826  0.775152
C    -1.100403  -0.649940  2.250200
C    -2.572100  -0.289004  1.981276
C    -3.343116  -1.253622  1.054610
N    -4.738004  -0.872269  0.898940
C    -5.184361  0.217544  0.172389
N    -6.277954  0.877488  0.398745
N    -4.353324  0.656511  -0.841341
H    -0.777125  -0.108347  3.153081
H    -0.994524  -1.722942  2.481202
H    -2.636822  0.729513  1.569325
H    -3.089977  -0.258594  2.950673
H    -3.327693  -2.271517  1.470136
H    -2.858647  -1.313111  0.072442
H    -5.376308  -1.176561  1.626839
H    -6.825740  0.508375  1.181403
H    -3.888712  -0.051517  -1.401462
H    -4.794331  1.386043  -1.395923
O    2.126609  0.704852  1.269457
H    1.656490  1.436374  0.820265
Sr    3.606573  -2.197903  3.290210
