27
Energy: -103697.485467 eV PBE+vdW (tier 2 basis)
N    -0.631094  -0.728390  0.827638
C    0.168975  -0.300126  2.032644
C    1.657560  -0.602237  1.819692
O    2.453365  -0.705084  2.713805
H    -1.560173  -0.294151  0.842008
H    -0.151466  -0.439258  -0.032707
H    0.103891  0.798316  2.090426
C    -0.388561  -0.889183  3.332477
C    -0.281840  -2.408800  3.541602
C    -1.231271  -3.299236  2.725598
N    -0.897187  -3.321568  1.298807
C    -0.793904  -4.407206  0.600666
N    -0.465019  -4.527655  -0.701657
N    -1.051460  -5.772308  1.146686
H    -1.434445  -0.559493  3.443352
H    0.163720  -0.394206  4.142046
H    -0.505932  -2.598392  4.600828
H    0.756193  -2.741138  3.393383
H    -2.266210  -2.931406  2.836338
H    -1.213186  -4.304990  3.172281
H    -0.746431  -1.864607  0.858245
H    -0.240349  -3.633554  -1.138364
H    -1.949013  -5.790911  1.641191
H    -0.353717  -5.991599  1.866097
O    1.960630  -0.677409  0.491962
H    2.933379  -0.756061  0.414632
Sr    -0.714930  -6.772255  -1.197377
