27
Energy: -103695.734119 eV PBE+vdW (tier 2 basis)
N    0.091999  0.103482  -0.097660
C    0.218210  0.114826  1.357937
C    1.713120  -0.174111  1.517991
O    2.589807  0.723481  1.441009
H    -0.301165  -0.757409  -0.470829
H    -0.393266  0.909049  -0.480298
H    0.069721  1.140543  1.724071
C    -0.670417  -0.850665  2.155716
C    -2.158061  -0.467899  2.257454
C    -3.003676  -0.670563  0.979137
N    -4.428439  -0.668005  1.225177
C    -5.104754  -1.753631  1.753252
N    -4.607594  -2.930976  2.013374
N    -6.422021  -1.538086  2.052010
H    -0.273498  -0.917580  3.181935
H    -0.600565  -1.869202  1.722339
H    -2.251455  0.572479  2.605173
H    -2.596489  -1.090286  3.050031
H    -2.736608  -1.625375  0.496257
H    -2.801261  0.113898  0.237597
H    -4.889920  0.234557  1.258104
H    -3.621730  -3.012788  1.757508
H    -6.937970  -2.363386  2.337402
H    -6.953942  -0.811304  1.588832
O    2.151479  -1.405700  1.656033
H    1.409869  -2.038714  1.764355
Sr    4.615081  1.647562  1.097078
