27
Energy: -103697.50202 eV PBE+vdW (tier 2 basis)
N    -0.638142  0.594571  0.499964
C    -0.083777  0.314913  1.808904
C    1.432411  0.229003  1.722855
O    2.045137  -0.064262  0.699985
H    -0.273820  1.460130  0.103058
H    -1.652626  0.687385  0.552881
H    -0.332460  1.061520  2.592248
C    -0.618373  -1.066324  2.312200
C    -0.238524  -2.249008  1.403000
C    1.047951  -2.982225  1.836943
N    1.710377  -3.637884  0.694250
C    2.801507  -3.237535  0.045084
N    3.246397  -3.683724  -1.116935
N    3.655763  -2.213389  0.602794
H    -1.712041  -0.967980  2.344828
H    -0.307984  -1.236991  3.354014
H    -0.122264  -1.862976  0.379604
H    -1.064283  -2.971555  1.375200
H    0.830562  -3.758085  2.582746
H    1.770955  -2.302300  2.299864
H    1.171398  -4.378983  0.246893
H    2.654996  -4.377716  -1.577420
H    3.949213  -2.460597  1.553352
H    3.122488  -1.296119  0.695660
O    2.126062  0.378995  2.862418
H    1.547271  0.676055  3.591770
Sr    5.172225  -2.350155  -1.441831
