27
Energy: -103696.991457 eV PBE+vdW (tier 2 basis)
N    0.311738  -0.024490  0.332055
C    -0.220403  0.023604  1.685258
C    0.894012  0.412820  2.657893
O    2.051989  0.575602  2.340308
H    -0.277922  0.467438  -0.334383
H    1.252091  0.374377  0.306896
H    -1.014031  0.780414  1.801043
C    -0.840266  -1.345025  2.082888
C    0.200311  -2.464853  2.002917
C    -0.422533  -3.851824  2.092998
N    0.624180  -4.885341  1.911709
C    0.430474  -6.191443  1.979749
N    -0.688929  -6.841155  2.225322
N    1.559102  -7.094991  1.766541
H    -1.657376  -1.543630  1.373020
H    -1.281592  -1.276814  3.086725
H    0.944843  -2.348276  2.807133
H    0.723132  -2.356317  1.037164
H    -1.182441  -3.988793  1.306833
H    -0.901126  -4.014181  3.072103
H    1.558079  -4.539377  1.696156
H    -1.503504  -6.243345  2.377784
H    1.979213  -6.939922  0.842796
H    2.307147  -6.907867  2.444221
O    0.430891  0.531905  3.924100
H    1.179910  0.826970  4.479732
Sr    -0.078234  -9.135762  2.142089
