27
Energy: -103697.728303 eV PBE+vdW (tier 2 basis)
N    -0.082903  0.138763  -0.153372
C    -0.034299  0.199584  1.329121
C    1.388358  0.049173  1.858353
O    1.577337  0.033933  3.124521
H    -0.924687  -1.156529  -0.580242
H    -0.531077  0.974347  -0.532434
H    -0.329038  1.208002  1.667161
C    -1.038852  -0.773082  1.987827
C    -0.801200  -2.291874  1.853064
C    -0.501189  -2.866665  0.459254
N    -1.326981  -2.202951  -0.606760
C    -1.287628  -2.691975  -2.043302
N    -2.219771  -2.463471  -2.860560
N    -0.082706  -3.245676  -2.377346
H    -2.031042  -0.504111  1.594143
H    -1.087653  -0.540351  3.059234
H    -1.689972  -2.791418  2.264388
H    0.029699  -2.601016  2.503889
H    -0.689405  -3.947355  0.446835
H    0.544875  -2.688738  0.177745
H    -2.316154  -2.192208  -0.334758
H    -3.020299  -1.927903  -2.521911
H    -0.052546  -3.568931  -3.342256
H    0.375266  -3.874599  -1.726656
O    2.382382  -0.001168  1.047248
H    0.869905  0.120798  -0.530557
Sr    3.881345  0.236581  2.863899
