27
Energy: -103697.360427 eV PBE+vdW (tier 2 basis)
N    1.222646  -1.517574  0.884620
C    0.064823  -0.647176  0.696645
C    0.479491  0.803249  0.964717
O    1.317382  1.128857  1.800011
H    1.953962  -1.290700  0.208525
H    0.958869  -2.486985  0.699420
H    -0.338455  -0.671767  -0.335522
C    -1.116129  -1.070234  1.626084
C    -0.792796  -1.666610  3.008465
C    -0.243800  -0.745197  4.110091
N    1.169879  -0.402616  3.929305
C    2.189270  -0.601540  4.726113
N    3.462136  -0.300021  4.477606
N    2.034774  -1.173311  6.064273
H    -1.678997  -1.841512  1.081741
H    -1.812020  -0.224050  1.732528
H    -0.125114  -2.533338  2.908091
H    -1.743373  -2.059904  3.397954
H    -0.381471  -1.237023  5.081755
H    -0.810430  0.198501  4.142929
H    1.376479  0.101865  3.014325
H    3.619436  0.059198  3.533176
H    1.227066  -0.768665  6.548266
H    1.836478  -2.178085  5.996993
O    -0.133185  1.760500  0.270754
H    -0.729239  1.387650  -0.406514
Sr    4.542663  -0.542408  6.526266
