27
Energy: -103697.412024 eV PBE+vdW (tier 2 basis)
N    1.445069  -0.928986  1.348198
C    0.445147  -0.102672  2.033018
C    1.022965  0.388364  3.358249
O    1.776919  -0.248659  4.091593
H    2.328720  -0.422245  1.267817
H    1.138962  -1.093734  0.386766
H    0.160207  0.807300  1.479357
C    -0.873660  -0.908911  2.236814
C    -0.690044  -2.346734  2.759269
C    -0.486731  -2.459856  4.272307
N    0.194797  -3.746939  4.618558
C    1.551231  -3.952396  4.123953
N    1.773510  -5.231297  3.863979
N    2.367093  -2.929433  3.969871
H    -1.357578  -0.961837  1.251688
H    -1.562755  -0.335442  2.873430
H    0.188855  -2.759800  2.234135
H    -1.576117  -2.936258  2.462976
H    -1.447576  -2.466423  4.802989
H    0.085361  -1.616022  4.673872
H    0.234072  -3.837651  5.641130
H    2.737059  -5.458836  3.610931
H    2.091177  -1.920683  4.056894
H    3.277803  -3.088078  3.545645
O    0.596495  1.612706  3.655045
H    0.978239  1.889221  4.514818
Sr    -0.422171  -6.024607  3.576236
