27
Energy: -103698.765345 eV PBE+vdW (tier 2 basis)
N    1.748694  -1.045926  1.896939
C    0.343040  -0.549685  1.815929
C    0.267217  0.729725  2.636010
O    1.095968  1.034869  3.503070
H    2.315741  -0.539495  1.207484
H    1.760626  -2.014992  1.565140
H    0.083755  -0.250982  0.788560
C    -0.631016  -1.703877  2.230373
C    -1.931716  -1.411479  3.012771
C    -1.903041  -1.756654  4.512032
N    -0.976745  -0.938949  5.307981
C    0.295486  -1.198364  5.660654
N    1.138791  -0.394885  6.266902
N    0.914207  -2.395379  5.220911
H    -0.024279  -2.430382  2.789665
H    -0.893837  -2.211577  1.294463
H    -2.735958  -2.020823  2.578350
H    -2.261457  -0.372868  2.875247
H    -1.671200  -2.820487  4.667582
H    -2.904871  -1.613923  4.937188
H    -1.321119  -0.024161  5.587573
H    0.710134  0.436666  6.678780
H    1.364163  -2.864012  6.010551
H    0.307992  -3.057354  4.740037
O    -0.747106  1.503182  2.302089
H    -0.728152  2.340438  2.813810
Sr    2.756739  -0.517366  4.394593
