27
Energy: -103698.696777 eV PBE+vdW (tier 2 basis)
N    -0.381833  0.366688  0.374892
C    -0.188579  0.341033  1.847482
C    1.283131  -0.009864  2.101200
O    1.907605  -0.710938  1.298383
H    -0.125713  1.298381  0.031697
H    -1.382719  0.287302  0.178059
H    -0.426167  1.322511  2.290677
C    -1.038256  -0.746318  2.562694
C    -2.560714  -0.767848  2.268858
C    -3.082252  -1.958878  1.440871
N    -2.684044  -1.936825  0.025884
C    -1.570480  -2.442814  -0.543080
N    -1.102823  -2.204353  -1.744763
N    -0.683524  -3.226721  0.238191
H    -0.890984  -0.594621  3.640172
H    -0.590297  -1.727783  2.355128
H    -2.894385  0.173695  1.803683
H    -3.094821  -0.805156  3.228121
H    -4.179286  -1.958323  1.461289
H    -2.785719  -2.916073  1.894171
H    -3.271282  -1.379886  -0.590224
H    -1.757999  -1.731181  -2.370788
H    -0.500975  -4.113923  -0.237550
H    -0.985720  -3.421986  1.191054
O    1.879827  0.376842  3.207449
H    1.329340  0.962621  3.763514
Sr    1.149490  -1.527465  -0.859169
