27
Energy: -103697.651278 eV PBE+vdW (tier 2 basis)
N    0.967769  0.139727  -0.138992
C    0.791351  -0.328710  1.279286
C    2.000630  -1.208522  1.696212
O    3.116099  -0.926713  1.090104
H    0.648562  -0.602645  -0.771921
H    0.311369  0.909040  -0.309068
H    0.907091  0.574974  1.902932
C    -0.595057  -0.897025  1.628814
C    -1.125298  -2.155991  0.912124
C    -0.401832  -3.493351  1.096652
N    -0.123759  -3.823146  2.546208
C    0.588338  -5.175208  2.731704
N    1.837367  -5.261614  2.850959
N    -0.287008  -6.212115  2.625022
H    -1.333249  -0.099752  1.455765
H    -0.604896  -1.042687  2.719152
H    -1.189859  -1.992541  -0.175930
H    -2.173289  -2.275497  1.226154
H    0.581752  -3.519901  0.612476
H    -0.998708  -4.311071  0.677226
H    -0.984101  -3.771680  3.108621
H    2.354927  -4.380975  2.823729
H    0.122325  -7.131249  2.773157
H    -1.248971  -6.122385  2.932983
O    1.883880  -2.053776  2.584469
H    0.551650  -3.082317  2.875540
Sr    3.549842  0.530792  -0.494178
