27
Energy: -103698.019034 eV PBE+vdW (tier 2 basis)
N    -0.353933  0.034289  -0.156539
C    -0.091189  -0.438035  1.250947
C    1.170864  -1.343521  1.230451
O    2.096538  -0.958856  0.402779
H    -0.881992  -0.705672  -0.636207
H    -1.016020  0.815935  -0.112553
H    0.206154  0.460314  1.819222
C    -1.317651  -1.076310  1.914533
C    -1.209797  -1.206172  3.457737
C    -1.493082  -2.606436  3.990531
N    -0.414026  -3.599444  3.557297
C    -0.933318  -4.809817  2.848887
N    -1.418971  -4.558193  1.703732
N    -0.753952  -5.954808  3.550604
H    -1.495602  -2.063680  1.457370
H    -2.197177  -0.462111  1.676185
H    -1.938178  -0.539590  3.938265
H    -0.226550  -0.870664  3.819979
H    -2.443044  -2.994229  3.607752
H    -1.526561  -2.615399  5.085706
H    0.174196  -3.853926  4.357611
H    -1.807768  -5.376533  1.229718
H    -1.078994  -6.831554  3.158236
H    -0.510902  -5.973037  4.533896
O    1.280006  -2.325882  1.967302
H    0.239624  -3.090594  2.861622
Sr    1.960032  0.376410  -1.329094
