27
Energy: -103697.966542 eV PBE+vdW (tier 2 basis)
N    1.090008  -1.427996  0.693722
C    0.755684  -0.682990  1.887262
C    1.918117  -0.843001  2.869742
O    2.840318  -1.643557  2.665891
H    0.356760  -1.307758  -0.006888
H    -0.879968  3.363907  -0.173044
H    0.679382  0.415982  1.712498
C    -0.554125  -1.147207  2.604528
C    -1.857700  -0.995895  1.802360
C    -2.591302  0.345181  1.890195
N    -1.965874  1.409736  1.084670
C    -2.347531  2.698637  1.111923
N    -1.720641  3.598462  0.338953
N    -3.326591  3.098488  1.930464
H    -0.675272  -0.632763  3.573734
H    -0.422093  -2.213451  2.837510
H    -2.570247  -1.739291  2.185586
H    -1.709992  -1.277792  0.746618
H    -2.620427  0.681056  2.938091
H    -3.629494  0.195947  1.550738
H    -1.443742  1.112023  0.266340
H    -2.089112  4.533755  0.212681
H    -3.537269  4.081690  2.057126
H    -3.948972  2.435165  2.374658
O    1.967386  -0.125059  3.981512
H    1.206930  0.480960  4.055058
Sr    2.933832  -2.768579  0.578416
