27
Energy: -103699.140121 eV PBE+vdW (tier 2 basis)
N    1.761832  -1.411513  1.327192
C    0.753271  -0.661089  2.128461
C    0.907752  -1.012348  3.603143
O    1.595549  -1.951072  4.028717
H    1.386009  -1.538877  0.383402
H    2.575415  -0.803625  1.187953
H    0.949463  0.422100  2.076445
C    -0.697700  -0.840851  1.610765
C    -1.213087  -2.242342  1.242537
C    -1.286256  -3.312073  2.344701
N    -0.104021  -4.210210  2.294227
C    0.085310  -5.215896  3.296533
N    1.323479  -5.630297  3.379053
N    -0.953344  -5.573607  4.063743
H    -0.785443  -0.212860  0.712529
H    -1.368140  -0.381520  2.350185
H    -0.664379  -2.654144  0.379063
H    -2.230482  -2.085283  0.859702
H    -2.215956  -3.887583  2.209358
H    -1.328005  -2.858644  3.344336
H    -0.066947  -4.669945  1.379231
H    1.460230  -6.439483  3.988066
H    -0.829926  -6.233316  4.825348
H    -1.909226  -5.344032  3.815900
O    0.240589  -0.195871  4.392328
H    0.385536  -0.426877  5.334604
Sr    2.571006  -3.648801  2.621437
