27
Energy: -103698.89241 eV PBE+vdW (tier 2 basis)
N    -0.896461  -1.809175  4.485121
C    0.123891  -1.568383  3.461619
C    1.304338  -0.833703  4.091977
O    2.277176  -1.536086  4.565554
H    -0.647634  -2.575752  5.107699
H    -1.112321  -0.986996  5.046821
H    0.519306  -2.550448  3.171326
C    -0.488945  -0.934506  2.196282
C    -1.348391  0.324693  2.389355
C    -2.450611  0.467771  1.332228
N    -1.975627  0.613722  -0.053894
C    -1.960105  1.739072  -0.776484
N    -2.087749  2.939249  -0.192458
N    -1.798581  1.674194  -2.108056
H    -1.123833  -1.733296  1.780533
H    0.310496  -0.751727  1.461754
H    -0.721730  1.227277  2.428237
H    -1.881224  0.269728  3.349761
H    -3.107476  1.318483  1.557411
H    -3.094835  -0.422718  1.348602
H    -1.702430  -0.235449  -0.538203
H    -2.335120  3.758577  -0.734025
H    -1.587847  2.501354  -2.653185
H    -1.963243  0.815038  -2.618304
O    1.308635  0.448312  4.246546
H    -2.055812  3.039433  0.813190
Sr    3.288413  0.302985  5.479472
