27
Energy: -103699.000402 eV PBE+vdW (tier 2 basis)
N    -1.008117  0.849383  -0.266985
C    -0.577669  0.592141  1.160631
C    0.818915  1.214944  1.049841
O    0.898579  2.477039  1.216836
H    -1.014534  -0.033431  -0.783404
H    -1.966378  1.202803  -0.286422
H    -1.190434  1.224012  1.814919
C    -0.644309  -0.869361  1.595846
C    -0.250587  -1.046007  3.070946
C    -0.513871  -2.446898  3.640853
N    0.369390  -3.507526  3.134538
C    1.447930  -3.999151  3.760591
N    1.981635  -5.160291  3.350883
N    2.008412  -3.345500  4.786191
H    0.014363  -1.466376  0.944486
H    -1.675741  -1.227284  1.446228
H    -0.833669  -0.345829  3.689057
H    0.808018  -0.774799  3.213036
H    -1.543307  -2.761173  3.419580
H    -0.434119  -2.436566  4.736126
H    0.101786  -3.967830  2.271118
H    1.452087  -5.816172  2.789433
H    2.669317  -3.806186  5.400495
H    1.762051  -2.389587  5.006115
O    1.696383  0.576867  0.375423
H    2.894682  -5.460907  3.670759
Sr    1.318206  2.425977  -1.075723
