32
Energy: -35247.8458129 eV PBE+vdW (tier 2 basis)
C    0.077513  0.791526  0.098746
C    -0.090238  0.419580  1.533587
O    0.935733  0.286549  2.278217
H    0.688593  1.700353  0.023151
H    -0.870239  0.945026  -0.427104
H    0.637447  -0.011202  -0.403545
N    -1.327505  0.225751  2.001187
C    -1.765748  -0.313955  3.310161
C    -1.488066  0.667757  4.458675
O    -0.298253  0.866148  4.872653
H    -2.069527  0.349616  1.317741
H    -2.856287  -0.404692  3.209549
C    -1.212836  -1.721019  3.643146
C    -1.972290  -2.900463  2.997276
C    -2.000029  -2.855275  1.464842
C    -1.363592  -4.215522  3.499797
H    -1.253440  -1.844282  4.736582
H    -0.150161  -1.786595  3.351550
H    -3.012909  -2.849204  3.363624
H    -2.466742  -3.766248  1.070909
H    -0.985259  -2.803018  1.041673
H    -2.587059  -2.015657  1.065558
H    -1.938511  -5.071823  3.127377
H    -1.359543  -4.274490  4.596633
H    -0.329362  -4.338851  3.144672
N    -2.525236  1.247669  5.035036
C    -2.474205  2.154082  6.183890
H    -3.446947  1.046184  4.653264
H    -2.758596  3.166007  5.869501
H    -1.461874  2.165126  6.592685
H    -3.178914  1.805036  6.947228
Ca    1.684082  0.448887  4.233740
