32
Energy: -35247.8677402 eV PBE+vdW (tier 2 basis)
C    -0.613612  -1.800785  0.390211
C    -0.812168  -0.739629  1.418147
O    0.152870  -0.386883  2.175351
H    0.151707  -1.456673  -0.321050
H    -1.526565  -2.047205  -0.161312
H    -0.218963  -2.707742  0.866721
N    -2.007849  -0.152724  1.525963
C    -2.328912  1.031778  2.351886
C    -2.460216  0.598896  3.828903
O    -1.395244  0.475806  4.526517
H    -2.737149  -0.468252  0.889149
H    -1.445439  1.689842  2.322393
C    -3.509433  1.793996  1.729494
C    -3.594940  3.293116  2.090437
C    -4.729319  3.938928  1.285052
C    -3.755617  3.575651  3.588834
H    -4.471091  1.292206  1.943329
H    -3.389689  1.723022  0.637244
H    -2.645077  3.749434  1.758577
H    -4.604425  3.784035  0.205292
H    -4.759448  5.020635  1.462349
H    -5.708428  3.530787  1.575303
H    -2.912632  3.212392  4.196848
H    -4.682946  3.136955  3.988007
H    -3.817765  4.657068  3.761010
N    -3.650100  0.339055  4.324480
C    -3.945985  -0.069681  5.697266
H    -4.445610  0.513145  3.712931
H    -3.012452  -0.225015  6.241100
H    -4.529787  -0.997483  5.683269
H    -4.532990  0.714981  6.190928
Ca    0.671273  0.150346  4.147372
