32
Energy: -35246.144199 eV PBE+vdW (tier 2 basis)
C    -2.533443  1.336465  0.355795
C    -1.886385  1.181431  1.684523
O    -1.189311  2.208739  2.154029
H    -3.188368  2.218892  0.368975
H    -3.119262  0.460091  0.070334
H    -1.764953  1.513176  -0.410364
N    -1.951652  0.121000  2.425535
C    -2.632349  -1.169912  2.267008
C    -2.550468  -1.689804  3.744499
O    -1.844016  -1.038009  4.541100
H    -1.547690  0.071972  3.420681
H    -3.682373  -1.000288  1.987061
C    -1.922867  -2.110136  1.244078
C    -2.834738  -2.934418  0.303800
C    -3.756986  -3.928002  1.019622
C    -3.624437  -2.064919  -0.680354
H    -1.255789  -2.786251  1.797673
H    -1.266778  -1.487914  0.617926
H    -2.124191  -3.532469  -0.289757
H    -4.248157  -4.585324  0.291341
H    -4.578638  -3.421415  1.555921
H    -3.206696  -4.580034  1.712905
H    -4.178163  -2.692979  -1.389423
H    -2.964537  -1.417040  -1.274357
H    -4.378623  -1.438229  -0.176398
N    -3.223282  -2.791929  4.055022
C    -3.201712  -3.414609  5.378064
H    -3.738429  -3.262123  3.315011
H    -2.617651  -4.343362  5.354907
H    -4.226488  -3.641715  5.691709
H    -2.745973  -2.720361  6.088111
Ca    -0.169096  3.718018  2.908714
