32
Energy: -35247.0565182 eV PBE+vdW (tier 2 basis)
C    -0.173297  0.004256  -0.713764
C    -0.196309  -0.250604  0.751318
O    0.881026  -0.501193  1.387451
H    0.532837  0.806299  -0.966440
H    -1.158867  0.211555  -1.138706
H    0.222382  -0.908424  -1.188997
N    -1.360010  -0.226459  1.440574
C    -2.339952  0.866976  1.346709
C    -1.568009  2.181142  1.605360
O    -0.481260  2.132979  2.295873
H    -1.294502  -0.630055  2.377157
H    -2.798304  0.874416  0.349713
C    -3.422202  0.612117  2.428965
C    -4.736055  1.407938  2.335291
C    -5.548734  1.037291  1.089104
C    -5.553781  1.158138  3.611574
H    -2.960994  0.776580  3.417766
H    -3.662172  -0.461778  2.362223
H    -4.500521  2.485255  2.312201
H    -6.456699  1.649010  1.024055
H    -5.865297  -0.014600  1.128441
H    -5.004394  1.175659  0.142077
H    -6.496775  1.716809  3.578800
H    -5.011661  1.473286  4.513261
H    -5.806015  0.093656  3.719357
N    -1.985023  3.346889  1.153030
C    -3.107894  3.680332  0.272137
H    -1.411938  4.138436  1.451932
H    -2.728094  4.279966  -0.563462
H    -3.851392  4.268491  0.822896
H    -3.585423  2.779625  -0.116520
Ca    1.300721  1.064584  2.813826
