32
Energy: -35245.9788211 eV PBE+vdW (tier 2 basis)
C    0.044785  -0.185862  -0.205508
C    -0.163717  -0.160464  1.267460
O    0.842154  -0.540750  2.041649
H    0.948439  0.384263  -0.460077
H    -0.804376  0.224858  -0.757898
H    0.207018  -1.222415  -0.534778
N    -1.262067  0.209128  1.848350
C    -2.559133  0.657122  1.310763
C    -3.120933  1.397714  2.564098
O    -2.681790  1.021017  3.668350
H    -1.384944  0.244736  2.901883
H    -2.402223  1.340176  0.466128
C    -3.369764  -0.592232  0.875289
C    -4.786014  -0.367230  0.298067
C    -5.093745  -1.473551  -0.721963
C    -5.864740  -0.334282  1.388505
H    -3.425576  -1.279438  1.734376
H    -2.754726  -1.095179  0.112631
H    -4.792645  0.589830  -0.249268
H    -5.052096  -2.467355  -0.252832
H    -6.102807  -1.349079  -1.134168
H    -4.387360  -1.462187  -1.563412
H    -6.843456  -0.090397  0.956760
H    -5.662386  0.392778  2.184486
H    -5.956586  -1.320680  1.865361
N    -3.999099  2.396316  2.439009
C    -4.584065  3.000019  1.246223
H    -4.305802  2.770007  3.336529
H    -3.994798  2.761601  0.356428
H    -5.614056  2.654049  1.091100
H    -4.590939  4.088938  1.367867
Ca    2.324538  -1.098076  3.222185
