32
Energy: -35246.1116706 eV PBE+vdW (tier 2 basis)
C    -0.018993  -0.431953  -0.028275
C    -0.113533  0.048823  1.376654
O    1.011369  0.170412  2.066184
H    0.714080  0.174308  -0.577039
H    -0.978213  -0.393298  -0.551148
H    0.341653  -1.470859  -0.037291
N    -1.221459  0.358806  1.973950
C    -2.620256  0.341384  1.521897
C    -3.259530  1.296870  2.579026
O    -2.622919  1.487895  3.631909
H    -1.266991  0.752296  2.961810
H    -2.698333  0.772646  0.513411
C    -3.172085  -1.104388  1.541986
C    -4.651719  -1.272924  1.109680
C    -4.803419  -2.534322  0.248245
C    -5.603230  -1.322677  2.312745
H    -3.025640  -1.520706  2.550398
H    -2.531264  -1.690535  0.865810
H    -4.928118  -0.414557  0.468637
H    -4.193176  -2.482513  -0.663992
H    -5.847747  -2.672610  -0.058009
H    -4.504627  -3.431308  0.809711
H    -6.648778  -1.345787  1.980994
H    -5.487936  -0.468466  2.991875
H    -5.427023  -2.234910  2.900365
N    -4.430598  1.855636  2.277550
C    -5.184504  2.709312  3.194063
H    -4.869649  1.602585  1.397454
H    -5.531945  3.601544  2.662078
H    -4.529582  3.003532  4.017891
H    -6.051108  2.168621  3.596470
Ca    2.674404  0.375352  3.111479
