32
Energy: -35246.5598416 eV PBE+vdW (tier 2 basis)
C    0.003459  -0.184109  -0.450101
C    -0.184425  -0.043477  1.021374
O    0.674295  -0.594990  1.826504
H    1.001680  0.170521  -0.740134
H    -0.755487  0.357511  -1.022717
H    -0.046534  -1.251390  -0.711160
N    -1.200954  0.639660  1.488309
C    -1.736575  0.736567  2.847357
C    -3.253024  1.053173  2.543828
O    -3.531337  1.449758  1.408650
H    -1.934134  1.037708  0.847553
H    -1.655887  -0.245293  3.337244
C    -1.153656  1.870388  3.726522
C    0.249438  1.725420  4.368624
C    0.425134  0.394323  5.132767
C    1.415978  2.103919  3.426686
H    -1.865083  2.011431  4.552954
H    -1.191320  2.806674  3.150931
H    0.285541  2.496456  5.153631
H    1.420715  0.308413  5.614346
H    0.174480  -0.515249  4.544490
H    -0.274674  0.328506  5.976594
H    2.405963  1.997938  3.919539
H    1.373310  3.170391  3.169562
H    1.399088  1.612375  2.434364
N    -4.124117  0.891390  3.545769
C    -5.556404  1.174879  3.417931
H    -3.800846  0.498173  4.423471
H    -5.877214  1.838707  4.228606
H    -6.133995  0.243492  3.459210
H    -5.727574  1.663730  2.455594
Ca    2.132506  -0.489641  3.239701
