32
Energy: -35246.3562294 eV PBE+vdW (tier 2 basis)
C    0.897406  2.763596  2.291078
C    0.352535  1.407941  2.578044
O    1.172484  0.437042  2.861038
H    1.563443  3.087319  3.101847
H    0.109886  3.508733  2.142638
H    1.509165  2.707627  1.378092
N    -0.939582  1.197859  2.548908
C    -1.699688  -0.047427  2.648483
C    -3.178044  0.478543  2.510217
O    -3.356935  1.699260  2.558618
H    -1.629428  1.979045  2.428292
H    -1.459514  -0.676301  1.776177
C    -1.504210  -0.879754  3.932974
C    -1.592670  -0.140459  5.292926
C    -2.509648  -0.888478  6.269070
C    -0.216001  0.091627  5.938583
H    -0.554645  -1.464108  3.848226
H    -2.258351  -1.678630  3.907056
H    -2.026875  0.855860  5.112037
H    -2.600752  -0.352103  7.221652
H    -2.134313  -1.899765  6.486386
H    -3.518777  -0.987751  5.850065
H    -0.294835  0.590134  6.913711
H    0.430042  0.765942  5.337798
H    0.271579  -0.884105  6.180983
N    -4.141027  -0.438482  2.363722
C    -5.554088  -0.084800  2.196089
H    -3.882348  -1.409113  2.217671
H    -6.174882  -0.835018  2.696180
H    -5.819939  -0.042546  1.132129
H    -5.727090  0.896693  2.645455
Ca    1.817487  -0.883798  4.250412
