32
Energy: -35247.9094888 eV PBE+vdW (tier 2 basis)
C    0.010070  -0.747577  0.329070
C    -0.052604  -0.355828  1.769405
O    0.984349  -0.441218  2.490753
H    0.362006  -1.785953  0.259685
H    0.761312  -0.124411  -0.175789
H    -0.945533  -0.654667  -0.196616
N    -1.230658  0.078773  2.250265
C    -1.630915  0.538702  3.607402
C    -0.818420  1.765752  4.058291
O    0.402139  1.667644  4.389833
H    -1.983648  0.097714  1.567684
H    -2.657151  0.895444  3.447574
C    -1.793032  -0.591393  4.661190
C    -0.603833  -1.452158  5.164320
C    0.141145  -0.846174  6.377514
C    -1.106458  -2.855002  5.548451
H    -2.527954  -1.277010  4.215488
H    -2.302667  -0.145390  5.530241
H    0.078827  -1.625520  4.306269
H    0.346607  0.239390  6.321347
H    1.060253  -1.408492  6.628107
H    -0.481172  -0.935573  7.278870
H    -0.295147  -3.475956  5.949127
H    -1.532771  -3.375743  4.682491
H    -1.883833  -2.785193  6.321909
N    -1.458818  2.923949  4.108320
C    -0.876847  4.198954  4.531305
H    -2.435934  2.939683  3.825917
H    -0.840573  4.888818  3.679068
H    0.133293  4.027534  4.908587
H    -1.499574  4.636529  5.320072
Ca    1.813540  0.044371  4.396851
