32
Energy: -35246.1740435 eV PBE+vdW (tier 2 basis)
C    0.026378  -0.620365  0.380988
C    -0.434836  -0.171246  1.723018
O    0.468266  -0.039449  2.683217
H    -0.635364  -0.270032  -0.417978
H    0.035365  -1.721130  0.350325
H    1.045965  -0.269926  0.189142
N    -1.669053  0.086761  2.021596
C    -2.897829  0.068698  1.219272
C    -3.893103  0.748820  2.218628
O    -3.456507  1.069088  3.341316
H    -1.982639  0.470471  2.970591
H    -2.772412  0.751416  0.363062
C    -3.302366  -1.325336  0.689612
C    -3.291427  -2.507512  1.676611
C    -4.316448  -2.372865  2.809889
C    -3.512402  -3.807364  0.890649
H    -2.649942  -1.563191  -0.163536
H    -4.307830  -1.227670  0.249255
H    -2.284001  -2.563389  2.130543
H    -4.310016  -3.273500  3.436616
H    -5.334661  -2.267055  2.408348
H    -4.123337  -1.519304  3.472547
H    -3.454387  -4.678724  1.554439
H    -2.765702  -3.941267  0.095725
H    -4.505852  -3.820107  0.419971
N    -5.134384  0.966429  1.792577
C    -6.178237  1.585876  2.608655
H    -5.388572  0.653447  0.860916
H    -6.689665  2.358568  2.024496
H    -5.713470  2.038433  3.488082
H    -6.908702  0.833197  2.931422
Ca    1.793978  0.215458  4.124183
