32
Energy: -35247.1710319 eV PBE+vdW (tier 2 basis)
C    -1.164829  -0.043310  -1.084612
C    -0.876139  -0.510278  0.298132
O    0.240218  -1.052933  0.587594
H    -0.491864  0.779816  -1.365163
H    -2.204856  0.257710  -1.236885
H    -0.928912  -0.874126  -1.766382
N    -1.785954  -0.362005  1.290579
C    -2.539575  0.869254  1.534935
C    -1.530800  2.037280  1.659451
O    -0.291519  1.785685  1.863360
H    -1.586127  -0.907689  2.129166
H    -3.204245  1.061954  0.680903
C    -3.405443  0.718721  2.812135
C    -2.714476  0.845793  4.188068
C    -3.787769  0.753991  5.284137
C    -1.612039  -0.189628  4.469791
H    -3.920876  -0.251341  2.728711
H    -4.200890  1.473595  2.763978
H    -2.257630  1.849079  4.253752
H    -4.574583  1.504801  5.136263
H    -3.351340  0.922449  6.276076
H    -4.265938  -0.235555  5.291935
H    -0.703943  -0.022832  3.849227
H    -1.953809  -1.224358  4.311554
H    -1.270548  -0.121101  5.510089
N    -1.939043  3.288467  1.569319
C    -3.292233  3.806497  1.344937
H    -1.206478  3.985788  1.710715
H    -3.215055  4.724801  0.754168
H    -3.777321  4.039833  2.301292
H    -3.902168  3.088107  0.789831
Ca    1.201145  0.241622  2.035575
