32
Energy: -35247.6897286 eV PBE+vdW (tier 2 basis)
C    -0.543166  1.725699  0.155069
C    -1.025363  1.031843  1.381863
O    -1.477727  1.701662  2.369875
H    -1.384350  2.281666  -0.284719
H    -0.136916  1.041757  -0.596857
H    0.220425  2.466856  0.425724
N    -0.995471  -0.303223  1.433355
C    -1.601217  -1.120375  2.499879
C    -0.752776  -1.019358  3.787834
O    -1.100807  -0.134909  4.649925
H    -0.679875  -0.798185  0.601736
H    -2.545856  -0.625887  2.778796
C    -1.955956  -2.535756  2.010278
C    -3.333098  -2.653996  1.320550
C    -3.466315  -1.795815  0.055716
C    -3.609013  -4.131009  1.013627
H    -1.953123  -3.207176  2.881507
H    -1.171132  -2.912561  1.334049
H    -4.089854  -2.313413  2.050135
H    -4.437727  -1.974883  -0.421081
H    -2.696110  -2.053274  -0.688316
H    -3.412663  -0.715175  0.253755
H    -4.612556  -4.254653  0.589069
H    -3.552269  -4.754614  1.915775
H    -2.891482  -4.527344  0.280539
N    0.298031  -1.776702  4.041972
C    0.947759  -2.811829  3.230690
H    0.715290  -1.603007  4.957936
H    0.484136  -3.791234  3.399798
H    1.997813  -2.862196  3.534554
H    0.909045  -2.560249  2.167937
Ca    -1.792687  1.867037  4.454238
