32
Energy: -35247.7613278 eV PBE+vdW (tier 2 basis)
C    -1.195335  -0.516522  0.387249
C    -0.775102  -0.218404  1.787852
O    0.462177  -0.075550  2.059488
H    -2.281279  -0.537660  0.250712
H    -0.783359  -1.497419  0.106532
H    -0.755202  0.220238  -0.296790
N    -1.722254  -0.119577  2.726048
C    -1.607388  -0.050060  4.199561
C    -1.039692  1.278245  4.699938
O    0.147517  1.642315  4.394774
H    -2.669552  -0.261381  2.386133
H    -2.644496  -0.118523  4.545652
C    -0.826038  -1.225850  4.843890
C    -1.626613  -2.539078  5.006079
C    -2.799064  -2.382185  5.981737
C    -2.071025  -3.164579  3.678233
H    -0.500072  -0.896314  5.843133
H    0.087565  -1.420216  4.260319
H    -0.906897  -3.233122  5.470123
H    -3.602444  -1.744852  5.578028
H    -2.478645  -1.967434  6.947687
H    -3.259820  -3.356760  6.184071
H    -1.246411  -3.239471  2.954980
H    -2.897377  -2.608581  3.209221
H    -2.446044  -4.181182  3.847726
N    -1.753038  2.022913  5.526107
C    -3.118458  1.798352  6.022987
H    -1.269524  2.852908  5.871718
H    -3.181226  0.867947  6.600215
H    -3.840780  1.784267  5.198351
H    -3.372900  2.631331  6.683699
Ca    1.804777  1.044203  3.222544
