32
Energy: -35246.2049067 eV PBE+vdW (tier 2 basis)
C    0.026881  -0.331684  0.270662
C    -0.226852  -0.198855  1.730590
O    0.794108  -0.374587  2.556094
H    -0.792913  0.066334  -0.333992
H    0.156572  -1.394770  0.017441
H    0.956659  0.186428  0.005166
N    -1.380842  0.068407  2.254950
C    -2.698200  0.307968  1.655843
C    -3.480688  0.859119  2.891565
O    -2.924056  0.793336  4.002807
H    -1.531311  0.211478  3.299744
H    -2.607571  1.099045  0.895998
C    -3.360819  -0.939689  1.026084
C    -3.820125  -2.067411  1.968290
C    -4.632584  -3.087430  1.158098
C    -2.668294  -2.760316  2.710509
H    -2.683503  -1.348587  0.259044
H    -4.232018  -0.570562  0.463079
H    -4.492704  -1.628771  2.724879
H    -5.027023  -3.875788  1.810753
H    -4.013147  -3.572708  0.389540
H    -5.486531  -2.617898  0.652333
H    -3.041777  -3.635850  3.256175
H    -2.190713  -2.106667  3.454176
H    -1.900519  -3.119813  2.006643
N    -4.697556  1.354275  2.669578
C    -5.570731  1.874630  3.721769
H    -5.053448  1.356548  1.718582
H    -5.898285  2.888097  3.463891
H    -5.010193  1.898964  4.659492
H    -6.450201  1.229767  3.839997
Ca    2.293484  -0.639918  3.812131
