32
Energy: -35247.6490635 eV PBE+vdW (tier 2 basis)
C    0.149289  0.887376  0.300785
C    0.001932  0.597219  1.754407
O    0.888982  0.983625  2.586360
H    0.184993  1.977695  0.161891
H    -0.663045  0.476507  -0.307153
H    1.108839  0.490351  -0.056825
N    -1.077183  -0.064592  2.187697
C    -1.407291  -0.265843  3.610870
C    -0.438209  -1.300899  4.223123
O    0.556695  -0.841524  4.892248
H    -1.782579  -0.320627  1.499541
H    -1.142036  0.670683  4.123366
C    -2.921860  -0.455498  3.804232
C    -3.436439  -0.266923  5.251783
C    -3.001733  -1.377307  6.215767
C    -3.116554  1.124118  5.813193
H    -3.256563  -1.424668  3.413130
H    -3.396227  0.314846  3.175053
H    -4.531416  -0.332615  5.153271
H    -3.523722  -1.271482  7.174803
H    -1.925709  -1.338807  6.446465
H    -3.241901  -2.378406  5.832365
H    -2.046094  1.243630  6.049899
H    -3.655086  1.287572  6.754581
H    -3.412545  1.928358  5.125298
N    -0.544787  -2.606043  4.058677
C    -1.525584  -3.399477  3.312924
H    0.171510  -3.139233  4.554217
H    -2.385766  -3.651140  3.945171
H    -1.036104  -4.327288  3.000381
H    -1.861813  -2.872163  2.416852
Ca    1.883540  0.758841  4.444037
