32
Energy: -35247.8932606 eV PBE+vdW (tier 2 basis)
C    0.566134  -0.758417  1.290015
C    -0.541124  0.051889  1.875307
O    -0.414688  0.568458  3.029304
H    0.353848  -1.127557  0.281558
H    0.760770  -1.614592  1.951893
H    1.484805  -0.156882  1.271159
N    -1.666641  0.208614  1.159700
C    -2.922247  0.871679  1.587032
C    -2.701245  2.395634  1.641400
O    -2.036420  2.936576  2.577938
H    -1.680224  -0.237503  0.246236
H    -3.622681  0.691034  0.762423
C    -3.503569  0.156297  2.847885
C    -4.504205  0.862322  3.795578
C    -3.840985  1.692249  4.911416
C    -5.606630  1.653010  3.081495
H    -2.672391  -0.243287  3.445887
H    -4.000417  -0.736726  2.444448
H    -4.995901  0.026315  4.316902
H    -3.056764  1.101804  5.434742
H    -4.559713  1.943742  5.702228
H    -3.472397  2.669603  4.546494
H    -5.230968  2.573122  2.611029
H    -6.387738  1.955939  3.789454
H    -6.092774  1.044043  2.307861
N    -3.211997  3.111661  0.652269
C    -3.098518  4.563047  0.503919
H    -3.752121  2.620359  -0.056126
H    -4.092729  5.020327  0.583276
H    -2.676251  4.795479  -0.480747
H    -2.447489  4.956732  1.286979
Ca    -1.030732  2.160029  4.304044
