32
Energy: -35247.7796618 eV PBE+vdW (tier 2 basis)
C    0.899895  -0.074546  0.265887
C    0.535258  -0.134534  1.711466
O    1.407391  0.113469  2.600466
H    1.317141  0.915626  0.038680
H    0.061005  -0.277517  -0.407486
H    1.697857  -0.806629  0.075624
N    -0.725922  -0.466235  2.037227
C    -1.283108  -0.697156  3.391543
C    -1.421667  0.654536  4.109558
O    -0.390066  1.251072  4.560116
H    -1.352480  -0.645796  1.257110
H    -2.293386  -1.073612  3.211416
C    -0.498312  -1.837688  4.113664
C    -0.547588  -2.003385  5.652350
C    0.517877  -1.186965  6.408239
C    -1.942684  -1.822158  6.262005
H    0.552870  -1.810970  3.792403
H    -0.893381  -2.759182  3.664418
H    -0.264558  -3.056012  5.807727
H    1.528449  -1.355484  5.974416
H    0.614754  -1.523141  7.448819
H    0.258065  -0.114580  6.480313
H    -1.951387  -2.136555  7.312763
H    -2.686715  -2.435605  5.736795
H    -2.280988  -0.775988  6.242081
N    -2.603122  1.238562  4.243827
C    -3.953190  0.812103  3.872049
H    -2.549970  2.143780  4.716385
H    -4.565372  0.716228  4.777326
H    -3.946416  -0.146440  3.349526
H    -4.402781  1.568534  3.217663
Ca    1.698532  0.803267  4.598626
