32
Energy: -35247.694553 eV PBE+vdW (tier 2 basis)
C    -1.363666  -0.920396  0.541774
C    -1.133658  -0.009124  1.703141
O    0.043618  0.194572  2.126483
H    -0.807280  -0.539040  -0.325719
H    -2.418493  -1.030857  0.270797
H    -0.946123  -1.909094  0.776242
N    -2.199238  0.583498  2.261894
C    -2.287440  1.488173  3.428177
C    -1.295654  2.659224  3.365372
O    -0.097933  2.550340  3.783939
H    -3.095634  0.333025  1.852569
H    -3.274673  1.946962  3.304268
C    -2.345504  0.800492  4.833277
C    -1.653502  -0.541924  5.154452
C    -0.114745  -0.508619  5.305020
C    -2.270741  -1.083953  6.457281
H    -3.414750  0.628878  5.015172
H    -2.047812  1.556044  5.577443
H    -1.892441  -1.260487  4.354469
H    0.227586  -1.248480  6.038917
H    0.236207  0.470149  5.686826
H    0.371109  -0.823595  4.361493
H    -2.057148  -0.420955  7.307759
H    -1.868530  -2.076403  6.694293
H    -3.360122  -1.180488  6.371982
N    -1.723052  3.834346  2.927992
C    -3.046545  4.208510  2.411849
H    -1.027654  4.579502  2.983718
H    -2.978707  5.231309  2.030890
H    -3.802071  4.190392  3.207682
H    -3.347822  3.557718  1.583473
Ca    1.396418  1.062281  3.523076
