32
Energy: -35247.7850609 eV PBE+vdW (tier 2 basis)
C    -1.333234  0.134454  -0.409485
C    -0.892659  -0.054521  1.003541
O    0.343671  0.016533  1.296517
H    -2.419324  0.093799  -0.539900
H    -0.869188  -0.648735  -1.026492
H    -0.957452  1.096362  -0.782848
N    -1.823238  -0.299849  1.934904
C    -1.655795  -0.672469  3.360318
C    -1.107079  0.494155  4.196579
O    0.124506  0.820812  4.103952
H    -2.779022  -0.338260  1.590143
H    -2.674362  -0.885744  3.700583
C    -0.829451  -1.952845  3.580750
C    -0.864080  -2.483297  5.029209
C    -2.257004  -2.993625  5.422495
C    0.189685  -3.584944  5.194659
H    0.221304  -1.793324  3.279122
H    -1.216305  -2.719385  2.892195
H    -0.591247  -1.655340  5.709853
H    -2.564457  -3.834055  4.784187
H    -3.040145  -2.223888  5.360700
H    -2.252774  -3.354246  6.458221
H    1.203753  -3.221801  4.970061
H    -0.017248  -4.436887  4.531502
H    0.199331  -3.963681  6.223649
N    -1.885375  1.145003  5.042261
C    -3.308626  0.957391  5.347298
H    -1.401066  1.862547  5.584890
H    -3.698180  1.904571  5.732544
H    -3.442331  0.183484  6.113571
H    -3.877052  0.699102  4.449173
Ca    1.754443  0.477685  2.787848
