32
Energy: -35247.6580608 eV PBE+vdW (tier 2 basis)
C    0.428203  -0.153772  0.305718
C    0.184402  -0.204421  1.774620
O    1.161393  -0.287238  2.591035
H    1.034865  0.735561  0.081048
H    -0.492477  -0.116323  -0.285254
H    1.020896  -1.027093  0.002083
N    -1.070815  -0.149798  2.234438
C    -1.436449  -0.024665  3.659523
C    -1.166031  -1.369214  4.372532
O    -0.051754  -1.481138  5.000715
H    -1.818224  -0.043057  1.551333
H    -0.700949  0.659931  4.110870
C    -2.811706  0.646926  3.813307
C    -3.091523  1.251892  5.205408
C    -4.398423  2.053145  5.146830
C    -3.134747  0.214146  6.333612
H    -3.628142  -0.030034  3.528436
H    -2.824675  1.469653  3.080458
H    -2.272253  1.961304  5.421589
H    -4.585919  2.553869  6.104223
H    -5.258858  1.399257  4.943605
H    -4.369769  2.826780  4.368270
H    -3.904549  -0.550198  6.150646
H    -3.390579  0.699430  7.283558
H    -2.172890  -0.293952  6.498612
N    -1.976616  -2.409744  4.330661
C    -3.265597  -2.597009  3.657870
H    -1.644166  -3.205107  4.878130
H    -4.091674  -2.257580  4.294456
H    -3.387408  -3.667511  3.465396
H    -3.291565  -2.072586  2.699351
Ca    1.922564  -0.902825  4.468786
