32
Energy: -35246.4378036 eV PBE+vdW (tier 2 basis)
C    -0.317698  0.705733  -0.212009
C    -0.108200  0.293037  1.203566
O    1.112099  0.204897  1.666283
H    0.125761  1.697577  -0.377365
H    -1.378260  0.739990  -0.479446
H    0.197871  0.000874  -0.879241
N    -1.126975  0.023618  1.970817
C    -1.172111  -0.433013  3.358265
C    -2.664735  -0.915313  3.455032
O    -3.422613  -0.621034  2.522919
H    -2.125119  0.022721  1.621065
H    -0.500927  -1.298327  3.476538
C    -0.839377  0.699270  4.378969
C    0.178032  0.378243  5.495189
C    -0.206475  -0.807320  6.388036
C    1.621781  0.212340  4.977705
H    -1.773421  1.019501  4.860098
H    -0.492080  1.578591  3.816670
H    0.198134  1.275466  6.134251
H    0.494655  -0.920505  7.224421
H    -0.205882  -1.764664  5.842591
H    -1.199925  -0.649230  6.827776
H    2.339073  0.091000  5.799914
H    1.897447  1.138555  4.424384
H    1.675349  -0.708659  4.352979
N    -3.037581  -1.592230  4.543199
C    -4.416548  -2.053096  4.737664
H    -2.348824  -1.817018  5.251206
H    -4.482905  -2.545678  5.711219
H    -4.698663  -2.761784  3.950104
H    -5.108467  -1.203609  4.710289
Ca    2.918608  0.151711  2.522074
