32
Energy: -35247.5832633 eV PBE+vdW (tier 2 basis)
C    -1.095717  0.859804  -0.535539
C    -1.216297  0.240929  0.820215
O    -0.697970  -0.894736  1.032770
H    -1.573884  1.840936  -0.619489
H    -1.539513  0.178050  -1.274336
H    -0.031476  0.955038  -0.790839
N    -1.881707  0.929751  1.759948
C    -2.258928  0.674677  3.174807
C    -1.094460  0.277307  4.086430
O    -0.357150  -0.731797  3.855235
H    -2.240936  1.819349  1.423313
H    -2.548543  1.679388  3.504140
C    -3.571912  -0.143260  3.401495
C    -3.744639  -1.675867  3.264160
C    -3.562185  -2.250483  1.857423
C    -3.048637  -2.526665  4.333495
H    -4.309820  0.334809  2.739187
H    -3.890731  0.124612  4.421514
H    -4.820876  -1.792130  3.477493
H    -3.931574  -3.282185  1.808772
H    -2.511294  -2.262707  1.509972
H    -4.101504  -1.671277  1.096084
H    -3.425006  -3.556758  4.313855
H    -3.204812  -2.137188  5.348272
H    -1.946590  -2.584786  4.225073
N    -0.885355  0.988401  5.185601
C    -1.581848  2.188520  5.667597
H    -0.125950  0.635293  5.768883
H    -2.640867  1.984267  5.865966
H    -1.479787  3.018522  4.957747
H    -1.112881  2.489976  6.608197
Ca    -0.194969  -2.346055  2.476163
