32
Energy: -35247.9029017 eV PBE+vdW (tier 2 basis)
C    -0.633023  0.027412  0.005445
C    -0.496488  -0.005748  1.490572
O    0.531919  -0.526202  2.025592
H    -0.623015  -1.006189  -0.369509
H    0.241679  0.530432  -0.428107
H    -1.545190  0.524067  -0.340375
N    -1.485493  0.515179  2.234676
C    -1.626317  0.488146  3.709009
C    -0.628650  1.465676  4.357263
O    0.620993  1.240133  4.337844
H    -2.265492  0.913478  1.718365
H    -2.628824  0.894389  3.894655
C    -1.621662  -0.973582  4.247241
C    -1.301577  -1.230093  5.740650
C    -2.097538  -2.449229  6.230260
C    0.201342  -1.459001  6.004289
H    -0.963017  -1.596609  3.624200
H    -2.630434  -1.352189  4.034730
H    -1.616236  -0.358859  6.339458
H    -3.176810  -2.285659  6.119952
H    -1.898825  -2.651856  7.289664
H    -1.834812  -3.352925  5.661119
H    0.378392  -1.863115  7.009243
H    0.785695  -0.520274  5.980485
H    0.604009  -2.233089  5.315865
N    -1.129852  2.548839  4.929357
C    -0.354894  3.602504  5.586866
H    -2.139876  2.669793  4.908642
H    -0.528487  4.556680  5.074845
H    0.706517  3.350374  5.544168
H    -0.674909  3.694097  6.631653
Ca    1.793874  -0.454580  3.735883
