32
Energy: -35246.0810602 eV PBE+vdW (tier 2 basis)
C    -1.584274  1.440898  -0.275101
C    -1.280955  1.215789  1.164187
O    -0.411831  2.027552  1.748676
H    -0.680367  1.258737  -0.874255
H    -1.874971  2.488487  -0.431054
H    -2.382004  0.789970  -0.642660
N    -1.810962  0.279692  1.887609
C    -2.785687  -0.774318  1.569178
C    -3.294539  -1.110331  3.005605
O    -2.552695  -0.803351  3.956984
H    -1.619054  0.161800  2.926107
H    -3.595871  -0.365127  0.950599
C    -2.058696  -1.939893  0.846303
C    -2.900689  -3.109815  0.276922
C    -3.206354  -4.221705  1.288459
C    -4.145591  -2.645032  -0.487588
H    -1.288055  -2.334364  1.525675
H    -1.523098  -1.476654  0.002665
H    -2.226658  -3.559626  -0.470704
H    -3.632532  -5.090844  0.771737
H    -3.927240  -3.923091  2.059220
H    -2.295084  -4.559687  1.799482
H    -4.934816  -2.246361  0.171220
H    -4.598546  -3.485272  -1.027759
H    -3.912577  -1.870264  -1.232895
N    -4.494163  -1.677145  3.119057
C    -5.069445  -2.117875  4.388256
H    -5.001719  -1.894687  2.266722
H    -5.013054  -3.210898  4.477326
H    -6.117667  -1.805136  4.443290
H    -4.505524  -1.662244  5.206089
Ca    0.869823  3.233366  2.644688
