32
Energy: -35246.2052408 eV PBE+vdW (tier 2 basis)
C    -0.834069  0.559864  -0.434109
C    -0.830670  0.809178  1.032956
O    0.037666  1.689378  1.509890
H    -0.898114  1.515717  -0.970875
H    -1.660360  -0.083667  -0.747922
H    0.111776  0.081509  -0.727670
N    -1.620252  0.224420  1.878097
C    -2.681218  -0.773450  1.695378
C    -3.441292  -0.621460  3.050974
O    -2.856938  -0.012755  3.967560
H    -1.650916  0.455530  2.918938
H    -3.325801  -0.486057  0.853211
C    -2.079043  -2.184462  1.485738
C    -3.074309  -3.319082  1.170207
C    -3.946451  -3.021254  -0.055795
C    -2.287696  -4.623523  0.980426
H    -1.494091  -2.443112  2.381412
H    -1.362588  -2.117771  0.650269
H    -3.726385  -3.462677  2.047660
H    -4.599086  -3.873800  -0.280163
H    -3.329331  -2.843631  -0.949698
H    -4.605831  -2.147331  0.068136
H    -2.971334  -5.465576  0.817303
H    -1.673902  -4.859705  1.859733
H    -1.622726  -4.563657  0.106465
N    -4.658853  -1.154576  3.139708
C    -5.470258  -1.137118  4.356525
H    -5.037483  -1.627370  2.324809
H    -6.465075  -0.736407  4.131582
H    -4.977417  -0.501479  5.096181
H    -5.572584  -2.151803  4.760872
Ca    1.305581  3.009135  2.250372
