32
Energy: -35247.8821826 eV PBE+vdW (tier 2 basis)
C    -0.449829  -0.103965  0.001898
C    -0.279917  -0.144661  1.483649
O    0.820735  -0.545147  1.983932
H    0.355853  0.495867  -0.441829
H    -1.417713  0.295006  -0.317870
H    -0.337241  -1.125714  -0.389092
N    -1.302115  0.243557  2.255162
C    -1.462112  0.157594  3.727197
C    -0.521854  1.115357  4.478051
O    0.729726  0.883121  4.544203
H    -2.131889  0.546859  1.751553
H    -2.489656  0.502175  3.899850
C    -1.363423  -1.277478  4.276701
C    -1.704849  -1.412177  5.775332
C    -3.153370  -1.009360  6.081374
C    -1.427747  -2.850848  6.229257
H    -0.356077  -1.691232  4.094378
H    -2.045476  -1.903762  3.681310
H    -1.032024  -0.745475  6.346191
H    -3.373634  -1.158899  7.145228
H    -3.865813  -1.622117  5.510732
H    -3.370750  0.047737  5.866205
H    -1.619911  -2.963737  7.302888
H    -0.383791  -3.146706  6.048995
H    -2.074183  -3.565922  5.701150
N    -1.065176  2.152387  5.087993
C    -0.354322  3.139810  5.901798
H    -2.071612  2.273069  4.997606
H    -0.874504  3.254808  6.859459
H    -0.340098  4.106991  5.383814
H    0.668318  2.798782  6.075372
Ca    2.152455  -0.380921  3.599512
