32
Energy: -35247.7144546 eV PBE+vdW (tier 2 basis)
C    -0.085328  2.140077  0.550950
C    -0.627427  1.771418  1.888669
O    -0.843984  2.668419  2.769725
H    -0.795588  2.821869  0.060768
H    0.086867  1.276613  -0.099520
H    0.853561  2.695994  0.675558
N    -0.897631  0.488824  2.157520
C    -1.587815  0.014502  3.370086
C    -0.639338  0.096308  4.589209
O    -0.710982  1.155807  5.309342
H    -0.740094  -0.191325  1.416258
H    -2.360250  0.762451  3.600933
C    -2.310020  -1.312624  3.103579
C    -3.077384  -1.888147  4.312444
C    -4.124754  -0.910071  4.861701
C    -3.720498  -3.220845  3.909844
H    -1.610163  -2.065458  2.714201
H    -3.028514  -1.112883  2.291704
H    -2.352617  -2.097404  5.120107
H    -4.695140  -1.378297  5.672951
H    -4.845239  -0.618363  4.083391
H    -3.681756  0.005976  5.283412
H    -4.474988  -3.075382  3.123766
H    -4.222742  -3.683327  4.767892
H    -2.977607  -3.937641  3.534049
N    0.242045  -0.831805  4.911172
C    0.572909  -2.102391  4.256386
H    0.765152  -0.619540  5.762229
H    -0.142877  -2.885761  4.534145
H    1.568486  -2.400920  4.597342
H    0.604064  -1.988748  3.169227
Ca    -0.971206  3.208142  4.812777
