32
Energy: -35247.7500782 eV PBE+vdW (tier 2 basis)
C    -0.990630  -1.054164  0.587978
C    -0.806874  -0.015647  1.643351
O    0.362124  0.414519  1.911235
H    -0.460388  -1.964825  0.903760
H    -0.518540  -0.719139  -0.344745
H    -2.039186  -1.303352  0.396281
N    -1.888927  0.430839  2.290226
C    -1.985721  1.295983  3.488995
C    -1.581595  2.743377  3.186557
O    -0.358835  3.039958  2.961847
H    -2.764931  0.005371  1.999833
H    -3.053775  1.289436  3.735853
C    -1.221040  0.773947  4.730780
C    -1.942402  -0.324938  5.540435
C    -2.252465  -1.591039  4.732687
C    -1.102527  -0.655327  6.780784
H    -1.046362  1.632915  5.397431
H    -0.227597  0.398627  4.430303
H    -2.898396  0.106731  5.886071
H    -2.999785  -1.430127  3.942562
H    -2.667789  -2.363676  5.391035
H    -1.345028  -2.011895  4.273289
H    -0.142935  -1.116313  6.502327
H    -1.631102  -1.369780  7.423202
H    -0.891757  0.237235  7.385215
N    -2.486213  3.705627  3.218387
C    -3.933144  3.609599  3.460201
H    -2.109001  4.643026  3.071110
H    -4.367410  4.595591  3.273820
H    -4.142335  3.331922  4.500517
H    -4.402708  2.897160  2.772962
Ca    1.482272  2.074356  2.549713
