32
Energy: -35247.7985979 eV PBE+vdW (tier 2 basis)
C    0.000127  -1.123933  0.604636
C    -0.370393  -0.465077  1.891037
O    0.124053  -0.879936  2.985283
H    -0.465361  -0.665495  -0.273706
H    -0.295351  -2.181765  0.656357
H    1.092033  -1.105020  0.488697
N    -1.239745  0.558079  1.855516
C    -1.855409  1.277803  2.993279
C    -0.824574  2.202535  3.658812
O    0.189776  1.723603  4.259742
H    -1.578794  0.815172  0.932318
H    -2.608329  1.922213  2.528386
C    -2.613647  0.301831  3.943652
C    -2.899561  0.737763  5.401930
C    -4.221631  0.111101  5.869768
C    -1.772102  0.348220  6.380642
H    -2.106113  -0.673667  3.953049
H    -3.570614  0.107573  3.441598
H    -3.012972  1.834516  5.443759
H    -5.056137  0.428383  5.232020
H    -4.458085  0.407724  6.898846
H    -4.175293  -0.987306  5.839871
H    -2.090292  0.452973  7.425761
H    -0.888235  1.007572  6.295663
H    -1.516441  -0.727422  6.269702
N    -0.993926  3.514723  3.609652
C    -2.072454  4.290686  2.981392
H    -0.255948  4.047820  4.071725
H    -3.051232  4.015721  3.391500
H    -2.067678  4.168941  1.891432
H    -1.896089  5.346286  3.205222
Ca    0.734418  -0.241619  4.919457
