32
Energy: -35247.1234893 eV PBE+vdW (tier 2 basis)
C    0.258173  -0.925974  1.433070
C    -0.369005  -0.610985  2.746720
O    0.281176  -0.768387  3.833988
H    0.996302  -0.155104  1.162774
H    -0.468052  -1.030466  0.621786
H    0.819059  -1.863981  1.544541
N    -1.632296  -0.138336  2.818586
C    -2.144411  0.933372  1.970195
C    -1.267468  2.192595  2.221636
O    -0.400829  2.196308  3.168214
H    -2.040346  -0.150176  3.755321
H    -1.997480  0.656756  0.915088
C    -3.666542  1.126413  2.205023
C    -4.188369  1.095097  3.656704
C    -3.563529  2.154010  4.575238
C    -5.717247  1.245325  3.624766
H    -4.169218  0.332809  1.635104
H    -3.974121  2.072968  1.740187
H    -3.988642  0.093274  4.082609
H    -4.047835  2.143583  5.559237
H    -3.680561  3.167450  4.164385
H    -2.483933  1.998325  4.751477
H    -6.137923  1.141095  4.632083
H    -6.185121  0.482911  2.988988
H    -6.009547  2.233105  3.241062
N    -1.374087  3.251397  1.441934
C    -2.219676  3.463755  0.262720
H    -0.767750  4.030510  1.702586
H    -1.641092  4.030953  -0.474092
H    -3.113922  4.041129  0.529645
H    -2.518805  2.513035  -0.186457
Ca    0.640860  1.160073  4.727976
