32
Energy: -35247.8754125 eV PBE+vdW (tier 2 basis)
C    -1.074427  -3.790913  0.912088
C    -0.804577  -2.587328  1.749119
O    0.295788  -1.950602  1.627142
H    -2.022369  -4.282211  1.153696
H    -0.252029  -4.510334  1.016523
H    -1.092654  -3.480268  -0.143281
N    -1.736580  -2.177178  2.611853
C    -1.743104  -0.905803  3.361362
C    -0.790977  -1.009857  4.573969
O    0.468309  -0.909163  4.378645
H    -2.601917  -2.712864  2.640142
H    -1.289825  -0.142660  2.708526
C    -3.180593  -0.477993  3.691096
C    -4.051836  0.012627  2.503645
C    -3.410536  1.190097  1.760876
C    -4.495447  -1.093623  1.535957
H    -3.110653  0.353867  4.408370
H    -3.707418  -1.302384  4.205126
H    -4.962931  0.390971  2.993341
H    -4.122832  1.622109  1.047415
H    -2.532403  0.883184  1.169932
H    -3.106761  1.995724  2.443976
H    -5.286223  -0.717726  0.875182
H    -4.915328  -1.964980  2.061414
H    -3.681214  -1.430583  0.877255
N    -1.293848  -1.196071  5.776214
C    -0.536285  -1.309511  7.023630
H    -2.309180  -1.243068  5.846036
H    0.519964  -1.116267  6.826964
H    -0.659709  -2.317444  7.438793
H    -0.918837  -0.577453  7.744290
Ca    1.818430  -1.011297  2.737702
