32
Energy: -35246.1186845 eV PBE+vdW (tier 2 basis)
C    -0.364080  -1.546440  0.540394
C    0.082894  -1.609871  1.958062
O    0.871617  -2.613097  2.314501
H    -0.826141  -0.587738  0.289218
H    -1.098541  -2.343833  0.352110
H    0.489555  -1.721904  -0.126441
N    -0.248605  -0.756951  2.874466
C    -1.101609  0.437668  2.842356
C    -0.734804  1.082767  4.216288
O    -0.071265  0.388209  5.011167
H    0.120505  -0.792145  3.874501
H    -0.775493  1.091870  2.020249
C    -2.611610  0.128345  2.691262
C    -3.343612  -0.495751  3.893153
C    -4.851113  -0.503198  3.602872
C    -2.854150  -1.906763  4.248909
H    -2.745595  -0.511891  1.804455
H    -3.098775  1.078592  2.433037
H    -3.175579  0.151429  4.771017
H    -5.410560  -0.887571  4.464425
H    -5.089362  -1.143544  2.740865
H    -5.228699  0.504647  3.385275
H    -3.494126  -2.346739  5.023911
H    -1.829912  -1.911109  4.647817
H    -2.899025  -2.573759  3.373026
N    -1.137242  2.323839  4.495958
C    -1.899382  3.256166  3.669032
H    -0.882680  2.633838  5.432211
H    -1.610348  4.276182  3.941332
H    -2.980622  3.146003  3.826916
H    -1.669943  3.120825  2.606577
Ca    2.038046  -4.092779  2.902586
