32
Energy: -35247.208286 eV PBE+vdW (tier 2 basis)
C    -0.252969  2.058548  -0.169581
C    -0.291702  1.127844  0.993188
O    0.694860  1.061111  1.802971
H    -1.021086  1.849412  -0.919483
H    0.739424  1.965399  -0.633080
H    -0.340412  3.104294  0.161587
N    -1.362128  0.336243  1.216759
C    -2.735969  0.829209  1.178033
C    -2.933129  1.719323  2.447083
O    -1.933549  2.026111  3.187448
H    -1.203720  -0.407037  1.899557
H    -2.827494  1.517846  0.323747
C    -3.751010  -0.315893  0.981044
C    -3.623455  -1.544378  1.902950
C    -3.743376  -1.215874  3.396820
C    -4.670865  -2.587544  1.487800
H    -3.651283  -0.639976  -0.064519
H    -4.771965  0.093581  1.054761
H    -2.634369  -2.005891  1.723345
H    -3.671557  -2.131358  3.996826
H    -4.712768  -0.751673  3.630005
H    -2.953999  -0.538491  3.765902
H    -4.557252  -3.506167  2.075766
H    -4.576202  -2.857346  0.428204
H    -5.690937  -2.211511  1.651762
N    -4.135935  2.189197  2.695869
C    -4.494161  3.062869  3.816755
H    -4.890286  1.882675  2.085273
H    -5.417078  3.591547  3.562717
H    -3.696579  3.790373  3.992488
H    -4.658264  2.468507  4.725143
Ca    0.134461  1.836058  3.726069
