32
Energy: -35246.9170964 eV PBE+vdW (tier 2 basis)
C    0.163298  0.442581  0.050483
C    0.027787  0.299986  1.524181
O    1.057159  0.220879  2.272466
H    0.873917  1.236527  -0.211064
H    -0.790362  0.585779  -0.464787
H    0.607249  -0.498036  -0.317421
N    -1.195467  0.246791  2.102507
C    -2.258843  1.242798  1.854356
C    -1.579315  2.622212  1.947642
O    -0.620063  2.775289  2.794665
H    -1.179659  -0.084249  3.069387
H    -2.704440  1.086476  0.864754
C    -3.328036  0.993725  2.957450
C    -4.709961  1.672455  2.887025
C    -4.706367  3.159746  3.258388
C    -5.459056  1.378908  1.582172
H    -2.862207  1.224180  3.931343
H    -3.488123  -0.095758  2.927444
H    -5.266736  1.159038  3.688903
H    -5.734757  3.516785  3.392344
H    -4.256647  3.796916  2.485895
H    -4.175355  3.344080  4.202810
H    -6.500742  1.713238  1.659741
H    -5.479797  0.304487  1.354018
H    -5.029542  1.901771  0.715706
N    -1.910408  3.634084  1.168870
C    -2.883800  3.714157  0.078102
H    -1.415114  4.502028  1.381563
H    -2.436644  4.291866  -0.738235
H    -3.796206  4.221166  0.416403
H    -3.144398  2.719532  -0.289960
Ca    1.162203  1.917651  3.612859
