32
Energy: -35247.1797841 eV PBE+vdW (tier 2 basis)
C    0.678091  -0.014383  1.854704
C    0.297892  1.323619  2.389037
O    1.186587  2.221474  2.588534
H    0.912361  0.045823  0.780707
H    -0.092563  -0.774855  2.011517
H    1.605225  -0.323641  2.356209
N    -0.988278  1.619433  2.662444
C    -2.092047  1.305330  1.759459
C    -1.896105  2.188556  0.490150
O    -0.924089  3.019716  0.417566
H    -1.124708  2.463579  3.221665
H    -2.005563  0.253593  1.445244
C    -3.460031  1.520495  2.435981
C    -3.839363  0.500909  3.537168
C    -3.811072  -0.942545  3.024095
C    -3.045928  0.660482  4.840545
H    -4.231795  1.475119  1.653200
H    -3.501661  2.548917  2.833747
H    -4.888484  0.748225  3.766829
H    -4.247377  -1.620293  3.767913
H    -2.785150  -1.304458  2.847033
H    -4.388250  -1.068017  2.096661
H    -3.502904  0.054918  5.632906
H    -3.042605  1.700882  5.196814
H    -2.005758  0.318762  4.744881
N    -2.743302  2.051890  -0.508150
C    -2.694227  2.809872  -1.764049
H    -3.497264  1.377345  -0.397574
H    -1.747925  2.623108  -2.284967
H    -2.799102  3.882700  -1.564689
H    -3.522163  2.479856  -2.396305
Ca    0.906504  3.835631  1.198885
