32
Energy: -35246.9424884 eV PBE+vdW (tier 2 basis)
C    -0.684493  1.399889  1.500376
C    -1.830722  1.648747  2.420420
O    -1.841549  2.720088  3.123199
H    -1.004018  0.937726  0.562251
H    0.055813  0.733096  1.970427
H    -0.191294  2.356966  1.299404
N    -2.884447  0.808586  2.546136
C    -2.822275  -0.642307  2.793535
C    -2.243666  -0.819787  4.223272
O    -1.640579  0.156889  4.802925
H    -3.655372  1.256027  3.045159
H    -3.873584  -0.968720  2.833475
C    -2.121947  -1.525160  1.732774
C    -2.958909  -1.825774  0.463307
C    -4.233329  -2.616247  0.780789
C    -3.262691  -0.598462  -0.402665
H    -1.887517  -2.483687  2.215474
H    -1.148148  -1.099789  1.465481
H    -2.305256  -2.488870  -0.126861
H    -4.733879  -2.916937  -0.147726
H    -4.974455  -2.024052  1.342412
H    -4.021226  -3.537462  1.341324
H    -3.774377  -0.907034  -1.322683
H    -2.349860  -0.073765  -0.716989
H    -3.923815  0.121153  0.100966
N    -2.386664  -1.959403  4.873388
C    -3.098947  -3.179757  4.479834
H    -1.938188  -1.981723  5.790200
H    -3.589104  -3.588421  5.369837
H    -2.395963  -3.926642  4.089461
H    -3.861515  -2.965318  3.727251
Ca    -1.338744  2.250802  5.148004
