32
Energy: -35246.059959 eV PBE+vdW (tier 2 basis)
C    -1.861329  2.986523  1.276457
C    -1.618185  1.985770  2.350582
O    -0.661665  2.240484  3.231524
H    -2.101676  3.959082  1.728309
H    -2.673753  2.694667  0.605503
H    -0.945418  3.119346  0.683500
N    -2.282651  0.881218  2.485535
C    -3.371246  0.297618  1.687973
C    -3.923901  -0.747873  2.706622
O    -3.132649  -1.117113  3.597361
H    -2.115918  0.177510  3.265135
H    -4.105750  1.071370  1.432916
C    -2.783973  -0.383620  0.422024
C    -3.781675  -0.773153  -0.683474
C    -4.459166  0.450695  -1.309942
C    -3.041117  -1.593666  -1.749002
H    -2.219839  -1.269496  0.750570
H    -2.046473  0.309983  -0.015093
H    -4.552139  -1.428448  -0.248617
H    -5.172997  0.145672  -2.084999
H    -3.717549  1.104767  -1.793215
H    -5.023480  1.061321  -0.588500
H    -2.238622  -1.006118  -2.218661
H    -3.729862  -1.903318  -2.544659
H    -2.593827  -2.501606  -1.323641
N    -5.164493  -1.229309  2.600661
C    -6.271486  -0.814952  1.744138
H    -5.371274  -1.947119  3.294527
H    -6.534029  -1.607331  1.032335
H    -6.017118  0.087882  1.183957
H    -7.147289  -0.596994  2.367115
Ca    0.752421  2.591410  4.564362
