32
Energy: -35247.1139382 eV PBE+vdW (tier 2 basis)
C    0.627475  1.256685  0.472379
C    0.355569  0.694302  1.824453
O    1.312050  0.414364  2.621373
H    0.854086  2.332363  0.543435
H    -0.202454  1.112933  -0.226180
H    1.531016  0.774674  0.077304
N    -0.910252  0.491744  2.252596
C    -1.986985  1.468857  2.080056
C    -1.530947  2.789462  2.750601
O    -0.529156  2.782852  3.552743
H    -0.988502  -0.067877  3.103288
H    -2.112436  1.667926  1.005228
C    -3.327371  0.891568  2.606944
C    -3.566140  0.719087  4.127831
C    -2.516806  -0.123849  4.869406
C    -3.840732  2.033027  4.870643
H    -3.430581  -0.082618  2.105505
H    -4.138766  1.512665  2.205380
H    -4.499753  0.134721  4.167076
H    -2.867671  -0.377863  5.877396
H    -1.573170  0.440267  5.023656
H    -2.293511  -1.077348  4.366282
H    -4.216309  1.828311  5.881131
H    -4.605290  2.634958  4.362077
H    -2.939037  2.651312  4.992179
N    -2.143065  3.925974  2.481851
C    -3.293708  4.173116  1.609008
H    -1.788698  4.732382  2.998277
H    -3.177444  5.164657  1.159975
H    -4.225192  4.152391  2.188882
H    -3.345811  3.432519  0.805860
Ca    1.157484  1.711321  4.341898
