32
Energy: -35247.8297575 eV PBE+vdW (tier 2 basis)
C    -1.715602  -1.876989  0.539411
C    -1.231544  -0.785738  1.433230
O    -0.022817  -0.782575  1.846695
H    -2.780047  -1.796604  0.296868
H    -1.518953  -2.852228  1.003365
H    -1.133348  -1.845502  -0.393291
N    -2.075296  0.187782  1.779627
C    -1.733019  1.437374  2.488730
C    -1.568807  1.173729  4.000847
O    -0.498486  0.600427  4.405358
H    -3.031916  0.124553  1.433780
H    -0.715684  1.704123  2.159218
C    -2.641928  2.601283  2.033974
C    -4.167144  2.644986  2.312899
C    -4.746834  3.849385  1.554629
C    -4.936166  1.362432  1.964718
H    -2.501457  2.663275  0.942676
H    -2.189335  3.522040  2.431323
H    -4.348751  2.865611  3.384116
H    -4.224748  4.781024  1.807982
H    -5.807746  3.984507  1.796684
H    -4.667896  3.701546  0.468155
H    -4.675778  0.503668  2.604124
H    -4.799378  1.087281  0.905278
H    -6.014091  1.517765  2.096546
N    -2.509370  1.553621  4.837058
C    -2.487252  1.396504  6.291451
H    -3.321285  2.017290  4.424897
H    -1.503866  1.042509  6.606941
H    -3.256699  0.676349  6.596981
H    -2.700009  2.364517  6.759278
Ca    1.136251  -0.476943  3.577452
