32
Energy: -35247.9210384 eV PBE+vdW (tier 2 basis)
C    1.051544  -1.104417  1.011896
C    0.095260  -0.067979  1.495624
O    0.426703  1.164889  1.493760
H    1.274840  -0.902619  -0.046128
H    0.668831  -2.125723  1.106206
H    2.000065  -1.018433  1.557931
N    -1.113330  -0.446495  1.918775
C    -2.251851  0.436417  2.237270
C    -2.070626  1.066030  3.635161
O    -1.235285  2.023941  3.775462
H    -1.320072  -1.442841  1.881910
H    -2.204769  1.285077  1.536438
C    -3.570559  -0.311663  2.008063
C    -3.818268  -0.773338  0.552320
C    -5.158996  -1.515311  0.486547
C    -3.772626  0.390263  -0.444398
H    -4.392558  0.360164  2.301977
H    -3.624051  -1.195969  2.669205
H    -3.028825  -1.494923  0.274329
H    -5.330570  -1.911694  -0.521256
H    -5.996100  -0.843383  0.724208
H    -5.194622  -2.362275  1.185120
H    -2.781079  0.863762  -0.514699
H    -4.508243  1.166700  -0.187063
H    -4.016392  0.035025  -1.452926
N    -2.787189  0.616639  4.643519
C    -2.752154  1.113133  6.019966
H    -3.445305  -0.133724  4.438462
H    -2.389406  0.321207  6.686789
H    -3.765348  1.399985  6.324885
H    -2.089839  1.978927  6.078174
Ca    0.349818  2.911631  2.669474
