32
Energy: -35247.8431854 eV PBE+vdW (tier 2 basis)
C    -1.007223  -1.400846  1.036454
C    -1.289540  -0.147385  1.793731
O    -0.589587  0.147183  2.817394
H    0.066057  -1.472989  0.821408
H    -1.574937  -1.485358  0.104182
H    -1.262725  -2.254335  1.683089
N    -2.293333  0.632632  1.380843
C    -2.923281  1.794432  2.050022
C    -2.008343  3.027296  2.066047
O    -0.962469  3.057828  2.795482
H    -2.784783  0.298669  0.556016
H    -3.783680  2.032885  1.410730
C    -3.475779  1.510561  3.465198
C    -4.729560  0.604508  3.543777
C    -5.908039  1.167858  2.741121
C    -4.463805  -0.868994  3.207529
H    -3.729462  2.489664  3.901488
H    -2.686836  1.076573  4.101810
H    -5.011518  0.645894  4.608457
H    -5.754781  1.086910  1.653059
H    -6.113204  2.219412  2.985732
H    -6.820811  0.600843  2.961027
H    -4.335222  -1.038339  2.128692
H    -5.318806  -1.483139  3.515310
H    -3.579757  -1.262848  3.730168
N    -2.377710  4.071749  1.346954
C    -1.689779  5.362873  1.289424
H    -3.220539  3.978025  0.784112
H    -0.902535  5.388853  2.045456
H    -2.413499  6.163652  1.479596
H    -1.252185  5.504636  0.293353
Ca    0.221671  1.722296  3.944338
