32
Energy: -35247.8445914 eV PBE+vdW (tier 2 basis)
C    -1.628700  0.468394  0.641764
C    -0.942808  0.111817  1.917479
O    0.282187  -0.241129  1.901245
H    -1.036930  1.217092  0.099844
H    -2.648352  0.840892  0.782629
H    -1.663867  -0.430228  0.007741
N    -1.644608  0.162960  3.053590
C    -1.286848  -0.317211  4.408623
C    -0.197076  0.540883  5.065489
O    1.005628  0.510240  4.641575
H    -2.613326  0.451450  2.945894
H    -2.207942  -0.178980  4.990500
C    -0.919447  -1.818218  4.484604
C    -2.107991  -2.807373  4.404320
C    -3.085940  -2.634650  5.572414
C    -2.831136  -2.807501  3.051569
H    -0.405740  -1.974831  5.446134
H    -0.195889  -2.067241  3.690999
H    -1.634235  -3.795828  4.519712
H    -3.823212  -3.446743  5.571814
H    -3.664927  -1.699645  5.505331
H    -2.577098  -2.657934  6.545898
H    -3.460609  -1.915900  2.912262
H    -3.504872  -3.670423  2.986320
H    -2.133459  -2.877229  2.204390
N    -0.538217  1.258511  6.120467
C    0.364416  2.074948  6.934135
H    -1.515895  1.239172  6.402827
H    1.395762  1.893733  6.625133
H    0.240003  1.804469  7.988953
H    0.119773  3.136665  6.805385
Ca    2.089355  -0.220161  2.968958
