32
Energy: -35247.0625101 eV PBE+vdW (tier 2 basis)
C    -1.249369  0.639727  3.262238
C    -2.222332  0.211699  4.306982
O    -1.941969  0.361941  5.544895
H    -1.642703  1.534747  2.755643
H    -1.101184  -0.118374  2.483159
H    -0.292169  0.896810  3.723359
N    -3.419102  -0.334969  3.988710
C    -3.603460  -1.405918  2.996655
C    -2.702485  -2.596405  3.440136
O    -2.078133  -2.560175  4.560853
H    -4.052031  -0.387787  4.787001
H    -4.639211  -1.748163  3.153993
C    -3.486167  -0.973768  1.506898
C    -4.690181  -1.356201  0.617374
C    -4.518088  -0.709584  -0.762177
C    -4.909613  -2.868432  0.487559
H    -2.554512  -1.359687  1.063429
H    -3.403918  0.120103  1.494766
H    -5.589546  -0.922318  1.088475
H    -3.633718  -1.104740  -1.283217
H    -4.409320  0.380422  -0.689222
H    -5.390243  -0.912292  -1.395367
H    -5.757758  -3.079421  -0.175599
H    -5.158528  -3.361720  1.442256
H    -4.038639  -3.365525  0.023270
N    -2.623687  -3.647046  2.655803
C    -1.871416  -4.868720  2.957475
H    -3.166782  -3.624358  1.789352
H    -2.287638  -5.367950  3.840912
H    -0.816208  -4.631502  3.134158
H    -1.948841  -5.538922  2.097734
Ca    -1.493431  -1.569113  6.370588
