32
Energy: -35247.0174103 eV PBE+vdW (tier 2 basis)
C    0.110617  0.059323  1.535577
C    -0.935176  0.614314  2.439469
O    -0.635226  1.520365  3.291327
H    -0.226168  0.091902  0.491825
H    0.322544  -0.995208  1.770640
H    1.032845  0.635936  1.648737
N    -2.215980  0.183362  2.399913
C    -2.626947  -1.231060  2.365589
C    -1.967462  -1.917529  3.604410
O    -1.395371  -1.212567  4.508865
H    -2.850055  0.785775  2.924243
H    -3.705319  -1.204072  2.594242
C    -2.492213  -1.990379  1.031468
C    -3.350085  -1.443498  -0.135360
C    -2.761003  -0.195924  -0.804944
C    -3.552310  -2.561221  -1.167962
H    -2.845344  -3.017359  1.219600
H    -1.439797  -2.089407  0.730028
H    -4.340566  -1.181853  0.278237
H    -3.411643  0.131207  -1.625313
H    -1.778833  -0.414078  -1.251397
H    -2.660914  0.658616  -0.123611
H    -4.174929  -2.208621  -1.998948
H    -4.050044  -3.437988  -0.731758
H    -2.593228  -2.889843  -1.594271
N    -2.051570  -3.224515  3.728490
C    -1.558842  -3.993643  4.876801
H    -2.498810  -3.738456  2.972731
H    -0.470389  -3.894356  4.963466
H    -1.810955  -5.045100  4.718604
H    -2.034566  -3.643898  5.800310
Ca    -0.633825  0.654746  5.253133
