32
Energy: -35246.4070654 eV PBE+vdW (tier 2 basis)
C    0.297894  -0.272760  0.230509
C    0.047757  -0.620352  1.656690
O    0.898042  -1.374980  2.288569
H    -0.461180  0.403868  -0.173535
H    0.302014  -1.199447  -0.362195
H    1.290875  0.183049  0.119548
N    -1.017758  -0.167218  2.269023
C    -1.574615  -0.536764  3.570033
C    -3.088777  -0.163378  3.363395
O    -3.356687  0.588665  2.420943
H    -1.749471  0.402204  1.772701
H    -1.457143  -1.621561  3.717998
C    -1.013749  0.240153  4.783539
C    0.345778  -0.211132  5.380844
C    1.542460  0.584394  4.811056
C    0.348303  -0.109719  6.913042
H    -1.758581  0.151290  5.584416
H    -0.976580  1.310607  4.533720
H    0.418729  -1.312685  5.153422
H    1.467962  1.633722  5.128710
H    1.584509  0.645951  3.706621
H    2.522453  0.276055  5.238867
H    1.312055  -0.406685  7.348805
H    -0.430470  -0.744366  7.352549
H    0.153681  0.926225  7.222735
N    -4.007906  -0.649355  4.210035
C    -3.849249  -1.577324  5.323085
H    -4.950115  -0.312155  4.016989
H    -4.734989  -2.219364  5.376908
H    -3.748082  -1.051874  6.283711
H    -2.982792  -2.231077  5.172612
Ca    2.228213  -1.722172  3.772880
