34
Energy: -611972.427395 eV PBE+vdW (tier 2 basis)
C    -0.222488  -1.631747  0.183831
C    -0.216145  -1.139116  1.592995
O    0.768416  -1.441096  2.339444
H    -1.111231  -1.330955  -0.380223
H    -0.151549  -2.728281  0.192709
H    0.676276  -1.261734  -0.328422
N    -1.257627  -0.408535  2.012301
C    -1.547529  0.115399  3.362202
C    -0.564839  1.221252  3.759324
O    0.580231  0.944103  4.263144
H    -1.995224  -0.272536  1.326766
H    -2.538573  0.573667  3.267556
C    -1.700325  -0.961403  4.469199
C    -2.825036  -1.924310  4.243423
C    -4.017364  -1.774498  4.978799
C    -2.730417  -2.993123  3.333228
C    -5.091315  -2.625169  4.784494
C    -3.792693  -3.864305  3.137143
C    -4.989259  -3.680319  3.857397
O    -6.062973  -4.476040  3.729279
H    -1.853425  -0.421090  5.414989
H    -0.746461  -1.535397  4.605653
H    -4.105040  -0.975293  5.716516
H    -1.800019  -3.183509  2.795824
H    -6.016711  -2.506004  5.345659
H    -3.695567  -4.701023  2.444322
H    -5.903516  -5.193728  3.091124
N    -0.910757  2.491784  3.644184
C    -2.155547  3.062788  3.113626
H    -0.208799  3.151576  3.984068
H    -2.006249  4.140162  3.000746
H    -2.991962  2.901821  3.805475
H    -2.391527  2.649851  2.126509
Pb    1.701242  -1.003193  4.350715
