34
Energy: -611972.192466 eV PBE+vdW (tier 2 basis)
C    -0.476896  2.105449  0.305368
C    -0.427640  0.743431  0.911122
O    0.321836  -0.150285  0.383921
H    0.533771  2.535142  0.290249
H    -1.151579  2.786381  0.834608
H    -0.800122  2.017394  -0.741487
N    -1.180250  0.470588  1.976157
C    -1.262776  -0.832469  2.641990
C    -2.621519  -1.016223  3.409289
O    -2.618975  -1.640164  4.461508
H    -1.725397  1.234375  2.374002
H    -1.274145  -1.592641  1.842567
C    -0.089274  -1.089310  3.616341
C    0.968009  -2.055802  3.163127
C    2.348849  -1.727056  3.200560
C    0.645466  -3.389196  2.776321
C    3.352458  -2.676467  2.920982
C    1.635264  -4.342670  2.499393
C    3.007073  -4.014257  2.616922
O    3.880751  -4.997069  2.408176
H    -0.566894  -1.509183  4.523018
H    0.367296  -0.134789  3.904667
H    2.652124  -0.721464  3.497532
H    -0.399557  -3.704162  2.750354
H    4.400785  -2.380962  2.992562
H    1.361709  -5.366181  2.241529
H    4.803553  -4.730181  2.576977
N    -3.715038  -0.479503  2.826648
C    -5.052610  -0.633788  3.406212
H    -3.655562  -0.129283  1.876218
H    -5.675296  0.211199  3.097019
H    -4.965386  -0.645961  4.496415
H    -5.519918  -1.571842  3.079077
Pb    1.631889  -1.990053  0.563657
