34
Energy: -611972.054193 eV PBE+vdW (tier 2 basis)
C    1.119329  -3.396134  3.292013
C    0.713517  -2.006032  3.648202
O    1.595875  -1.188623  4.090726
H    0.287322  -4.003667  2.921079
H    1.551268  -3.878653  4.180135
H    1.911020  -3.362584  2.531606
N    -0.559064  -1.641766  3.524174
C    -1.104945  -0.330155  3.892642
C    -2.653641  -0.449120  4.130599
O    -3.410866  0.256693  3.477831
H    -1.209595  -2.335752  3.159432
H    -0.637422  -0.049521  4.850892
C    -0.841547  0.744171  2.813619
C    0.205948  1.777481  3.114631
C    1.202029  2.117969  2.160088
C    0.196197  2.545239  4.314945
C    2.096216  3.188619  2.357344
C    1.082595  3.611752  4.523265
C    2.014024  3.983083  3.524103
O    2.766425  5.053319  3.771814
H    -1.816884  1.250688  2.672118
H    -0.621794  0.255173  1.856874
H    1.250888  1.565957  1.219694
H    -0.555373  2.344487  5.080410
H    2.821832  3.427598  1.577734
H    1.030302  4.204765  5.436766
H    3.334308  5.303161  3.019206
N    -3.074656  -1.341850  5.057370
C    -2.307681  -2.131696  6.015714
H    -4.089730  -1.384136  5.130798
H    -2.901449  -2.245593  6.928737
H    -1.375679  -1.626373  6.296343
H    -2.072881  -3.137033  5.637633
Pb    2.447114  0.894536  4.286465
