34
Energy: -611972.166871 eV PBE+vdW (tier 2 basis)
C    0.049902  0.013486  0.128916
C    -0.004774  -0.195289  1.612368
O    0.964515  -0.465776  2.321743
H    0.773091  -0.683202  -0.308208
H    0.420292  1.029980  -0.068768
H    -0.923511  -0.100902  -0.361713
N    -1.237490  -0.078209  2.237128
C    -1.207883  -0.079308  3.675456
C    -0.485147  -1.299188  4.260552
O    0.189584  -1.125428  5.351430
H    -2.057635  0.249174  1.736347
H    -0.575210  0.765888  4.014105
C    -2.615602  0.088841  4.305170
C    -2.587297  0.472284  5.771441
C    -2.415208  1.827313  6.173070
C    -2.793212  -0.473524  6.801689
C    -2.514669  2.223912  7.511358
C    -2.867781  -0.092506  8.156303
C    -2.791174  1.273624  8.520235
O    -2.935741  1.735381  9.761209
H    -3.207147  -0.826690  4.171001
H    -3.134099  0.886539  3.753586
H    -2.253334  2.595639  5.414596
H    -2.927963  -1.526846  6.550742
H    -2.423903  3.274305  7.788295
H    -3.052972  -0.854422  8.915472
H    -3.198006  1.044292  10.397347
N    -0.628924  -2.542081  3.835980
C    -1.284369  -3.070067  2.636552
H    -0.067549  -3.211530  4.363713
H    -0.610179  -3.008468  1.772323
H    -2.208729  -2.531604  2.418745
H    -1.522399  -4.121387  2.824756
Pb    -0.112481  0.327766  7.002059
