34
Energy: -611973.266159 eV PBE+vdW (tier 2 basis)
C    0.497914  2.920572  3.029583
C    0.128263  1.539573  3.470020
O    0.894112  0.575178  3.192628
H    0.649998  2.922613  1.942233
H    1.463537  3.185564  3.482653
H    -0.243026  3.681764  3.295120
N    -1.017654  1.390326  4.162189
C    -1.587005  0.179192  4.787660
C    -0.554141  -0.564477  5.653609
O    0.138756  -1.528123  5.199775
H    -1.550973  2.242653  4.310590
H    -2.332454  0.579823  5.486477
C    -2.415188  -0.743375  3.852199
C    -1.783785  -1.543229  2.726280
C    -1.418003  -0.951580  1.487231
C    -1.733617  -2.959904  2.795348
C    -1.011377  -1.720703  0.396781
C    -1.347448  -3.742629  1.704200
C    -1.000719  -3.130953  0.481579
O    -0.652084  -3.795402  -0.623234
H    -3.198473  -0.104316  3.417315
H    -2.943564  -1.443208  4.514950
H    -1.484684  0.129576  1.363514
H    -2.028779  -3.459655  3.718992
H    -0.749102  -1.251048  -0.550679
H    -1.345861  -4.829718  1.796232
H    -0.725865  -4.761192  -0.515303
N    -0.424346  -0.218826  6.927534
C    -1.140113  0.819498  7.677300
H    0.261491  -0.773264  7.441649
H    -0.703239  0.870404  8.678357
H    -2.204623  0.573790  7.784491
H    -1.021235  1.802538  7.206732
Pb    0.887283  -1.737464  3.020995
