34
Energy: -611971.998997 eV PBE+vdW (tier 2 basis)
C    -0.906835  -1.041616  -0.845468
C    -1.020827  0.042896  0.165793
O    -0.200775  1.054026  0.085374
H    -1.107056  -0.599848  -1.834137
H    -1.611649  -1.861162  -0.681016
H    0.119372  -1.428816  -0.882945
N    -1.936891  0.061253  1.105768
C    -2.709554  -1.012426  1.724272
C    -3.658991  -0.224159  2.672632
O    -3.296809  0.907030  3.034169
H    -2.058321  0.904581  1.711384
H    -3.275045  -1.589006  0.981428
C    -1.753411  -1.963394  2.537529
C    -0.595380  -1.209359  3.150465
C    -0.748178  -0.422570  4.312801
C    0.644300  -1.185374  2.515238
C    0.271173  0.389192  4.806418
C    1.692942  -0.343769  2.964280
C    1.510730  0.429443  4.149571
O    2.566984  1.165680  4.546174
H    -1.369916  -2.735410  1.857757
H    -2.347209  -2.480617  3.302716
H    -1.694483  -0.437276  4.852464
H    0.833561  -1.830513  1.656293
H    0.115734  0.960219  5.723047
H    2.715096  -0.494052  2.600224
H    2.413724  1.589295  5.411465
N    -4.772212  -0.848653  3.065374
C    -5.751539  -0.267011  3.984986
H    -4.989421  -1.754449  2.659579
H    -5.878138  -0.915261  4.860069
H    -6.717498  -0.152657  3.479029
H    -5.391259  0.714919  4.301718
Pb    1.291765  1.844519  1.490618
