34
Energy: -611973.364532 eV PBE+vdW (tier 2 basis)
C    0.844615  -0.126661  0.305153
C    0.568231  0.041235  1.766201
O    1.537078  0.226949  2.555255
H    1.321112  0.788887  -0.071685
H    -0.047976  -0.340133  -0.291821
H    1.571282  -0.939331  0.173445
N    -0.714585  -0.027442  2.165214
C    -1.326051  0.061427  3.510528
C    -1.238255  1.490764  4.066600
O    -0.132829  2.015652  4.399557
H    -1.382785  -0.171964  1.413437
H    -2.385782  -0.138303  3.306640
C    -0.926951  -1.062576  4.517334
C    0.326007  -0.997611  5.375096
C    0.321094  -0.330842  6.631323
C    1.470691  -1.777532  5.072453
C    1.388271  -0.427451  7.521831
C    2.548190  -1.883665  5.957383
C    2.507249  -1.229940  7.207433
O    3.467654  -1.310581  8.131768
H    -0.912105  -1.994500  3.935875
H    -1.782309  -1.155852  5.202278
H    -0.551435  0.253488  6.927111
H    1.511826  -2.329634  4.132991
H    1.357075  0.074398  8.488353
H    3.401782  -2.508861  5.691468
H    4.177537  -1.928334  7.878266
N    -2.376700  2.160238  4.191742
C    -2.498215  3.526885  4.704247
H    -3.232699  1.708965  3.878957
H    -3.317777  3.566204  5.430043
H    -2.715425  4.216651  3.878858
H    -1.560551  3.817304  5.183074
Pb    1.953279  1.035808  4.670333
