34
Energy: -611972.421095 eV PBE+vdW (tier 2 basis)
C    0.127351  -1.187616  1.572509
C    -1.021651  -0.239377  1.404544
O    -2.193797  -0.577913  1.325621
H    0.092030  -1.930709  0.765585
H    -0.002413  -1.738486  2.513528
H    1.108161  -0.699160  1.570726
N    -0.689938  1.131995  1.309410
C    -1.799787  2.055979  1.339710
C    -1.838937  2.980735  0.135141
O    -2.763105  3.874868  0.024009
H    0.209326  1.421878  1.687504
H    -2.665036  1.367543  1.214426
C    -1.947767  2.805425  2.693951
C    -3.349286  3.230424  3.072332
C    -4.444212  2.325395  3.038207
C    -3.615608  4.536198  3.567312
C    -5.716789  2.685314  3.516545
C    -4.881996  4.903469  4.049496
C    -5.940205  3.965619  4.073557
O    -7.092286  4.372369  4.603183
H    -1.273317  3.671582  2.736818
H    -1.603479  2.104876  3.469981
H    -4.295021  1.304694  2.677890
H    -2.805784  5.266606  3.615393
H    -6.521036  1.947709  3.493806
H    -5.054679  5.902462  4.450618
H    -7.762232  3.664933  4.647147
N    -0.938735  2.823721  -0.808221
C    -0.849195  3.563417  -2.064985
H    -0.276633  2.063647  -0.633521
H    0.136473  4.038099  -2.137352
H    -1.628420  4.327693  -2.097008
H    -0.972878  2.869665  -2.905487
Pb    -4.716118  4.276945  1.051624
