34
Energy: -611972.371868 eV PBE+vdW (tier 2 basis)
C    -0.609674  2.674871  4.321943
C    -0.282842  1.226382  4.206219
O    0.945296  0.863933  4.176736
H    -1.687003  2.865934  4.353700
H    -0.168845  3.215311  3.472856
H    -0.139727  3.074539  5.231310
N    -1.274759  0.335046  4.143679
C    -1.077720  -1.111791  4.195372
C    -0.367639  -1.625673  2.935446
O    0.853400  -2.029379  3.047556
H    -2.224785  0.651741  4.374551
H    -0.376450  -1.326408  5.017945
C    -2.415896  -1.834708  4.558120
C    -3.147612  -1.104649  5.653408
C    -2.761759  -1.231681  7.000850
C    -4.227428  -0.257336  5.344595
C    -3.424847  -0.543160  8.002949
C    -4.905662  0.440468  6.340854
C    -4.506088  0.301395  7.680779
O    -5.107549  0.927425  8.708583
H    -2.153635  -2.858351  4.856396
H    -3.060808  -1.917023  3.676694
H    -1.950107  -1.908083  7.275740
H    -4.588127  -0.182797  4.315563
H    -3.145699  -0.657986  9.049225
H    -5.759930  1.068204  6.084182
H    -5.872907  1.448563  8.408657
N    -0.938100  -1.706010  1.747659
C    -2.274572  -1.304219  1.299261
H    -0.333967  -2.114711  1.031658
H    -2.185322  -0.928751  0.274254
H    -2.674896  -0.504426  1.926388
H    -2.957589  -2.163108  1.298963
Pb    2.452252  -0.795566  4.026908
