34
Energy: -611972.131919 eV PBE+vdW (tier 2 basis)
C    -0.789083  1.830693  -0.337129
C    -0.523002  0.678407  0.570296
O    0.438062  -0.122889  0.303692
H    0.119639  2.441805  -0.421718
H    -1.617710  2.461078  0.001789
H    -1.012973  1.449862  -1.343456
N    -1.290655  0.491281  1.646724
C    -1.160481  -0.677744  2.519847
C    -2.404324  -1.098934  3.337839
O    -2.468042  -2.297880  3.599263
H    -2.091108  1.109878  1.751900
H    -1.048985  -1.540779  1.845838
C    0.089166  -0.595517  3.455490
C    1.114745  -1.677673  3.216725
C    2.501274  -1.378277  3.130364
C    0.740189  -3.045892  3.120911
C    3.465258  -2.387917  2.976348
C    1.699042  -4.062354  2.980115
C    3.077935  -3.751044  2.948676
O    4.057727  -4.648670  2.875204
H    -0.242657  -0.674944  4.501622
H    0.558381  0.390785  3.355058
H    2.836128  -0.342217  3.210645
H    -0.319856  -3.310277  3.202210
H    4.526519  -2.141885  2.931471
H    1.369962  -5.102292  2.937604
H    3.734987  -5.568200  2.920119
N    -3.295712  -0.166569  3.729137
C    -4.471570  -0.510445  4.536070
H    -3.073489  0.820046  3.645635
H    -4.247839  -0.441544  5.608521
H    -4.767227  -1.536622  4.301245
H    -5.288462  0.174274  4.288100
Pb    1.627157  -2.035549  0.628844
