34
Energy: -611972.552923 eV PBE+vdW (tier 2 basis)
C    1.015872  -0.804261  2.298338
C    -0.036375  -0.025955  1.585163
O    -0.046280  -0.031517  0.304679
H    0.969462  -1.849172  1.961148
H    0.910348  -0.768733  3.387327
H    2.006475  -0.422390  2.015261
N    -0.944108  0.635693  2.302995
C    -2.174068  1.275920  1.814760
C    -1.871017  2.626001  1.137686
O    -1.510188  2.662466  -0.093376
H    -0.939803  0.447575  3.309521
H    -2.598443  0.636783  1.022941
C    -3.195016  1.332834  2.983131
C    -3.334488  0.001827  3.679432
C    -2.674527  -0.232053  4.900595
C    -4.104565  -1.033464  3.126136
C    -2.763218  -1.458657  5.545180
C    -4.209555  -2.264024  3.761772
C    -3.534831  -2.487633  4.977258
O    -3.591170  -3.648460  5.656045
H    -4.154074  1.680660  2.575052
H    -2.872167  2.074248  3.732604
H    -2.122662  0.576223  5.388820
H    -4.658258  -0.872045  2.199271
H    -2.273141  -1.633767  6.501563
H    -4.830075  -3.050288  3.329583
H    -4.182197  -4.286298  5.218934
N    -2.022782  3.743343  1.817050
C    -1.788083  5.098840  1.313081
H    -2.349011  3.659373  2.777884
H    -1.637255  5.066328  0.232444
H    -0.902396  5.525100  1.800999
H    -2.659586  5.720029  1.548413
Pb    -0.656821  1.129475  -1.492689
