34
Energy: -611972.197545 eV PBE+vdW (tier 2 basis)
C    -0.433826  -1.197712  0.708513
C    -0.036186  0.091121  1.311992
O    0.959725  0.742734  0.960979
H    -1.517338  -1.253389  0.535593
H    -0.200350  -2.001321  1.431051
H    0.123658  -1.385912  -0.213879
N    -0.768750  0.649509  2.428933
C    -2.020152  1.391363  2.087410
C    -1.699501  2.785475  1.559822
O    -0.634220  3.394547  1.926396
H    -1.084721  -0.075210  3.114083
H    -2.586783  0.827210  1.330169
C    -2.881315  1.471535  3.396882
C    -3.004975  0.125903  4.054098
C    -2.215504  -0.204754  5.176451
C    -3.905461  -0.840663  3.568678
C    -2.310543  -1.448135  5.786992
C    -4.014980  -2.085510  4.172422
C    -3.214917  -2.401354  5.289000
O    -3.269414  -3.580376  5.931671
H    -3.862451  1.878083  3.115328
H    -2.416291  2.197141  4.080667
H    -1.555668  0.547157  5.615965
H    -4.558278  -0.607655  2.725056
H    -1.722827  -1.691680  6.670590
H    -4.737008  -2.811634  3.796132
H    -3.957849  -4.158809  5.559284
N    -2.591227  3.377935  0.789675
C    -2.513488  4.754993  0.290749
H    -3.421732  2.845378  0.536897
H    -3.347218  5.337965  0.700535
H    -2.583133  4.746064  -0.803131
H    -1.565696  5.199566  0.600217
Pb    1.133009  2.313006  2.794029
