34
Energy: -611972.417884 eV PBE+vdW (tier 2 basis)
C    2.578610  2.033741  2.161530
C    1.303689  1.379101  2.577577
O    0.962177  0.293786  2.003229
H    2.521064  2.255491  1.086115
H    3.407615  1.325387  2.293729
H    2.796281  2.957431  2.707349
N    0.563968  1.972778  3.522670
C    -0.788759  1.650615  4.037792
C    -0.725063  0.471743  5.011186
O    -0.419644  -0.700300  4.591737
H    0.963729  2.829696  3.897112
H    -1.079422  2.547301  4.594911
C    -1.891622  1.459148  2.964382
C    -3.273421  1.630497  3.524813
C    -3.965464  2.837125  3.308556
C    -3.900636  0.627155  4.281626
C    -5.219182  3.052336  3.856971
C    -5.162667  0.822047  4.829999
C    -5.831002  2.044912  4.625171
O    -7.054573  2.313737  5.112321
H    -1.809227  0.454668  2.474758
H    -1.702790  2.188384  2.164812
H    -3.514430  3.622213  2.699780
H    -3.419449  -0.343285  4.426673
H    -5.754512  3.986076  3.692220
H    -5.645704  0.022535  5.393168
H    -7.420672  1.555232  5.599972
N    -1.003315  0.641055  6.288800
C    -1.443581  1.863626  6.976274
H    -0.948003  -0.210793  6.849708
H    -2.421588  2.186766  6.599043
H    -0.704898  2.666673  6.869487
H    -1.536224  1.631057  8.040405
Pb    -0.227286  -1.536938  2.501124
