34
Energy: -611972.393088 eV PBE+vdW (tier 2 basis)
C    1.037627  -0.641749  1.123540
C    -0.286720  0.019589  0.893896
O    -1.169477  -0.464479  0.170616
H    1.748855  -0.026290  1.685105
H    1.472607  -0.921583  0.156832
H    0.863616  -1.575164  1.677396
N    -0.509822  1.219455  1.530190
C    -1.839905  1.818676  1.593362
C    -2.213782  2.541570  0.273187
O    -2.551217  3.793186  0.233110
H    0.241202  1.639269  2.068992
H    -2.547129  0.973859  1.675826
C    -1.914427  2.694729  2.852767
C    -3.239720  3.337640  3.204828
C    -4.501240  2.820114  2.820894
C    -3.253679  4.500844  4.027865
C    -5.706349  3.414566  3.245146
C    -4.442891  5.077714  4.483870
C    -5.691291  4.521562  4.126653
O    -6.777944  5.101025  4.632593
H    -1.145295  3.480538  2.800249
H    -1.628981  2.050628  3.700690
H    -4.566257  1.924787  2.200894
H    -2.305572  4.936119  4.349509
H    -6.654796  2.974419  2.932193
H    -4.422411  5.948266  5.139723
H    -7.602369  4.631869  4.406108
N    -2.170588  1.805512  -0.806375
C    -2.435388  2.247641  -2.170498
H    -1.877533  0.803940  -0.622887
H    -3.337576  1.749771  -2.548703
H    -1.590939  1.956396  -2.806247
H    -2.562889  3.331963  -2.204113
Pb    -3.969715  5.085613  1.344787
