34
Energy: -611972.423058 eV PBE+vdW (tier 2 basis)
C    -0.911684  1.106313  0.386469
C    -0.872746  0.523549  1.767200
O    -0.053236  0.822723  2.623286
H    -1.689273  0.675415  -0.254082
H    0.068113  0.959938  -0.085898
H    -1.064659  2.190911  0.464052
N    -1.850365  -0.456281  2.058732
C    -1.936311  -0.875402  3.438609
C    -1.759719  -2.373645  3.616397
O    -1.834132  -2.911026  4.787741
H    -2.688939  -0.466468  1.482335
H    -1.016420  -0.417406  3.866036
C    -3.175903  -0.305695  4.182830
C    -3.031492  -0.110282  5.676095
C    -1.893194  0.527599  6.246000
C    -4.073069  -0.470649  6.569799
C    -1.823338  0.822141  7.615531
C    -4.018101  -0.166034  7.942778
C    -2.907867  0.524063  8.476092
O    -2.784411  0.902167  9.746914
H    -4.070341  -0.907908  3.971551
H    -3.361847  0.688346  3.747464
H    -1.066800  0.843590  5.605047
H    -4.967006  -0.960995  6.180017
H    -0.952724  1.333633  8.027088
H    -4.858091  -0.439036  8.583841
H    -3.584359  0.725655  10.276245
N    -1.486051  -3.103503  2.559435
C    -1.212121  -4.538200  2.532395
H    -1.418718  -2.570110  1.688886
H    -0.192525  -4.707170  2.165001
H    -1.920449  -5.030533  1.855617
H    -1.316867  -4.950754  3.537973
Pb    -1.890355  -2.167946  6.900523
