34
Energy: -611972.29483 eV PBE+vdW (tier 2 basis)
C    -0.100178  0.422960  0.761363
C    -0.462222  0.288033  2.200756
O    -0.263135  1.253310  2.999153
H    -0.618140  1.297256  0.344089
H    -0.348945  -0.464948  0.170651
H    0.976868  0.624649  0.680223
N    -1.009417  -0.881244  2.629223
C    -1.417064  -0.955928  4.018990
C    -0.259987  -1.325837  4.962176
O    0.220535  -0.402866  5.711207
H    -1.191594  -1.618695  1.954131
H    -1.561160  0.104840  4.222511
C    -2.803369  -1.469100  4.478026
C    -3.040032  -0.691784  5.766869
C    -2.851957  -1.263855  7.029872
C    -3.237500  0.702720  5.702039
C    -2.831622  -0.488990  8.187980
C    -3.205313  1.506550  6.860498
C    -2.997383  0.904329  8.121081
O    -2.969759  1.579799  9.282353
H    -2.845143  -2.551470  4.645546
H    -3.544776  -1.217056  3.706254
H    -2.717245  -2.342499  7.121759
H    -3.521622  1.172850  4.754343
H    -2.702168  -0.950627  9.166211
H    -3.462129  2.566244  6.792987
H    -3.232483  2.510638  9.174562
N    0.253686  -2.538863  5.020621
C    -0.106120  -3.727884  4.248448
H    1.033833  -2.638593  5.673820
H    0.711744  -3.989142  3.565174
H    -1.019411  -3.559097  3.673222
H    -0.276096  -4.566884  4.933217
Pb    -0.398693  1.763183  5.361650
