34
Energy: -611973.257511 eV PBE+vdW (tier 2 basis)
C    1.086499  2.694942  3.226113
C    0.463293  1.386198  3.597017
O    1.108545  0.317980  3.410112
H    2.002553  2.826267  3.819203
H    0.430781  3.557187  3.385858
H    1.395614  2.660932  2.173355
N    -0.772533  1.413658  4.132430
C    -1.594223  0.305289  4.660309
C    -0.816020  -0.563184  5.665080
O    -0.196927  -1.615722  5.312585
H    -1.187874  2.336940  4.220912
H    -2.368619  0.818977  5.244034
C    -2.401187  -0.501568  3.606825
C    -1.737560  -1.411644  2.587650
C    -1.150345  -0.914945  1.396796
C    -1.875514  -2.823820  2.691227
C    -0.714392  -1.767346  0.377388
C    -1.456169  -3.683322  1.677362
C    -0.890022  -3.163130  0.493269
O    -0.549732  -4.045852  -0.449400
H    -3.004636  0.239215  3.061292
H    -3.122737  -1.101410  4.179495
H    -1.059415  0.161186  1.246744
H    -2.346692  -3.249905  3.578137
H    -0.281005  -1.342641  -0.529208
H    -1.592570  -4.760647  1.766574
H    -0.224218  -3.617294  -1.261791
N    -0.836390  -0.226413  6.947747
C    -1.509503  0.906930  7.592171
H    -0.317734  -0.863614  7.553678
H    -1.231019  0.903833  8.649527
H    -2.601302  0.812431  7.529404
H    -1.183618  1.860419  7.160091
Pb    0.807041  -1.980695  3.265182
