34
Energy: -611972.15413 eV PBE+vdW (tier 2 basis)
C    -0.850789  1.029624  0.484736
C    -0.738566  0.743494  1.951640
O    -0.335902  1.554987  2.781699
H    -1.259698  0.196210  -0.097524
H    0.146724  1.279655  0.099525
H    -1.477453  1.918629  0.339835
N    -1.099314  -0.545275  2.365900
C    -1.114292  -0.761879  3.787565
C    -0.382133  -1.962575  4.345478
O    -0.166877  -1.974564  5.622797
H    -1.662349  -1.109645  1.738708
H    -0.501346  0.102412  4.121993
C    -2.526523  -0.603188  4.451074
C    -2.534021  0.138208  5.768313
C    -1.877410  1.395163  5.912645
C    -3.248189  -0.344776  6.894178
C    -1.971275  2.138237  7.097902
C    -3.354380  0.400613  8.084474
C    -2.752820  1.674350  8.184137
O    -2.841672  2.476793  9.243384
H    -3.028104  -1.573948  4.559772
H    -3.129307  -0.018670  3.740429
H    -1.322491  1.815447  5.067832
H    -3.767429  -1.302784  6.830694
H    -1.483650  3.110055  7.180291
H    -3.937396  -0.000740  8.915168
H    -3.440614  2.133109  9.932078
N    0.075920  -2.992414  3.659732
C    -0.028730  -3.332966  2.233480
H    0.579686  -3.663707  4.241362
H    0.490774  -2.595129  1.614765
H    -1.077002  -3.420967  1.926369
H    0.445940  -4.308476  2.098058
Pb    -0.516314  -0.559280  7.342513
