34
Energy: -611972.199484 eV PBE+vdW (tier 2 basis)
C    -0.184256  2.350782  0.358449
C    -0.151923  0.984209  0.955046
O    0.633438  0.103762  0.459780
H    -0.890591  3.021237  0.858959
H    -0.453971  2.268960  -0.703940
H    0.822053  2.789201  0.397125
N    -0.956256  0.695288  1.977941
C    -1.054112  -0.609064  2.638479
C    -2.452071  -0.827201  3.321492
O    -2.501353  -1.485834  4.351112
H    -1.526577  1.452183  2.353035
H    -1.003475  -1.371019  1.841793
C    0.065301  -0.841948  3.681848
C    1.183478  -1.763594  3.281835
C    2.541527  -1.342338  3.287103
C    0.947004  -3.133897  2.981020
C    3.599339  -2.237077  3.046789
C    1.996227  -4.041154  2.757327
C    3.341493  -3.614506  2.833845
O    4.401719  -4.408502  2.700937
H    -0.450956  -1.287124  4.552728
H    0.471419  0.124592  4.003685
H    2.780330  -0.303517  3.522296
H    -0.077104  -3.512789  2.981450
H    4.634458  -1.896232  3.084971
H    1.762649  -5.090398  2.568154
H    4.164192  -5.351283  2.621513
N    -3.518186  -0.283063  2.696909
C    -4.882185  -0.472155  3.200073
H    -3.412910  0.097153  1.762268
H    -4.863130  -0.453094  4.293707
H    -5.295862  -1.434679  2.871869
H    -5.512868  0.341652  2.830172
Pb    1.886160  -1.770549  0.683229
