34
Energy: -611972.014019 eV PBE+vdW (tier 2 basis)
C    -1.768843  -1.698911  0.764618
C    -0.821322  -0.930181  1.612870
O    0.438047  -1.153806  1.525063
H    -1.673891  -1.394606  -0.288857
H    -2.810037  -1.609087  1.086381
H    -1.465764  -2.755510  0.802793
N    -1.251823  0.000140  2.488015
C    -2.233140  1.032294  2.150262
C    -1.532534  2.033197  1.200371
O    -0.284046  1.917162  0.903518
H    -0.541679  0.302656  3.157889
H    -3.064546  0.562322  1.607712
C    -2.787071  1.688062  3.449268
C    -3.869759  2.711740  3.222174
C    -3.640222  4.075728  3.492801
C    -5.146402  2.328508  2.768672
C    -4.636671  5.023738  3.318325
C    -6.155623  3.265498  2.586205
C    -5.907985  4.624939  2.864332
O    -6.831811  5.590514  2.724806
H    -1.951611  2.147747  3.999038
H    -3.158959  0.856408  4.066468
H    -2.667881  4.395342  3.871254
H    -5.372586  1.276494  2.583229
H    -4.466591  6.074297  3.548651
H    -7.143449  2.946691  2.250961
H    -7.691957  5.225412  2.450947
N    -2.255866  3.024915  0.726971
C    -1.792273  4.111890  -0.134581
H    -3.213906  3.086960  1.087673
H    -2.044640  5.068909  0.337071
H    -2.296548  4.050608  -1.106825
H    -0.711804  4.042287  -0.273062
Pb    1.627191  0.692644  0.920988
