34
Energy: -611972.650149 eV PBE+vdW (tier 2 basis)
C    -2.453806  -1.280313  0.835088
C    -1.353657  -0.881019  1.756910
O    -0.164268  -1.303757  1.519598
H    -3.430015  -0.891126  1.141667
H    -2.497321  -2.375446  0.767327
H    -2.217917  -0.909345  -0.173048
N    -1.622474  -0.078744  2.783852
C    -0.651194  0.517250  3.706889
C    -0.231647  -0.541612  4.742648
O    0.792862  -1.285730  4.495488
H    -2.596981  0.199028  2.943773
H    0.260980  0.741424  3.132236
C    -1.188228  1.872333  4.253336
C    -2.554067  1.838681  4.895233
C    -2.701629  1.822844  6.297318
C    -3.726921  1.858278  4.117791
C    -3.954510  1.770331  6.896438
C    -4.989603  1.805347  4.702867
C    -5.113592  1.743964  6.101311
O    -6.292114  1.693159  6.748544
H    -1.186041  2.561395  3.396124
H    -0.436842  2.258191  4.955967
H    -1.820959  1.921520  6.937477
H    -3.667012  2.002291  3.034877
H    -4.062091  1.787921  7.980019
H    -5.881487  1.850307  4.076379
H    -7.041262  1.736995  6.129430
N    -0.922284  -0.688931  5.846296
C    -0.653045  -1.662755  6.905124
H    -1.712059  -0.038740  5.983075
H    -1.351723  -2.505660  6.823386
H    -0.802145  -1.173145  7.873281
H    0.374583  -2.025052  6.827312
Pb    1.725465  -1.881881  2.554985
