34
Energy: -611972.5304 eV PBE+vdW (tier 2 basis)
C    -0.391507  -1.662890  -0.116011
C    -0.322878  -1.165547  1.287295
O    0.824368  -0.977288  1.825650
H    0.163163  -2.606726  -0.201091
H    0.120630  -0.936377  -0.764340
H    -1.415437  -1.804265  -0.476922
N    -1.457342  -0.901946  1.937968
C    -1.628082  -0.192176  3.221030
C    -1.481334  -1.184426  4.389239
O    -0.361243  -1.797693  4.558797
H    -2.318913  -1.081030  1.424244
H    -0.782190  0.507756  3.321293
C    -2.946130  0.613951  3.123624
C    -3.372511  1.345015  4.375381
C    -4.614587  1.051561  4.969072
C    -2.574835  2.342105  4.959431
C    -5.041796  1.710633  6.115503
C    -2.989684  3.013805  6.102966
C    -4.227978  2.699629  6.694174
O    -4.701671  3.306546  7.798255
H    -3.755149  -0.067965  2.814190
H    -2.808328  1.322406  2.291358
H    -5.284770  0.324938  4.501943
H    -1.626829  2.631647  4.501653
H    -6.011560  1.497104  6.562239
H    -2.365021  3.799207  6.530713
H    -4.099477  4.006871  8.104655
N    -2.486392  -1.390916  5.205241
C    -2.487723  -2.288923  6.359370
H    -3.295545  -0.763769  5.102819
H    -1.578961  -2.893341  6.363534
H    -3.367888  -2.939842  6.300721
H    -2.547713  -1.694856  7.280157
Pb    1.724312  -1.572192  3.779845
