34
Energy: -611971.92978 eV PBE+vdW (tier 2 basis)
C    0.689510  0.478343  0.961339
C    -0.086639  -0.041328  2.117495
O    0.528678  -0.521784  3.135325
H    1.158188  1.441327  1.217570
H    0.087401  0.589063  0.054954
H    1.516967  -0.219542  0.770642
N    -1.434679  -0.019681  2.127195
C    -2.220846  1.147536  1.749532
C    -1.944812  2.255010  2.789165
O    -1.349485  1.996971  3.895956
H    -1.871444  -0.619281  2.830601
H    -1.904971  1.491564  0.755080
C    -3.732096  0.763738  1.699738
C    -3.983096  -0.445224  0.842808
C    -3.836200  -0.385224  -0.557126
C    -4.390196  -1.658950  1.423730
C    -4.079826  -1.492419  -1.348904
C    -4.643130  -2.780675  0.645156
C    -4.487803  -2.704567  -0.751194
O    -4.716859  -3.733791  -1.582512
H    -4.287384  1.637121  1.326442
H    -4.087451  0.585613  2.726393
H    -3.553278  0.551272  -1.042142
H    -4.550932  -1.719669  2.501994
H    -3.984177  -1.449814  -2.432684
H    -4.978202  -3.708543  1.110223
H    -5.019680  -4.522945  -1.098545
N    -2.389248  3.471726  2.530994
C    -2.290230  4.633589  3.419439
H    -2.872864  3.614685  1.646445
H    -2.059620  5.518802  2.817935
H    -1.496636  4.468005  4.151109
H    -3.242950  4.790444  3.941288
Pb    -0.029860  0.539890  5.072735
