34
Energy: -611971.962012 eV PBE+vdW (tier 2 basis)
C    0.262677  -0.159073  0.350681
C    0.156745  0.383283  1.756032
O    0.996002  1.068259  2.293290
H    -0.644036  0.015401  -0.245818
H    0.466234  -1.240759  0.362898
H    1.109172  0.331742  -0.137256
N    -1.031523  0.086011  2.482354
C    -2.013703  -0.921284  2.159465
C    -3.249946  -0.317271  1.470695
O    -4.174515  -1.072441  0.984556
H    -0.942165  0.364510  3.459456
H    -1.586811  -1.626706  1.426086
C    -2.405461  -1.708729  3.447559
C    -3.184504  -2.996515  3.296462
C    -2.610998  -4.155873  2.709195
C    -4.486262  -3.142584  3.845535
C    -3.263140  -5.400920  2.725400
C    -5.153668  -4.379757  3.858670
C    -4.524554  -5.540870  3.348344
O    -5.189555  -6.686704  3.472414
H    -2.949871  -1.036538  4.125747
H    -1.456745  -1.954314  3.947801
H    -1.609760  -4.104178  2.277311
H    -4.972658  -2.283943  4.311965
H    -2.764458  -6.269441  2.291608
H    -6.139835  -4.472629  4.314611
H    -4.682251  -7.459741  3.161375
N    -3.313753  0.987973  1.380482
C    -4.372281  1.779610  0.759973
H    -2.494432  1.462951  1.777314
H    -3.937651  2.407492  -0.027029
H    -4.832669  2.428801  1.514764
H    -5.126078  1.116228  0.330281
Pb    -4.749916  -3.228821  1.113623
