34
Energy: -611972.011386 eV PBE+vdW (tier 2 basis)
C    0.619196  -3.094414  1.782585
C    0.460908  -1.889261  2.645617
O    1.484930  -1.164816  2.904038
H    1.328150  -3.784358  2.261848
H    1.060353  -2.799578  0.821239
H    -0.325064  -3.619001  1.603547
N    -0.738004  -1.586341  3.144504
C    -0.945910  -0.488258  4.090175
C    -2.084849  -0.616437  5.135836
O    -1.828792  -0.104454  6.224209
H    -1.511027  -2.206752  2.917742
H    -0.071112  -0.520511  4.753744
C    -0.997688  0.912964  3.399306
C    0.123966  1.838808  3.810162
C    0.836149  2.611592  2.857902
C    0.473205  2.015048  5.180359
C    1.824144  3.537014  3.244102
C    1.453521  2.936565  5.572408
C    2.110441  3.745723  4.614109
O    2.978179  4.641982  5.078157
H    -1.948018  1.406605  3.653523
H    -0.998488  0.786154  2.309625
H    0.597913  2.514904  1.796933
H    -0.069676  1.445942  5.943509
H    2.333584  4.125466  2.478965
H    1.688506  3.078242  6.627743
H    3.347149  5.213803  4.379431
N    -3.270591  -1.187569  4.838028
C    -3.783313  -1.671118  3.560255
H    -3.911235  -1.199879  5.630203
H    -3.529142  -2.727991  3.376604
H    -3.446793  -1.044129  2.724240
H    -4.876054  -1.606651  3.576375
Pb    2.507464  0.635708  3.837975
