34
Energy: -611972.489016 eV PBE+vdW (tier 2 basis)
C    -2.860828  -1.411369  1.221008
C    -1.628800  -1.001192  1.952252
O    -0.484766  -1.326982  1.466652
H    -2.827372  -0.975775  0.211695
H    -3.780601  -1.091914  1.721187
H    -2.868174  -2.502158  1.094443
N    -1.749764  -0.290305  3.068421
C    -0.700064  0.396530  3.830392
C    -0.000994  -0.582408  4.794026
O    0.753989  -1.503538  4.315296
H    -2.696463  -0.044265  3.384918
H    0.091798  0.689331  3.120756
C    -1.296423  1.695499  4.441572
C    -2.765778  1.666603  4.819045
C    -3.363115  0.655303  5.600497
C    -3.580754  2.735164  4.406333
C    -4.703445  0.711935  5.961529
C    -4.919606  2.813833  4.768058
C    -5.494081  1.801290  5.554872
O    -6.780224  1.796915  5.949728
H    -1.158641  2.483571  3.690129
H    -0.657733  2.011193  5.283262
H    -2.794268  -0.210237  5.947997
H    -3.153717  3.536238  3.801441
H    -5.157786  -0.069551  6.568364
H    -5.520970  3.663327  4.441597
H    -7.246839  2.594322  5.643451
N    -0.150690  -0.453998  6.094328
C    0.466240  -1.294789  7.122498
H    -0.750554  0.303367  6.418292
H    -0.316737  -1.831103  7.672904
H    1.020386  -0.656689  7.820845
H    1.143373  -2.010138  6.652399
Pb    1.461401  -2.056011  2.249812
