27
Energy: -102789.769064 eV PBE+vdW (tier 2 basis)
C    -0.512860  -0.186333  -0.365039
C    -0.302570  -0.536938  1.076850
O    0.752710  -1.079169  1.471556
H    -0.779055  0.871492  -0.493445
H    -1.328253  -0.784260  -0.797548
H    0.407864  -0.401267  -0.912964
N    -1.306670  -0.264942  1.965034
C    -1.060762  -0.257151  3.423339
C    -0.942696  -1.674480  4.019038
O    -1.659088  -2.037979  5.048019
H    -0.082527  0.216169  3.614705
C    -2.217211  0.589725  3.970033
C    -3.348874  0.376721  2.956557
C    -2.603745  0.358726  1.622448
H    -1.908868  1.642965  3.988621
H    -2.484934  0.326001  5.003141
H    -4.112598  1.160510  2.993466
H    -3.849379  -0.590704  3.118343
H    -2.449252  1.380327  1.242438
H    -3.122690  -0.221258  0.850970
N    -0.059748  -2.462232  3.480326
C    0.239311  -3.825315  3.897651
H    0.455786  -1.987040  2.644478
H    0.942469  -4.257974  3.180918
H    -0.669981  -4.440376  3.912473
H    0.708024  -3.835362  4.891543
Sr    -2.789397  -2.411858  6.826046
