27
Energy: -102791.247794 eV PBE+vdW (tier 2 basis)
C    0.383477  -0.881683  0.636499
C    -0.049820  0.210876  1.558546
O    0.693642  1.234002  1.740569
H    0.335869  -1.865234  1.122871
H    1.404646  -0.693002  0.296812
H    -0.278336  -0.927834  -0.241877
N    -1.231613  0.123452  2.182638
C    -1.778019  1.246708  2.979096
C    -0.959030  1.556036  4.252722
O    -0.197725  2.580977  4.217653
H    -1.659905  2.167311  2.389540
C    -3.281922  0.922350  3.126261
C    -3.445917  -0.568231  2.780497
C    -2.261264  -0.908352  1.874277
H    -3.828227  1.545904  2.408430
H    -3.673547  1.178082  4.117021
H    -4.396862  -0.755771  2.271097
H    -3.442664  -1.197386  3.676158
H    -2.525653  -0.832913  0.809912
H    -1.858658  -1.911972  2.055662
N    -1.009195  0.841977  5.367513
C    -1.737686  -0.387055  5.688430
H    -0.443027  1.234367  6.120110
H    -1.288577  -0.813312  6.589993
H    -1.641510  -1.119434  4.882026
H    -2.795579  -0.183549  5.893238
Sr    1.423102  3.145683  2.700311
