27
Energy: -102790.909624 eV PBE+vdW (tier 2 basis)
C    -1.133833  0.741743  -0.250531
C    -0.473824  0.145894  0.952611
O    0.785020  -0.055577  0.965143
H    -2.196627  0.490885  -0.326932
H    -0.607967  0.376850  -1.141069
H    -1.033789  1.838749  -0.247762
N    -1.199898  -0.153656  2.048452
C    -2.299082  0.698612  2.513219
C    -1.741524  2.123859  2.752366
O    -0.483833  2.321949  2.797008
H    -3.114060  0.738095  1.777250
C    -2.758084  0.036055  3.850933
C    -2.021840  -1.312688  3.887536
C    -0.722911  -1.027961  3.137007
H    -3.846535  -0.073777  3.886661
H    -2.462764  0.663243  4.703075
H    -2.589463  -2.085349  3.353209
H    -1.848136  -1.668696  4.908383
H    -0.225217  -1.908605  2.718639
H    -0.009034  -0.506596  3.810644
N    -2.623910  3.088330  2.939064
C    -2.328842  4.484931  3.265509
H    -3.608612  2.834817  2.875043
H    -1.247187  4.629054  3.294163
H    -2.759068  4.732577  4.243413
H    -2.769871  5.139550  2.504670
Sr    1.672893  1.523715  2.402297
