27
Energy: -102789.791928 eV PBE+vdW (tier 2 basis)
C    -0.067123  0.308636  -0.038609
C    -0.042457  0.021638  1.434366
O    1.029963  0.000203  2.070077
H    -0.565594  1.266510  -0.247231
H    -0.596716  -0.472572  -0.599828
H    0.965370  0.369377  -0.391335
N    -1.226309  -0.234889  2.078087
C    -1.312460  -0.218246  3.557427
C    -0.618015  -1.368896  4.307357
O    -1.258561  -1.941415  5.288322
H    -0.817141  0.702689  3.920023
C    -2.827622  -0.147629  3.834533
C    -3.411169  0.508898  2.577239
C    -2.566551  -0.114859  1.466749
H    -3.056268  0.419697  4.751020
H    -3.240808  -1.174756  3.906802
H    -3.256376  1.595689  2.613199
H    -4.483212  0.324008  2.451749
H    -2.528590  0.509395  0.569791
H    -2.944115  -1.107067  1.173763
N    0.602320  -1.670781  3.983901
C    1.449774  -2.680048  4.602700
H    0.981116  -1.024938  3.203723
H    1.858607  -3.329225  3.819422
H    0.884781  -3.279340  5.321152
H    2.288395  -2.186143  5.110527
Sr    -2.941131  -2.191657  6.605680
