27
Energy: -102791.50176 eV PBE+vdW (tier 2 basis)
C    0.955600  -1.399539  2.799272
C    0.279860  -0.273525  2.083981
O    0.896038  0.358404  1.160281
H    1.967415  -1.526592  2.407265
H    0.400697  -2.339304  2.663116
H    1.006375  -1.213537  3.881312
N    -0.974011  0.057225  2.413407
C    -1.798121  1.029587  1.644701
C    -1.407298  2.492177  1.956203
O    -0.414946  3.007378  1.349508
H    -1.582645  0.898709  0.574575
C    -3.234989  0.600061  1.984949
C    -3.142430  0.021731  3.404783
C    -1.791554  -0.692477  3.410245
H    -3.532240  -0.185898  1.277944
H    -3.966442  1.408467  1.868583
H    -3.965245  -0.665082  3.627963
H    -3.165313  0.802194  4.179414
H    -1.888673  -1.735955  3.078259
H    -1.300967  -0.684196  4.390226
N    -2.121794  3.183176  2.826130
C    -1.891441  4.577989  3.204642
H    -2.909324  2.711128  3.263250
H    -1.214543  5.041522  2.483813
H    -2.848782  5.110326  3.205570
H    -1.452790  4.628845  4.209418
Sr    1.444569  2.317194  0.200190
