27
Energy: -102789.725758 eV PBE+vdW (tier 2 basis)
C    -0.152645  0.103124  -0.221099
C    -0.173743  -0.373339  1.189871
O    0.859564  -0.993639  1.636332
H    -0.532111  1.127151  -0.320451
H    -0.783185  -0.547563  -0.846528
H    0.872348  0.043111  -0.597600
N    -1.244638  -0.172373  1.964777
C    -1.238687  -0.282546  3.455025
C    -1.062716  -1.723228  3.964277
O    -1.831824  -2.182758  4.923759
H    -0.356299  0.263819  3.827782
C    -2.539834  0.419864  3.866219
C    -3.464213  0.237229  2.657558
C    -2.517692  0.418604  1.475214
H    -2.334099  1.484640  4.034964
H    -2.947659  0.012066  4.795867
H    -4.287283  0.958751  2.637278
H    -3.902049  -0.771534  2.643330
H    -2.365653  1.483670  1.244063
H    -2.848281  -0.094017  0.565424
N    -0.082574  -2.406317  3.463470
C    0.187079  -3.739764  3.950134
H    0.574540  -1.664744  2.495010
H    0.496215  -3.728716  5.018134
H    1.022275  -4.185850  3.399691
H    -0.681076  -4.416388  3.804257
Sr    -2.182761  -3.775253  6.339244
