27
Energy: -102791.458445 eV PBE+vdW (tier 2 basis)
C    -0.277192  -0.714652  0.092791
C    -0.187174  -0.239517  1.509080
O    0.939938  0.136487  1.980224
H    -0.759438  0.050807  -0.534679
H    -0.865142  -1.635842  0.000468
H    0.730565  -0.883088  -0.295571
N    -1.281614  -0.198782  2.275313
C    -1.287857  0.374835  3.653889
C    -0.496251  -0.489096  4.657088
O    0.725550  -0.218393  4.884187
H    -0.755200  1.337349  3.618962
C    -2.783711  0.605748  3.959077
C    -3.453533  0.645621  2.580387
C    -2.671463  -0.397875  1.788462
H    -2.927915  1.519852  4.544413
H    -3.214189  -0.214006  4.551923
H    -3.341431  1.635250  2.117220
H    -4.523510  0.417485  2.626501
H    -2.723139  -0.253866  0.706076
H    -2.996449  -1.424214  2.017713
N    -1.100608  -1.493665  5.266416
C    -0.473387  -2.388160  6.241328
H    -2.082899  -1.649534  5.056598
H    0.324524  -1.854915  6.764942
H    -0.059342  -3.273294  5.740855
H    -1.232168  -2.708947  6.961397
Sr    2.483038  0.463416  3.582941
