21
Energy: -605078.480132 eV PBE+vdW (tier 2 basis)
N    -0.015565  2.389186  1.069090
C    -0.341997  1.233473  1.995291
C    0.607805  0.077667  1.637311
O    0.849826  -0.778167  2.545672
H    0.226782  1.990639  0.140587
H    0.805237  2.920894  1.396132
H    -0.175917  1.568662  3.024972
C    -1.841300  0.764432  1.776810
C    -1.939900  -0.726320  1.806413
N    -2.026558  -1.495130  2.950053
C    -1.561093  -1.610073  0.815947
C    -1.638373  -2.757743  2.660338
N    -1.321111  -2.865210  1.361874
H    -2.181131  1.100911  0.786101
H    -2.482902  1.250978  2.522177
H    -1.458490  -1.420504  -0.249153
H    -1.617957  -3.563745  3.387523
H    -2.333581  -1.177558  3.867916
O    0.965664  -0.044583  0.432354
H    -0.795325  3.055096  0.967422
Pb    1.157885  -2.556904  1.004170
