21
Energy: -605077.467273 eV PBE+vdW (tier 2 basis)
N    1.154719  0.167539  0.851509
C    0.552208  -0.373662  2.016751
C    1.415907  -1.492592  2.598354
O    2.460964  -1.888720  1.978884
H    1.184515  -0.429341  0.028935
H    0.874249  1.115423  0.618713
H    0.543977  0.410690  2.792356
C    -0.963349  -0.879675  1.845299
C    -1.868892  -0.683834  2.995504
N    -1.619361  -1.000448  4.248565
C    -3.225989  -0.061452  3.012765
C    -2.742620  -0.623828  5.066997
N    -3.674678  -0.085553  4.385884
H    -0.969717  -1.944598  1.560726
H    -1.369537  -0.335136  0.983698
H    -3.937254  -0.596941  2.354705
H    -2.729151  -0.806792  6.139883
H    -0.751124  -1.450625  4.559853
O    1.108281  -2.043449  3.727794
H    -3.214128  0.973055  2.619056
Pb    3.094980  -3.317059  3.639769
