21
Energy: -605077.701888 eV PBE+vdW (tier 2 basis)
N    -0.281701  0.398522  0.875246
C    0.662714  0.045656  1.927154
C    1.994675  -0.555609  1.450688
O    2.294380  -0.537560  0.205689
H    0.057892  1.173737  0.304159
H    -0.464116  -0.381680  0.239969
H    0.963706  0.980777  2.433493
C    0.007801  -0.866721  3.000638
C    -1.227997  -0.301768  3.610485
N    -2.053245  0.507692  2.997480
C    -1.811821  -0.528165  4.964626
C    -3.145702  0.824490  3.879239
N    -3.034770  0.243160  5.008783
H    0.728307  -1.104420  3.793890
H    -0.272372  -1.837295  2.550733
H    -2.012855  -1.597061  5.166053
H    -3.942877  1.489855  3.553587
H    -1.848464  0.804802  2.019130
O    2.825770  -1.038366  2.303066
H    -1.123345  -0.215857  5.772279
Pb    4.388021  -1.438189  0.642612
