21
Energy: -605077.259529 eV PBE+vdW (tier 2 basis)
N    0.040173  1.412829  1.467872
C    0.113385  -0.025214  1.637779
C    1.613673  -0.273758  1.444638
O    2.134886  -0.230766  0.268453
H    -0.037022  1.729827  0.503885
H    -0.630215  1.879894  2.072559
H    -0.108234  -0.249859  2.690131
C    -0.815715  -0.827717  0.694810
C    -1.174708  -2.264207  1.189926
N    -2.021810  -2.984613  0.240652
C    -0.060423  -3.252022  1.288206
C    -1.433485  -4.104340  -0.104517
N    -0.221913  -4.298382  0.526304
H    -0.382496  -0.887568  -0.313563
H    -1.757787  -0.267233  0.621645
H    0.805306  -3.150149  1.943964
H    -1.856385  -4.815022  -0.814725
H    -2.929649  -2.663259  -0.098305
O    2.377584  -0.402665  2.470310
H    -1.702360  -2.192233  2.160558
Pb    4.250196  -0.044546  1.187419
