21
Energy: -605077.281681 eV PBE+vdW (tier 2 basis)
N    0.799162  0.951319  0.586722
C    0.525908  -0.342113  1.179563
C    1.868761  -0.671429  1.844113
O    2.049227  -0.390811  3.085150
H    0.033656  1.617739  0.634935
H    1.212591  0.921166  -0.342683
H    -0.193152  -0.189725  1.996221
C    0.021259  -1.395101  0.167854
C    -0.505749  -2.733461  0.763661
N    -1.817837  -2.646237  1.409086
C    -0.840286  -3.747797  -0.285044
C    -2.655783  -3.447438  0.790339
N    -2.088529  -4.128313  -0.260920
H    0.835642  -1.648476  -0.526104
H    -0.781037  -0.936082  -0.426066
H    -0.133336  -4.130372  -1.023121
H    -3.699924  -3.565195  1.081771
H    -2.047922  -2.081384  2.225680
O    2.854428  -1.109724  1.142713
H    0.225385  -3.154220  1.479206
Pb    4.320535  -0.644345  2.875924
