21
Energy: -605077.126132 eV PBE+vdW (tier 2 basis)
N    0.781942  0.923657  1.490409
C    0.480856  -0.513704  1.754103
C    1.788662  -1.353421  1.838135
O    2.874823  -0.712435  2.267271
H    0.043116  1.533700  1.852468
H    0.825178  1.104042  0.480305
H    0.049402  -0.556943  2.768063
C    -0.539537  -1.078694  0.739454
C    -1.043407  -2.532140  1.014779
N    -2.469171  -2.722242  0.712731
C    -0.490707  -3.644920  0.164753
C    -2.606266  -3.737235  -0.106198
N    -1.410850  -4.316298  -0.468747
H    -0.121517  -1.034206  -0.276431
H    -1.418996  -0.420360  0.746494
H    0.569127  -3.886898  0.102531
H    -3.573518  -4.096306  -0.460104
H    -3.239386  -2.193619  1.122400
O    1.767701  -2.534532  1.580482
H    -0.877838  -2.809675  2.073608
Pb    3.095388  1.401228  2.447494
