21
Energy: -605077.107704 eV PBE+vdW (tier 2 basis)
N    0.266887  0.256978  0.363839
C    -0.290855  0.097249  1.737755
C    0.767149  0.520137  2.756482
O    1.982929  0.351670  2.517372
H    -0.309423  -0.302555  -0.282597
H    0.191318  1.228618  0.038440
H    -1.199223  0.706132  1.864306
C    -0.610581  -1.401410  1.966844
C    -1.822606  -1.837553  1.229685
N    -2.329317  -3.117565  1.298650
C    -2.702455  -1.158880  0.374356
C    -3.445612  -3.158785  0.508624
N    -3.690442  -1.983303  -0.051133
H    -0.690190  -1.617459  3.044967
H    0.298899  -1.971655  1.632920
H    -2.710006  -0.106325  0.097235
H    -4.034009  -4.062116  0.374591
H    -1.962459  -3.894828  1.841815
O    0.442261  1.000344  3.921073
H    -0.516917  1.151193  4.051338
Pb    2.651832  -0.486811  0.486425
