21
Energy: -605077.232945 eV PBE+vdW (tier 2 basis)
N    -0.284512  1.395783  0.671606
C    -0.063509  0.091579  1.220998
C    1.284477  0.057909  1.937857
O    2.159781  0.965432  1.714253
H    0.346286  1.668667  -0.079370
H    -1.251039  1.586242  0.419572
H    -0.814438  -0.076534  2.010918
C    -0.167953  -1.076021  0.172148
C    -0.320314  -2.526368  0.727907
N    -1.641172  -2.829359  1.279459
C    -0.289784  -3.553232  -0.357577
C    -2.182810  -3.808011  0.586979
N    -1.384740  -4.262241  -0.434004
H    0.713045  -1.058994  -0.485575
H    -1.037721  -0.854180  -0.460333
H    0.539002  -3.696742  -1.052606
H    -3.167605  -4.222771  0.803441
H    -2.063949  -2.390877  2.096253
O    1.548784  -0.882386  2.779907
H    0.452655  -2.722165  1.493745
Pb    3.535514  0.195269  3.372421
