21
Energy: -605077.336338 eV PBE+vdW (tier 2 basis)
N    0.329603  0.711231  -1.006040
C    -0.408770  0.397841  0.257465
C    0.589015  0.083332  1.378754
O    1.834774  0.271481  1.233799
H    0.284722  -0.097851  -1.639302
H    -0.146053  1.469461  -1.507465
H    -0.919963  1.324070  0.569352
C    -1.473880  -0.717194  0.050708
C    -2.298656  -0.979302  1.277459
N    -2.805651  -2.225301  1.595470
C    -2.830969  -0.128426  2.252810
C    -3.591697  -2.080101  2.704510
N    -3.614596  -0.828908  3.123040
H    -0.964326  -1.642181  -0.267000
H    -2.116752  -0.401280  -0.786906
H    -2.725704  0.951131  2.342286
H    -4.107666  -2.915810  3.168491
H    -2.646001  -3.095379  1.094408
O    0.168249  -0.354420  2.506061
H    -0.851363  -0.503747  2.482087
Pb    2.761685  1.193356  -0.572987
