21
Energy: -605077.300093 eV PBE+vdW (tier 2 basis)
N    1.170615  0.755446  0.733969
C    0.620328  -0.530438  1.258496
C    1.709473  -1.346597  2.022756
O    2.747057  -0.667650  2.491489
H    0.446719  1.479911  0.705533
H    1.480838  0.639627  -0.238392
H    -0.115899  -0.255472  2.031007
C    -0.066662  -1.336120  0.128244
C    -0.665638  -2.698299  0.544122
N    -1.954382  -2.696911  1.224159
C    -0.968775  -3.672997  -0.535467
C    -2.747328  -3.568337  0.633518
N    -2.173770  -4.175779  -0.452830
H    0.683379  -1.558196  -0.646877
H    -0.846021  -0.722123  -0.343950
H    -0.262556  -3.990676  -1.304258
H    -3.753427  -3.797439  0.984995
H    -2.176388  -2.208111  2.089960
O    1.561856  -2.537325  2.219298
H    0.099757  -3.157003  1.233780
Pb    3.213825  1.383491  2.103447
