21
Energy: -605077.726860 eV PBE+vdW (tier 2 basis)
N    -0.691732  1.368257  0.535118
C    -0.107264  1.192893  1.920129
C    1.267963  0.537129  1.795305
O    1.862923  0.150621  2.853461
H    0.050166  1.451967  -0.177320
H    -1.312367  2.186353  0.476753
H    0.076497  2.194197  2.338548
C    -1.101318  0.438724  2.832008
C    -1.695339  -0.754942  2.153921
N    -2.940676  -1.259059  2.460185
C    -1.227006  -1.592282  1.140509
C    -3.155526  -2.350100  1.661946
N    -2.137210  -2.568166  0.850422
H    -1.888237  1.142429  3.143071
H    -0.551336  0.175561  3.748672
H    -0.266301  -1.573212  0.628039
H    -4.067334  -2.937866  1.711118
H    -3.576880  -0.912057  3.173393
O    1.827627  0.439218  0.647842
H    -1.254158  0.501800  0.337109
Pb    3.768512  -0.472468  1.673772
