21
Energy: -605076.961583 eV PBE+vdW (tier 2 basis)
N    -0.622263  0.200901  0.286112
C    -0.170143  -0.149262  1.596236
C    1.167676  0.549168  2.012663
O    2.043965  -0.004400  2.642032
H    -0.053812  -0.107208  -0.500702
H    -0.976900  1.146010  0.162145
H    -0.913802  0.230200  2.318392
C    -0.041663  -1.692485  1.725539
C    -0.039952  -2.231944  3.118037
N    -1.193455  -2.683903  3.753431
C    0.967963  -2.452155  4.023492
C    -0.896856  -3.154985  4.969063
N    0.431782  -3.028112  5.171782
H    0.876111  -2.024222  1.222165
H    -0.884488  -2.129913  1.173137
H    2.020878  -2.221100  3.915885
H    -1.621809  -3.572626  5.659457
H    -2.128777  -2.686392  3.349049
O    1.187214  1.817968  1.602492
H    2.024532  2.241016  1.886887
Pb    1.617175  -3.653291  7.044022
