21
Energy: -605077.655032 eV PBE+vdW (tier 2 basis)
N    0.309704  -0.440140  0.005163
C    -0.224435  -0.349589  1.309960
C    0.750601  -0.568919  2.485269
O    0.514044  -0.204828  3.661878
H    0.856913  -1.264979  -0.224058
H    0.707660  0.409128  -0.383063
H    -0.628952  0.662411  1.462500
C    -1.454785  -1.373810  1.457243
C    -2.137994  -1.232032  2.757352
N    -2.962489  -0.169322  3.073969
C    -1.893742  -1.858468  3.970901
C    -3.142487  -0.117376  4.412995
N    -2.493572  -1.139965  5.001529
H    -1.085605  -2.398707  1.325237
H    -2.106051  -1.143920  0.605008
H    -1.374546  -2.795749  4.153052
H    -3.771732  0.609157  4.919368
H    -3.407882  0.455350  2.401649
O    1.853595  -1.188366  2.151152
H    2.467437  -1.295838  2.909279
Pb    -0.426684  -0.311036  5.833616
