21
Energy: -605077.590913 eV PBE+vdW (tier 2 basis)
N    -0.707532  -2.557934  3.167350
C    0.059383  -1.387760  2.810973
C    1.592658  -1.509191  2.891011
O    2.132741  -2.667902  2.976131
H    -2.424003  0.735251  1.507349
H    -0.470811  -2.927677  4.088680
H    -0.118654  -1.173804  1.740975
C    -0.436821  -0.166445  3.629924
C    -1.906901  0.015634  3.488642
N    -2.725784  0.291420  4.474340
C    -2.763389  0.004001  2.263813
C    -4.063993  0.462869  3.959661
N    -4.110413  0.305159  2.698160
H    0.057754  0.755351  3.279712
H    -0.172496  -0.283136  4.691084
H    -2.740759  -0.980286  1.762652
H    -4.885635  0.697421  4.634224
H    -2.465947  0.375324  5.459952
O    2.334715  -0.461262  2.827954
H    -0.609763  -3.318247  2.495513
Pb    4.253649  -1.757787  2.827898
