21
Energy: -605077.446145 eV PBE+vdW (tier 2 basis)
N    0.929510  -0.410867  0.345863
C    0.349626  -0.360853  1.638260
C    1.343435  -0.843685  2.697962
O    2.556592  -1.091114  2.372554
H    1.125228  -1.333350  -0.033969
H    0.503007  0.195740  -0.348154
H    0.182913  0.701006  1.895280
C    -1.063695  -1.095656  1.788499
C    -1.803902  -0.867445  3.044132
N    -2.313924  -1.804647  3.815109
C    -2.195479  0.421413  3.695924
C    -2.996166  -1.197225  4.927314
N    -2.934624  0.074160  4.891774
H    -0.947533  -2.167760  1.578744
H    -1.671123  -0.672726  0.972941
H    -2.827089  1.035239  3.025089
H    -3.492577  -1.816534  5.672590
H    -2.271163  -2.809593  3.634349
O    0.978132  -0.958926  3.928367
H    -1.332019  1.062180  3.942724
Pb    3.205853  -1.404357  4.535650
