21
Energy: -605077.257996 eV PBE+vdW (tier 2 basis)
N    0.812499  0.968521  1.748265
C    0.485376  -0.487822  1.802166
C    1.777013  -1.331761  1.584615
O    2.902511  -0.818756  2.073340
H    0.120378  1.523638  2.260246
H    0.782691  1.307374  0.779162
H    0.156658  -0.690264  2.834642
C    -0.616805  -0.883169  0.794546
C    -1.385965  -2.189588  1.127641
N    -2.220873  -2.624282  0.003190
C    -0.635086  -3.476751  1.358841
C    -1.939508  -3.875822  -0.281629
N    -0.989444  -4.428671  0.537495
H    -0.166123  -0.997452  -0.201150
H    -1.362256  -0.076763  0.742162
H    0.044933  -3.666138  2.185675
H    -2.429966  -4.429577  -1.083013
H    -2.922758  -2.054706  -0.468886
O    1.720978  -2.408070  1.029450
H    -2.041403  -2.029738  2.006909
Pb    3.202148  1.234795  2.585332
