21
Energy: -605077.198972 eV PBE+vdW (tier 2 basis)
N    -0.242442  0.619628  0.106263
C    -0.048342  0.189934  1.550212
C    0.917877  -1.009085  1.609157
O    0.847533  -1.872708  2.442078
H    0.647926  0.550477  -0.407561
H    -0.594364  1.582427  0.036282
H    0.449410  1.020524  2.072460
C    -1.397952  -0.108586  2.214118
C    -2.160065  -1.206697  1.540441
N    -2.176057  -1.296620  0.147350
C    -2.921682  -2.218074  2.066826
C    -2.926645  -2.327530  -0.151927
N    -3.428289  -2.947505  0.994728
H    -2.001056  0.814508  2.229544
H    -1.203660  -0.367728  3.261637
H    -3.125257  -2.475677  3.100723
H    -3.139616  -2.672846  -1.159857
H    -0.960880  -0.046870  -0.308805
O    1.848971  -0.905512  0.633901
H    2.502689  -1.628921  0.729962
Pb    -4.803101  -4.659137  1.025467
