21
Energy: -605077.364553 eV PBE+vdW (tier 2 basis)
N    0.611068  -0.201244  -1.059872
C    -0.136297  -0.186040  0.227870
C    0.863001  -0.201206  1.425309
O    1.969652  0.522210  1.252648
H    0.851467  -1.161338  -1.333146
H    0.052102  0.182703  -1.827336
H    -0.655436  0.784010  0.272926
C    -1.167913  -1.343959  0.331893
C    -2.275386  -1.173547  1.320071
N    -3.507228  -1.571920  1.093083
C    -2.292524  -0.655775  2.719501
C    -4.317577  -1.334347  2.261405
N    -3.644054  -0.799035  3.200097
H    -0.630308  -2.260885  0.636490
H    -1.605310  -1.538569  -0.658030
H    -1.946317  0.389497  2.811000
H    -5.371871  -1.606170  2.262780
H    -3.848348  -2.004207  0.230665
O    0.601246  -0.805412  2.437948
H    -1.574824  -1.215011  3.351542
Pb    2.809855  1.054245  -0.634842
