21
Energy: -605077.263143 eV PBE+vdW (tier 2 basis)
N    -0.346651  1.155513  1.742795
C    -0.081054  -0.263232  1.811278
C    1.415104  -0.508407  1.903904
O    1.932642  -1.637683  1.564954
H    -1.283511  1.393896  2.064689
H    0.328508  1.714557  2.262201
H    -0.463908  -0.751884  2.741399
C    -0.749760  -0.952372  0.582330
C    -1.388381  -2.342142  0.852001
N    -2.194208  -2.810665  -0.276743
C    -0.485810  -3.526242  0.986720
C    -1.771276  -3.993465  -0.650675
N    -0.717959  -4.460677  0.106464
H    -0.053375  -1.020783  -0.262882
H    -1.556735  -0.276578  0.271639
H    0.288398  -3.630430  1.744859
H    -2.210520  -4.557923  -1.473491
H    -2.972273  -2.300305  -0.696395
O    2.178284  0.418027  2.358181
H    -2.038364  -2.277727  1.748163
Pb    4.065849  -0.848478  2.093608
