21
Energy: -605077.830350 eV PBE+vdW (tier 2 basis)
N    -0.463274  -1.630019  1.924380
C    0.782145  -1.730008  1.081469
C    1.935741  -0.958983  1.681052
O    1.724458  -0.072519  2.582806
H    -0.516857  -2.357204  2.653975
H    -0.512771  -0.708703  2.385472
H    1.059608  -2.790149  1.003745
C    0.335521  -1.192542  -0.297575
C    -1.095750  -1.739956  -0.464538
N    -1.166979  -3.128673  -0.904897
C    -1.692828  -1.886263  0.969729
C    -1.797120  -3.864372  0.053937
N    -2.104509  -3.243692  1.156458
H    1.017068  -1.521755  -1.089015
H    0.313758  -0.093074  -0.297591
H    -2.454531  -1.155519  1.266484
H    -2.011031  -4.920894  -0.110260
H    -1.125971  -3.399168  -1.883024
O    3.118452  -1.184223  1.250894
H    -1.692505  -1.081874  -1.109356
Pb    4.036375  0.389593  2.676853
