21
Energy: -605077.099809 eV PBE+vdW (tier 2 basis)
N    0.620428  0.196105  0.816103
C    0.439402  -0.468516  2.143300
C    1.726051  -1.235470  2.479903
O    2.814904  -0.970733  1.913708
H    0.034886  1.037866  0.766299
H    0.216064  -0.482954  0.126980
H    0.378444  0.313752  2.919767
C    -0.864589  -1.307591  2.173583
C    -0.991109  -2.177269  0.963301
N    -2.192518  -2.468262  0.349481
C    -0.040610  -2.847240  0.193271
C    -1.924901  -3.280152  -0.717527
N    -0.628432  -3.510640  -0.842270
H    -1.706129  -0.601920  2.237144
H    -0.924198  -1.880059  3.117959
H    1.033729  -2.928767  0.356457
H    -2.704855  -3.669244  -1.365518
H    -3.118348  -2.179358  0.655445
O    1.754697  -2.141400  3.406191
H    0.881974  -2.333851  3.810043
Pb    2.988112  0.592705  0.274382
