21
Energy: -605077.682746 eV PBE+vdW (tier 2 basis)
N    -0.025167  -0.794919  0.041196
C    0.119147  -0.158764  1.401463
C    1.541349  -0.298634  1.904117
O    1.893185  0.372660  2.930629
H    -1.060935  -0.947794  -0.085086
H    0.468993  -1.698283  -0.010626
H    -0.113997  0.908213  1.283658
C    -0.907186  -0.798364  2.394455
C    -2.246664  -0.952293  1.752858
N    -3.066812  -2.047550  1.940892
C    -2.959477  -0.132185  0.872109
C    -4.207214  -1.835734  1.215079
N    -4.159028  -0.693894  0.550656
H    -0.932480  -0.136532  3.272715
H    -0.531045  -1.773581  2.740793
H    -2.688606  0.854160  0.498565
H    -5.032344  -2.541990  1.205924
H    -2.900600  -2.832302  2.565064
O    2.356614  -1.099322  1.324836
H    0.325694  -0.201270  -0.722007
Pb    4.053571  -0.481623  2.866712
