21
Energy: -605078.459477 eV PBE+vdW (tier 2 basis)
N    -0.481251  1.275089  0.623673
C    -0.073964  0.226997  1.648703
C    0.994029  -0.654870  0.975198
O    0.871826  -0.832515  -0.285444
H    -1.400169  1.694529  0.823918
H    -0.487800  0.825521  -0.311237
H    0.204454  2.044665  0.583199
H    0.331432  0.759212  2.516174
C    -1.295564  -0.679752  2.096048
C    -1.296593  -1.998765  1.390795
N    -1.827540  -2.249681  0.133371
C    -0.410863  -3.031188  1.605485
C    -1.214973  -3.334478  -0.392020
N    -0.309459  -3.822950  0.469843
H    -2.238989  -0.124794  1.984806
H    -1.175913  -0.855230  3.172409
H    -2.612811  -1.766814  -0.298322
H    0.177857  -3.229164  2.496190
H    -1.459364  -3.756467  -1.362096
O    1.824146  -1.274692  1.688372
Pb    2.014022  -2.999578  -0.049986
