21
Energy: -605077.609159 eV PBE+vdW (tier 2 basis)
N    -0.393481  -1.559072  4.962994
C    0.028382  -1.399185  3.599674
C    1.540967  -1.546524  3.341623
O    2.321143  -1.861728  4.307139
H    -2.707676  -0.778766  4.781403
H    0.185071  -1.052225  5.633056
H    -0.425374  -2.203236  2.994960
C    -0.449903  -0.026303  2.990334
C    -1.927466  0.095558  2.993189
N    -2.694175  0.167870  1.926584
C    -2.862581  0.120662  4.147099
C    -4.073667  0.237507  2.335592
N    -4.195478  0.209616  3.604165
H    -0.044745  0.092106  1.977666
H    -0.040720  0.782225  3.616900
H    -2.660116  0.956114  4.842347
H    -4.864559  0.305530  1.590769
H    -2.371679  0.180247  0.956444
O    2.018389  -1.390491  2.158431
H    -0.442961  -2.533576  5.254848
Pb    4.141627  -1.967330  2.880785
