21
Energy: -605077.611339 eV PBE+vdW (tier 2 basis)
N    -0.812654  0.135097  1.720439
C    0.470137  -0.547710  1.588053
C    1.671345  0.370569  1.320076
O    1.506147  1.635345  1.199565
H    -0.887803  0.624250  2.613313
H    -0.942192  0.839338  0.990425
H    0.705452  -1.025614  2.554791
C    0.415668  -1.666455  0.513924
C    -0.629286  -2.750936  0.859130
N    -2.000971  -2.252289  0.881176
C    -0.802760  -3.881441  -0.111198
C    -2.731634  -2.975369  0.074793
N    -2.027576  -3.998062  -0.538111
H    1.396123  -2.153303  0.435213
H    0.175638  -1.236966  -0.469860
H    -0.015116  -4.573354  -0.413579
H    -3.792364  -2.799804  -0.103501
H    -2.207844  -1.363270  1.367449
O    2.853144  -0.129510  1.241279
H    -0.398473  -3.187958  1.852106
Pb    3.796019  1.961438  0.999517
