21
Energy: -605077.688605 eV PBE+vdW (tier 2 basis)
N    0.152897  -2.443834  2.060455
C    1.387507  -2.349858  1.205272
C    2.212284  -1.138365  1.614128
O    1.884146  -0.444764  2.640633
H    -0.133171  -3.421897  2.227253
H    0.290065  -1.994208  2.977472
H    2.028254  -3.226112  1.385746
C    0.865246  -2.338509  -0.248263
C    -0.553563  -1.708557  -0.197169
N    -1.581343  -2.521041  -0.828045
C    -1.041774  -1.782949  1.285577
C    -2.410042  -3.020751  0.124729
N    -2.165593  -2.661525  1.354523
H    0.792617  -3.373195  -0.605652
H    1.556588  -1.809879  -0.912572
H    -1.213306  -0.819328  1.782568
H    -3.229020  -3.687681  -0.145354
H    -1.720563  -2.603937  -1.829195
O    3.261952  -0.854657  0.943859
H    -0.559339  -0.683765  -0.588096
Pb    3.842158  0.857811  2.393131
