21
Energy: -605077.347972 eV PBE+vdW (tier 2 basis)
N    0.132165  0.424145  0.210480
C    -0.030698  0.047175  1.663914
C    0.673764  -1.316846  1.790346
O    1.322459  -1.780960  0.876359
H    -0.747536  0.126902  -0.302187
H    0.314774  1.422815  0.068236
H    0.543828  0.762649  2.269540
C    -1.504183  0.083054  2.111939
C    -2.423753  -0.752414  1.277014
N    -2.327677  -0.713407  -0.114443
C    -3.458140  -1.581213  1.635074
C    -3.273672  -1.490639  -0.576655
N    -4.022142  -2.062075  0.455857
H    -1.847603  1.130615  2.087400
H    -1.545400  -0.226081  3.163081
H    -3.826594  -1.860801  2.616347
H    -3.459380  -1.687167  -1.629270
H    0.922231  -0.152601  -0.149807
O    0.499390  -1.850661  2.997575
H    1.032715  -2.670680  3.064337
Pb    -5.853548  -3.236809  0.151861
