21
Energy: -605077.548054 eV PBE+vdW (tier 2 basis)
N    0.553652  0.598397  -0.827042
C    -0.291768  0.325371  0.363496
C    0.536938  -0.255539  1.544328
O    1.817821  0.072270  1.599397
H    0.597773  -0.222279  -1.442570
H    0.167777  1.356650  -1.397601
H    -0.660023  1.302348  0.715382
C    -1.487483  -0.613377  0.079861
C    -2.294762  -0.924297  1.298847
N    -2.729697  -2.120996  1.620211
C    -2.977312  0.008955  2.255323
C    -3.595839  -2.025445  2.767188
N    -3.751390  -0.822910  3.152448
H    -1.129827  -1.547890  -0.377711
H    -2.165776  -0.135792  -0.647223
H    -3.648323  0.706462  1.718387
H    -4.034113  -2.923570  3.198948
H    -2.469551  -2.996130  1.161503
O    -0.032843  -0.934391  2.374675
H    -2.277783  0.639018  2.827114
Pb    2.922530  1.037145  0.033042
