21
Energy: -605077.080936 eV PBE+vdW (tier 2 basis)
N    0.036036  -0.048170  0.015008
C    0.155847  -0.158740  1.502397
C    1.637727  -0.229828  1.872030
O    2.529517  0.131448  1.066950
H    -0.061693  -0.991749  -0.383516
H    -0.860186  0.409206  -0.203958
H    -0.187411  0.804335  1.922562
C    -0.720493  -1.286337  2.098300
C    -2.159698  -1.085586  1.744369
N    -3.073290  -2.109935  1.653471
C    -2.900197  0.070166  1.476876
C    -4.288107  -1.549990  1.349721
N    -4.202237  -0.235023  1.232301
H    -0.603138  -1.289057  3.199152
H    -0.353921  -2.266018  1.748225
H    -2.571543  1.108362  1.496385
H    -5.188343  -2.144068  1.222118
H    -2.903007  -3.098686  1.818068
O    2.031353  -0.611987  3.050052
H    1.306722  -0.899624  3.644362
Pb    2.092051  0.960233  -1.006691
