21
Energy: -605077.262121 eV PBE+vdW (tier 2 basis)
N    -0.011220  1.010729  0.594563
C    0.193923  -0.297937  1.162640
C    1.640108  -0.458603  1.603825
O    2.344533  0.583225  1.853204
H    0.552365  1.737725  1.031563
H    -0.988211  1.297810  0.596967
H    -0.369806  -0.480151  2.111484
C    -0.245619  -1.348665  0.102862
C    -0.507067  -2.794899  0.599542
N    -1.755493  -2.984785  1.342132
C    -0.754961  -3.772122  -0.505319
C    -2.493650  -3.877406  0.722629
N    -1.908775  -4.375561  -0.418259
H    0.509655  -1.391868  -0.692626
H    -1.162352  -0.969698  -0.367526
H    -0.058982  -3.974150  -1.321148
H    -3.472726  -4.199355  1.078616
H    -2.008015  -2.526670  2.216643
O    2.164871  -1.624870  1.763434
H    0.343657  -3.136362  1.220415
Pb    4.193764  -0.657384  2.393357
