21
Energy: -605078.361452 eV PBE+vdW (tier 2 basis)
N    0.487867  -1.144531  0.073546
C    0.143009  -0.356274  1.286565
C    1.439099  -0.096421  2.045808
O    2.375604  -0.918047  2.062323
H    -0.367046  -1.511124  -0.358808
H    0.908140  -0.529075  -0.633309
H    -0.323013  0.604602  1.026282
C    -0.850945  -1.139408  2.210099
C    -0.267724  -2.407102  2.740185
N    0.235328  -2.566953  3.996061
C    0.067910  -3.605468  2.078123
C    0.847546  -3.803129  4.077002
N    0.767799  -4.452923  2.940531
H    -1.756264  -1.349154  1.620997
H    -1.164326  -0.469877  3.022149
H    -0.420240  -4.005853  1.186357
H    1.321810  -4.160373  4.987550
H    0.139465  -1.908958  4.769020
O    1.449522  1.025695  2.713464
H    2.289994  1.151920  3.209954
Pb    2.177007  -2.930346  0.777737
