21
Energy: -605077.546044 eV PBE+vdW (tier 2 basis)
N    0.867823  -0.709105  -0.989969
C    -0.180624  -0.369881  0.006965
C    0.426987  0.237902  1.304190
O    1.579169  0.877962  1.183305
H    1.192381  -1.675164  -0.863702
H    0.508810  -0.657385  -1.947950
H    -0.783066  0.437790  -0.438892
C    -1.085561  -1.570645  0.378363
C    -2.057385  -1.310556  1.488221
N    -3.075341  -0.477373  1.460320
C    -2.217177  -2.081608  2.757808
C    -3.842592  -0.625019  2.673616
N    -3.373309  -1.535334  3.428182
H    -0.454683  -2.416833  0.687527
H    -1.651708  -1.899422  -0.508061
H    -1.320019  -2.023423  3.397428
H    -4.715182  0.002067  2.848018
H    -3.302278  0.182921  0.715681
O    -0.196148  0.141337  2.341388
H    -2.366150  -3.160853  2.555738
Pb    2.862053  0.828621  -0.535175
