11
Energy: -94931.5744723 eV PBE+vdW (tier 2 basis)
N    0.051101  -0.151625  0.101084
C    0.078534  -0.686200  1.514357
C    1.385146  -0.273148  2.186901
O    1.599204  -0.653097  3.374240
H    0.044802  -0.900746  -0.604688
H    -0.764595  0.449384  -0.079894
H    -0.772093  -0.284836  2.078608
H    -0.012563  -1.778774  1.502950
O    2.213193  0.446412  1.527860
H    0.917992  0.412225  -0.025846
Sr    3.693279  0.435406  3.476431
