11
Energy: -94931.0702177 eV PBE+vdW (tier 2 basis)
N    0.405583  -0.229042  0.044262
C    0.006102  0.219898  1.410103
C    1.106686  -0.039432  2.414326
O    2.258097  -0.383074  2.063013
H    -0.116566  -1.085294  -0.174400
H    0.043106  0.450191  -0.633110
H    -0.190499  1.303447  1.417085
H    -0.923527  -0.253415  1.757482
O    0.748564  0.149306  3.648363
H    1.485859  0.008586  4.284012
Sr    2.995596  -0.715172  -0.113137
