30
Energy:  -45056.1817151  eV PBE+vdW (tier 2 basis)
 C    0.05199    0.50936    0.32174
 C   -0.21313   -0.04674    1.67533
 O    0.74129   -0.47229    2.40784
 H   -0.85400    0.80117   -0.21607
 H    0.56096   -0.28047   -0.25395
 H    0.75779    1.34986    0.36997
 N   -1.47458   -0.11793    2.15916
 C   -2.40999    1.01168    2.13504
 C   -1.71755    2.18092    2.87199
 O   -0.77019    1.91365    3.70577
 H   -1.56564   -0.71079    2.98669
 H   -2.64213    1.29798    1.09761
 C   -3.72701    0.55391    2.82185
 C   -4.97302    1.37396    2.49309
 S   -5.23295    1.40093    0.68836
 C   -6.70701    2.45021    0.57452
 H   -3.58355    0.52101    3.91361
 H   -3.89219   -0.47983    2.48204
 H   -4.91171    2.39808    2.89107
 H   -5.83332    0.89299    2.97796
 H   -6.93888    2.52889   -0.49341
 H   -6.52064    3.45272    0.97738
 H   -7.55211    1.97917    1.08848
 N   -2.06406    3.43675    2.67761
 C   -2.98791    4.02516    1.70182
 H   -1.55939    4.10239    3.26659
 H   -3.54120    3.25114    1.15108
 H   -2.41312    4.63964    0.99744
 H   -3.69840    4.67084    2.23091
Ca    0.92096    0.70506    4.20952
