30
Energy:  -45056.8166332  eV PBE+vdW (tier 2 basis)
C    2.265504  -0.201481  1.138527
C    1.284706  -0.536168  2.210087
O    1.629868  -0.489689  3.438476
H    3.164833  -0.820969  1.251314
H    2.581386  0.843826  1.271975
H    1.863268  -0.325137  0.127868
N    0.037241  -0.870434  1.867015
C    -1.111184  -1.048725  2.777274
C    -1.026196  -2.420526  3.483603
O    -0.198832  -2.565691  4.446889
H    -0.176970  -0.889225  0.871439
H    -1.005597  -0.303459  3.582650
C    -2.417444  -0.780645  2.020509
C    -2.593995  0.678231  1.585931
S    -4.102040  0.758475  0.570273
C    -4.197239  2.539044  0.252027
H    -3.262968  -1.052287  2.669581
H    -2.475758  -1.428456  1.125979
H    -1.731696  1.037086  1.000586
H    -2.695114  1.326222  2.470445
H    -3.323684  2.893006  -0.307797
H    -4.320435  3.103845  1.183301
H    -5.091590  2.678579  -0.366008
N    -1.811548  -3.399283  3.086546
C    -1.868600  -4.747431  3.654509
H    -2.457989  -3.192499  2.326488
H    -1.217721  -4.802447  4.529107
H    -1.544750  -5.476822  2.901797
H    -2.901617  -4.970320  3.945950
Ca    1.488162  -1.549622  5.253658
