30
Energy:  -45056.4419593  eV PBE+vdW (tier 2 basis)
 C   -0.24716    0.32648    0.10523
 C   -0.25269    0.11288    1.57965
 O    0.72967    0.50295    2.29486
 H   -0.18645    1.40658   -0.09255
 H   -1.13344   -0.07858   -0.39360
 H    0.65422   -0.12671   -0.32869
 N   -1.30466   -0.48346    2.15022
 C   -1.50394   -0.61294    3.60194
 C   -0.54202   -1.67095    4.18637
 O    0.56616   -1.24474    4.67363
 H   -2.08350   -0.74975    1.55039
 H   -1.12556    0.32102    4.04105
 C   -3.01105   -0.72155    4.00568
 C   -4.04034   -0.95445    2.88737
 S   -5.74979   -0.96553    3.50400
 C   -5.83557   -2.58101    4.32174
 H   -3.27824    0.21816    4.50354
 H   -3.11410   -1.49783    4.77395
 H   -3.86528   -1.88295    2.31835
 H   -4.03899   -0.11755    2.17209
 H   -6.87638   -2.68027    4.65244
 H   -5.19483   -2.64182    5.21030
 H   -5.61992   -3.39664    3.61981
 N   -0.79165   -2.96750    4.21447
 C   -1.92538   -3.72659    3.68177
 H   -0.06776   -3.51493    4.68310
 H   -2.34414   -3.23701    2.79988
 H   -2.70621   -3.85319    4.44214
 H   -1.55957   -4.71480    3.38521
Ca    1.92930    0.25462    4.02069
