30
Energy:  -45057.2131113  eV PBE+vdW (tier 2 basis)
C    0.612488  0.957510  1.085417
C    -0.114397  0.371952  2.244777
O    0.358096  0.432673  3.418633
H    0.792395  2.023678  1.281223
H    0.076389  0.848057  0.137186
H    1.599056  0.480858  1.002167
N    -1.311347  -0.232676  2.036007
C    -2.032473  -0.744788  3.189523
C    -1.531381  -2.135957  3.634294
O    -0.810053  -2.172944  4.681881
H    -1.704049  -0.249236  1.098699
H    -1.652888  -0.083519  3.974612
C    -3.535977  -0.484599  3.338020
C    -3.890385  -0.538832  4.835821
S    -2.822154  0.585810  5.851756
C    -3.503833  0.303950  7.513795
H    -4.169121  -1.203167  2.801573
H    -3.754457  0.513884  2.933457
H    -3.801871  -1.555635  5.242755
H    -4.920911  -0.196880  4.989473
H    -2.933085  0.940073  8.199616
H    -3.418181  -0.746725  7.809349
H    -4.550555  0.626837  7.522881
N    -1.814908  -3.244481  2.971821
C    -2.586228  -3.424939  1.742893
H    -1.405082  -4.088820  3.376657
H    -3.457467  -4.061732  1.939519
H    -1.957716  -3.909413  0.985960
H    -2.932200  -2.465915  1.351419
Ca    -0.012705  -0.295024  5.486816
