30
Energy:  -45056.8136000  eV PBE+vdW (tier 2 basis)
C    2.442116  -0.285366  1.685766
C    1.314499  -0.553700  2.622883
O    1.514863  -0.581196  3.883065
H    2.152749  -0.339505  0.631319
H    3.260148  -0.992092  1.877023
H    2.835531  0.720161  1.896682
N    0.090025  -0.751592  2.126424
C    -1.166543  -0.847724  2.896045
C    -1.285166  -2.241749  3.548238
O    -0.618631  -2.483014  4.612443
H    -0.006669  -0.721417  1.112938
H    -1.083817  -0.141870  3.738643
C    -2.347066  -0.423543  2.007582
C    -2.318886  1.064625  1.613521
S    -3.561669  1.503669  0.366796
C    -5.081325  1.539446  1.356495
H    -3.278873  -0.629893  2.553200
H    -2.371762  -1.027928  1.083665
H    -1.360766  1.336447  1.146684
H    -2.433958  1.702235  2.503618
H    -5.364068  0.551469  1.739223
H    -5.865975  1.874315  0.667831
H    -5.002786  2.267383  2.172970
N    -2.073632  -3.143161  3.000946
C    -2.304734  -4.502838  3.491937
H    -2.584951  -2.860478  2.166043
H    -3.382495  -4.662817  3.611817
H    -1.803382  -4.633170  4.452866
H    -1.914954  -5.227468  2.766273
Ca    1.052178  -1.654225  5.638062
