30
Energy:  -45057.6811893  eV PBE+vdW (tier 2 basis)
C    -0.395920  0.736203  0.204106
C    -0.187999  0.377675  1.641870
O    0.924161  -0.084267  2.022362
H    -1.399857  1.110859  -0.019736
H    -0.197366  -0.151487  -0.412009
H    0.343511  1.494959  -0.085999
N    -1.223814  0.566351  2.480759
C    -1.401510  0.275222  3.919896
C    -0.441111  1.045946  4.838990
O    0.816846  0.998075  4.699965
H    -2.054502  0.946425  2.035820
H    -2.395592  0.688383  4.125360
C    -1.549058  -1.229989  4.288581
C    -0.523689  -2.282513  3.860829
S    1.042167  -2.293731  4.829208
C    1.744100  -3.896795  4.331543
H    -2.500744  -1.549288  3.837978
H    -1.706607  -1.283641  5.376811
H    -0.292521  -2.231966  2.790709
H    -0.972208  -3.266131  4.056168
H    2.709981  -3.990635  4.840773
H    1.879797  -3.962789  3.246921
H    1.081091  -4.694366  4.684920
N    -0.961267  1.751219  5.836040
C    -2.369428  1.960703  6.196678
H    -0.264533  2.199743  6.431394
H    -2.394399  2.607823  7.077687
H    -2.862468  1.016053  6.456073
H    -2.915954  2.467306  5.391580
Ca    2.324892  -0.126347  3.649721
