30
Energy:  -45057.7463042  eV PBE+vdW (tier 2 basis)
C    -0.332474  -0.378747  -0.510312
C    -0.421641  -0.476079  0.979052
O    0.456962  -1.107675  1.629250
H    -1.159801  0.172574  -0.968484
H    -0.297987  -1.393347  -0.930132
H    0.615671  0.107065  -0.779088
N    -1.460207  0.129242  1.584094
C    -1.838240  0.190059  3.012833
C    -0.732946  0.761060  3.925267
O    0.281074  0.091035  4.273792
H    -2.103595  0.604420  0.956982
H    -2.631736  0.948639  3.020657
C    -2.536978  -1.085455  3.573302
C    -2.084209  -2.501372  3.205188
S    -0.662216  -3.294449  4.048392
C    -1.115320  -3.231358  5.805891
H    -3.576083  -1.026287  3.215237
H    -2.610736  -0.969379  4.664536
H    -1.854052  -2.604185  2.136955
H    -2.924983  -3.181512  3.398768
H    -2.083397  -3.728288  5.937284
H    -1.146340  -2.207831  6.192977
H    -0.353899  -3.808870  6.342905
N    -0.932642  1.992783  4.377801
C    -0.040565  2.709572  5.290175
H    -1.762485  2.489711  4.064738
H    0.619205  1.994509  5.786942
H    -0.643970  3.236266  6.037064
H    0.560465  3.441067  4.734739
Ca    1.417121  -1.570169  3.492197
