30
Energy:  -45056.4882797  eV PBE+vdW (tier 2 basis)
 C   -1.11616    0.12509   -0.31431
 C   -0.35684   -0.00471    0.96178
 O    0.88296   -0.30789    0.94893
 H   -2.20088    0.09436   -0.17858
 H   -0.80759   -0.69900   -0.97170
 H   -0.84399    1.05631   -0.83422
 N   -0.96209    0.19682    2.15266
 C   -1.83232    1.34454    2.41290
 C   -0.91007    2.61265    2.40770
 O    0.34325    2.48432    2.13191
 H   -0.39697   -0.09130    2.95397
 H   -2.51913    1.45219    1.56010
 C   -2.66325    1.10593    3.70310
 C   -4.10764    1.62073    3.67336
 S   -4.22209    3.42210    3.97409
 C   -5.82448    3.82285    3.22601
 H   -2.13080    1.49693    4.58356
 H   -2.71747    0.01554    3.83290
 H   -4.68044    1.10921    4.45707
 H   -4.58303    1.38751    2.70966
 H   -5.96736    4.89894    3.37537
 H   -6.62115    3.28435    3.75064
 H   -5.83924    3.59540    2.15471
 N   -1.44906    3.77307    2.65833
 C   -0.72464    5.04290    2.68038
 H   -2.47894    3.78604    2.93193
 H   -0.01196    5.06781    3.51450
 H   -1.45420    5.84652    2.81281
 H   -0.18596    5.19692    1.73809
Ca    2.06939    1.38203    1.57039
