30
Energy:  -45056.3278579  eV PBE+vdW (tier 2 basis)
 C    0.65482   -0.38242    0.23244
 C    0.18272    0.28982    1.47379
 O    0.97096    1.10166    2.10965
 H    0.96143    0.37375   -0.50322
 H   -0.11125   -1.02643   -0.21016
 H    1.54208   -0.98827    0.46477
 N   -1.02640    0.06644    1.93039
 C   -1.62925    0.62204    3.13834
 C   -2.92671   -0.23766    3.28419
 O   -3.34371   -0.78694    2.26156
 H   -1.71634   -0.54489    1.44565
 H   -0.93913    0.47020    3.98139
 C   -1.95568    2.13289    2.94506
 C   -1.84570    3.02636    4.17493
 S   -0.18452    2.96697    4.97510
 C   -0.19198    4.44988    6.02770
 H   -2.98008    2.23210    2.55638
 H   -1.30683    2.53058    2.15133
 H   -2.55785    2.75320    4.96262
 H   -2.03041    4.07036    3.89300
 H    0.75781    4.46558    6.57398
 H   -1.01072    4.35153    6.74907
 H   -0.30789    5.35875    5.42914
 N   -3.55239   -0.31551    4.47095
 C   -3.12883    0.12816    5.79230
 H   -4.41303   -0.86037    4.42560
 H   -3.74365    0.96600    6.14962
 H   -2.07554    0.42794    5.78792
 H   -3.23105   -0.69851    6.50558
Ca    1.87119    2.57479    3.18980
