30
Energy:  -45056.8134540  eV PBE+vdW (tier 2 basis)
 C   -0.20356    0.11560   -0.17422
 C   -0.21068   -0.02646    1.30982
 O    0.88441   -0.09397    1.95786
 H    0.38967   -0.69477   -0.61792
 H    0.30141    1.05768   -0.43306
 H   -1.20553    0.11578   -0.61524
 N   -1.38276   -0.06708    1.95556
 C   -1.53929   -0.04867    3.42424
 C   -1.12458   -1.42416    4.00016
 O    0.09447   -1.54487    4.39321
 H   -2.22725    0.01376    1.39315
 H   -0.77158    0.63709    3.81352
 C   -2.90649    0.55271    3.80129
 C   -2.97980    1.01566    5.25606
 S   -2.65997   -0.37583    6.38572
 C   -2.52818    0.48980    7.97202
 H   -3.72854   -0.13746    3.57632
 H   -3.05447    1.43447    3.15871
 H   -3.97479    1.43654    5.45320
 H   -2.23883    1.80769    5.44283
 H   -2.32838   -0.27932    8.72625
 H   -3.47700    0.98376    8.21060
 H   -1.70733    1.21576    7.96465
 N   -1.87966   -2.51020    3.94789
 C   -3.26643   -2.69523    3.51114
 H   -1.43466   -3.32819    4.36443
 H   -3.40423   -3.75778    3.28910
 H   -3.47187   -2.13180    2.59615
 H   -3.96960   -2.40680    4.30212
Ca    1.93632   -0.87279    3.63210
