30
Energy:  -45056.1290259  eV PBE+vdW (tier 2 basis)
 C    0.17573    1.09171    0.39065
 C    0.23212    0.94558    1.87208
 O    1.10953    1.57306    2.55630
 H   -0.25213    2.06698    0.11128
 H   -0.39404    0.29653   -0.09891
 H    1.20757    1.08813    0.01366
 N   -0.64645    0.15202    2.52393
 C   -2.08727    0.18867    2.27606
 C   -2.60464    1.56000    2.79156
 O   -1.79772    2.40217    3.32634
 H   -0.39850   -0.02800    3.49893
 H   -2.25884    0.15101    1.18855
 C   -2.79120   -1.01750    2.93582
 C   -2.36954   -2.36193    2.32253
 S   -3.34808   -3.75576    2.94282
 C   -2.52729   -4.11407    4.51924
 H   -3.87841   -0.90968    2.81823
 H   -2.60147   -1.00136    4.02145
 H   -1.29897   -2.56194    2.47629
 H   -2.54529   -2.34927    1.23624
 H   -3.04185   -4.99449    4.92179
 H   -2.63140   -3.29790    5.24430
 H   -1.47196   -4.36936    4.36405
 N   -3.88667    1.83889    2.66385
 C   -4.52495    3.08365    3.10674
 H   -4.48399    1.13334    2.23860
 H   -4.08605    3.94356    2.58727
 H   -4.40645    3.20799    4.18949
 H   -5.58963    3.02678    2.86710
Ca    0.18465    3.07292    3.79335
