30
Energy:  -45057.1765937  eV PBE+vdW (tier 2 basis)
 C    0.51854    0.15974    3.25103
 C   -0.65584    0.80428    2.60189
 O   -0.88462    2.04300    2.73870
 H    1.43134    0.68399    2.93620
 H    0.61262   -0.90599    3.01893
 H    0.44125    0.28855    4.33976
 N   -1.48918    0.04779    1.84717
 C   -2.62017    0.67828    1.18570
 C   -3.83925    0.86354    2.10791
 O   -4.02801    2.04436    2.54722
 H   -1.29431   -0.94442    1.74128
 H   -2.27581    1.71203    1.08670
 C   -2.88210    0.36248   -0.29560
 C   -2.23665    1.46097   -1.17166
 S   -2.59217    3.20865   -0.70909
 C   -4.37895    3.35133   -1.02124
 H   -3.96258    0.31468   -0.48417
 H   -2.47190   -0.61221   -0.59715
 H   -2.53010    1.35462   -2.22352
 H   -1.13940    1.40294   -1.13600
 H   -4.63484    4.41026   -0.89774
 H   -4.97603    2.74367   -0.33296
 H   -4.57890    3.06825   -2.06089
 N   -4.64809   -0.12671    2.44009
 C   -4.58089   -1.53202    2.04354
 H   -5.40539    0.13527    3.07437
 H   -3.80317   -1.68558    1.29103
 H   -5.54271   -1.83803    1.61548
 H   -4.36775   -2.15850    2.91864
Ca   -2.42897    3.55158    2.29439
