30
Energy:  -45056.2991411  eV PBE+vdW (tier 2 basis)
 C    0.21400    2.15355    0.07390
 C   -0.01578    1.26586    1.24599
 O    0.98703    0.67917    1.82225
 H    0.68517    1.57257   -0.73166
 H    0.91448    2.95402    0.34864
 H   -0.71279    2.59791   -0.30194
 N   -1.23100    1.06819    1.70358
 C   -1.60900    0.21328    2.82610
 C   -3.16046    0.13216    2.68952
 O   -3.72075    1.09923    2.17349
 H   -2.05930    1.55760    1.31905
 H   -1.12866   -0.76891    2.70445
 C   -1.19894    0.87889    4.17326
 C   -0.84957   -0.05633    5.32337
 S    0.51377   -1.22973    4.91285
 C    1.09746   -1.76407    6.55067
 H   -2.01712    1.53298    4.50984
 H   -0.34998    1.55299    3.98596
 H   -1.69738   -0.68008    5.63284
 H   -0.52037    0.52778    6.19168
 H    1.89202   -2.50092    6.38772
 H    0.26368   -2.25442    7.06521
 H    1.47030   -0.91649    7.13402
 N   -3.80711   -0.94478    3.17348
 C   -3.25692   -2.24634    3.54485
 H   -4.81812   -0.88063    3.06782
 H   -4.09416   -2.92093    3.74527
 H   -2.65214   -2.20290    4.45953
 H   -2.66283   -2.68799    2.73314
Ca    2.31508   -0.17377    3.11623
