30
Energy:  -45056.4889523  eV PBE+vdW (tier 2 basis)
 C   -0.16953    0.10250   -0.14965
 C    0.03136    0.14092    1.32708
 O    1.20839    0.16266    1.82001
 H    0.03259    1.08875   -0.59491
 H   -1.17224   -0.22331   -0.44097
 H    0.57479   -0.58692   -0.57028
 N   -1.02450    0.15372    2.17017
 C   -2.17408    1.04073    1.98274
 C   -1.66598    2.49332    2.28519
 O   -0.41324    2.68931    2.52283
 H   -0.77035   -0.00254    3.14766
 H   -2.44582    1.02097    0.91657
 C   -3.38225    0.54068    2.81962
 C   -4.76441    0.71806    2.17781
 S   -5.42325    2.41558    2.36390
 C   -6.61306    2.50155    0.99831
 H   -3.36306    0.98093    3.82832
 H   -3.23069   -0.54024    2.95105
 H   -4.73208    0.46336    1.10865
 H   -5.46802    0.02857    2.66078
 H   -7.39461    1.74772    1.14288
 H   -7.06767    3.49699    1.05426
 H   -6.12354    2.37489    0.02673
 N   -2.52769    3.47110    2.26211
 C   -2.20588    4.87483    2.51456
 H   -3.55358    3.22216    2.10549
 H   -1.56781    5.27480    1.71661
 H   -1.69619    4.98898    3.47858
 H   -3.14369    5.43696    2.53649
Ca    1.60725    2.07325    2.73747
