30
Energy:  -45057.1576879  eV PBE+vdW (tier 2 basis)
C    0.072991  0.032264  0.559551
C    -0.120333  0.206007  2.028239
O    0.762270  0.804157  2.726936
H    1.031451  -0.468338  0.369565
H    0.137312  1.028004  0.097043
H    -0.732775  -0.531851  0.078893
N    -1.237078  -0.264141  2.594092
C    -1.671543  -0.043568  3.984522
C    -0.875316  -0.950907  4.952197
O    0.296577  -0.548352  5.302102
H    -1.893880  -0.745087  1.983764
H    -1.334287  0.969537  4.252895
C    -3.216468  -0.006485  4.080942
C    -4.068488  -1.087014  3.395901
S    -4.145697  -2.747571  4.153759
C    -5.268013  -2.456100  5.552295
H    -3.513940  0.959226  3.643419
H    -3.480574  0.064966  5.145511
H    -3.773963  -1.268716  2.350464
H    -5.099096  -0.712737  3.329893
H    -4.869753  -1.726482  6.266419
H    -5.379293  -3.424440  6.053615
H    -6.247827  -2.137160  5.179774
N    -1.377922  -2.071352  5.395313
C    -0.685298  -2.974977  6.312997
H    -2.332096  -2.372190  5.031749
H    0.196762  -3.416376  5.832005
H    -1.378048  -3.774723  6.588873
H    -0.369707  -2.437663  7.214853
Ca    1.808028  0.722071  4.567417
