30
Energy:  -45056.2716121  eV PBE+vdW (tier 2 basis)
 C    0.24860   -0.25001   -0.04085
 C    0.11507   -0.18297    1.44205
 O    1.15147    0.09584    2.16941
 H    0.62538    0.70861   -0.42283
 H   -0.69924   -0.48522   -0.53460
 H    0.98887   -1.01901   -0.30264
 N   -1.04585   -0.40555    2.00528
 C   -1.38091   -0.46024    3.42328
 C   -2.78458   -1.16655    3.37438
 O   -3.33949   -1.24727    2.27486
 H   -1.90072   -0.67507    1.46042
 H   -0.64797   -1.09326    3.94676
 C   -1.47160    0.94665    4.09399
 C   -0.67196    1.12940    5.39113
 S    0.99437    1.90342    5.32063
 C    0.64008    3.61769    4.81980
 H   -2.52467    1.15319    4.33144
 H   -1.19989    1.70979    3.35351
 H   -0.49189    0.18140    5.91439
 H   -1.21501    1.77109    6.09791
 H    0.15930    3.67360    3.83792
 H    1.59555    4.15552    4.80681
 H    0.00090    4.06797    5.58799
 N   -3.33251   -1.62590    4.51028
 C   -2.78697   -1.63541    5.86049
 H   -4.26042   -2.02392    4.37646
 H   -2.94377   -0.67899    6.38023
 H   -1.71880   -1.88794    5.85757
 H   -3.29722   -2.41538    6.43406
Ca    2.61485    0.77324    3.40292
