30
Energy:  -45056.7951320  eV PBE+vdW (tier 2 basis)
C    2.254886  0.106152  1.600443
C    1.273544  -0.442194  2.579466
O    1.619972  -0.656593  3.788783
H    2.567091  1.103161  1.945350
H    1.854320  0.191059  0.585129
H    3.155959  -0.520687  1.586311
N    0.023602  -0.690965  2.176728
C    -1.123088  -1.045287  3.035332
C    -1.055509  -2.535225  3.436363
O    -0.222546  -2.891895  4.338294
H    -0.190488  -0.500540  1.199726
H    -0.997801  -0.491600  3.980817
C    -2.435317  -0.588775  2.377841
C    -2.584452  0.941032  2.299046
S    -4.210949  1.470560  1.692108
C    -4.020734  1.250434  -0.098139
H    -3.275703  -0.976836  2.970771
H    -2.525172  -1.021949  1.365992
H    -1.797872  1.404798  1.683969
H    -2.502605  1.373974  3.307026
H    -3.889155  0.200585  -0.387866
H    -3.203894  1.869906  -0.488689
H    -4.961360  1.605474  -0.535569
N    -1.864273  -3.396411  2.855901
C    -1.943654  -4.831775  3.132629
H    -2.518073  -3.022163  2.169855
H    -2.969125  -5.085686  3.426121
H    -1.254692  -5.085720  3.940343
H    -1.681359  -5.394041  2.228089
Ca    1.468446  -2.076790  5.340828
