30
Energy:  -45057.0491374  eV PBE+vdW (tier 2 basis)
C    1.190398  -2.893289  2.082991
C    0.539265  -1.617618  2.499488
O    1.247434  -0.597461  2.784535
H    1.918649  -3.202915  2.843919
H    1.756524  -2.708790  1.158264
H    0.479250  -3.706928  1.907397
N    -0.796088  -1.560306  2.555846
C    -1.606396  -0.350646  2.774458
C    -1.596429  0.063121  4.265447
O    -0.574859  0.723167  4.686617
H    -1.304465  -2.408995  2.318411
H    -1.065123  0.472683  2.282712
C    -2.968210  -0.451123  2.045637
C    -3.795791  -1.745093  2.088154
S    -4.570990  -2.210862  3.684770
C    -3.614645  -3.676403  4.174520
H    -2.758750  -0.251049  0.983322
H    -3.585846  0.393145  2.382890
H    -3.249951  -2.622529  1.709812
H    -4.627948  -1.609185  1.384989
H    -4.080687  -4.044041  5.096339
H    -2.561241  -3.446658  4.382772
H    -3.701919  -4.458046  3.411421
N    -2.599198  -0.229407  5.049168
C    -2.685321  0.154555  6.457528
H    -3.378798  -0.830341  4.650390
H    -3.706839  -0.034364  6.799252
H    -2.451319  1.218227  6.576881
H    -1.987797  -0.436330  7.065515
Ca    1.436091  1.025482  4.136554
