30
Energy:  -45056.4473892  eV PBE+vdW (tier 2 basis)
 C   -0.54428    1.38929   -0.54306
 C   -0.65647    1.24779    0.93407
 O    0.28597    1.70120    1.70208
 H    0.36284    0.87292   -0.88769
 H   -0.43239    2.45053   -0.80441
 H   -1.41141    0.97774   -1.06866
 N   -1.70337    0.66480    1.46963
 C   -1.94161    0.42545    2.88740
 C   -3.15449   -0.55810    2.87166
 O   -3.84531   -0.59368    1.85337
 H   -2.49969    0.29808    0.90971
 H   -1.05164   -0.05537    3.32466
 C   -2.28201    1.74815    3.63157
 C   -1.86156    1.81649    5.09402
 S   -0.04542    1.58934    5.33686
 C    0.23730    2.30246    6.98588
 H   -3.36881    1.91394    3.58911
 H   -1.83717    2.59241    3.08451
 H   -2.34351    1.04376    5.70744
 H   -2.12133    2.79552    5.51532
 H    1.29893    2.16568    7.22059
 H   -0.35829    1.73464    7.70919
 H   -0.02959    3.36358    7.00850
 N   -3.38822   -1.25322    3.99657
 C   -4.51596   -2.18018    4.12913
 H   -2.67555   -1.27124    4.71805
 H   -5.31625   -1.85650    3.45809
 H   -4.87559   -2.16577    5.16288
 H   -4.21765   -3.20159    3.86018
Ca    1.44844    2.46257    3.19393
