30
Energy:  -45056.9123852  eV PBE+vdW (tier 2 basis)
 C   -0.95671   -1.02861    0.56937
 C   -0.68269   -0.15017    1.74493
 O    0.24950   -0.45548    2.55902
 H   -0.03738   -1.15685   -0.01707
 H   -1.75235   -0.65311   -0.08204
 H   -1.23757   -2.02553    0.93928
 N   -1.43526    0.94245    1.91167
 C   -1.52940    1.87970    3.04993
 C   -0.30181    2.75970    3.24811
 O    0.85556    2.25277    3.46087
 H   -2.14708    1.08500    1.19899
 H   -2.38311    2.52339    2.78428
 C   -1.95518    1.21744    4.37795
 C   -3.41230    0.72087    4.32131
 S   -4.62788    1.98768    3.84970
 C   -4.83558    2.89832    5.40785
 H   -1.85134    1.96894    5.17493
 H   -1.28701    0.38172    4.64101
 H   -3.69219    0.28995    5.29157
 H   -3.52337   -0.08149    3.57843
 H   -5.58470    3.67167    5.20240
 H   -3.91219    3.38394    5.74540
 H   -5.22369    2.23270    6.18718
 N   -0.44387    4.07329    3.27900
 C   -1.64562    4.88666    3.04876
 H    0.41875    4.58423    3.47322
 H   -2.53768    4.40907    3.46872
 H   -1.79100    5.06539    1.97581
 H   -1.49883    5.84937    3.54723
Ca    1.83868    0.39309    3.64232
