30
Energy:  -45057.7820793  eV PBE+vdW (tier 2 basis)
 C   -0.12058   -0.47817   -0.01885
 C   -0.29954   -0.28227    1.45335
 O    0.70831   -0.12799    2.19903
 H   -1.05829   -0.62940   -0.56318
 H    0.53514   -1.34414   -0.18302
 H    0.39875    0.39623   -0.43463
 N   -1.55771   -0.27910    1.93038
 C   -2.07872   -0.15430    3.31102
 C   -1.67545    1.15918    4.00767
 O   -0.48320    1.42882    4.32976
 H   -2.27747   -0.41284    1.22551
 H   -3.16244   -0.07479    3.15373
 C   -1.93069   -1.42890    4.19162
 C   -0.60335   -2.17673    4.33842
 S    0.57889   -1.44360    5.54417
 C    1.78456   -2.79524    5.71509
 H   -2.62746   -2.16072    3.75621
 H   -2.34233   -1.19089    5.18421
 H   -0.09944   -2.33440    3.37769
 H   -0.83410   -3.16677    4.75426
 H    2.55211   -2.44625    6.41537
 H    2.24045   -3.06030    4.75551
 H    1.27858   -3.66311    6.15257
 N   -2.66180    1.99409    4.30571
 C   -2.48069    3.25854    5.02365
 H   -3.60497    1.75503    4.01335
 H   -3.44943    3.57291    5.42122
 H   -2.09963    4.03375    4.34658
 H   -1.77445    3.11855    5.84801
Ca    1.51398    0.67243    4.02296
