30
Energy:  -45057.2622329  eV PBE+vdW (tier 2 basis)
 C    0.30477    1.11630    1.21500
 C   -0.30133    0.39836    2.36996
 O    0.24230    0.41565    3.51447
 H    1.30589    0.70505    1.02355
 H    0.44449    2.17214    1.48426
 H   -0.29326    1.04997    0.30036
 N   -1.45997   -0.28224    2.18745
 C   -2.06143   -0.95119    3.32894
 C   -1.42808   -2.32867    3.61480
 O   -0.63175   -2.39060    4.60668
 H   -1.89542   -0.28025    1.26904
 H   -1.69622   -0.33687    4.16203
 C   -3.56118   -0.82294    3.59346
 C   -3.81464   -1.04056    5.10447
 S   -2.75384   -0.11548    6.29273
 C   -3.25867    1.61339    6.03802
 H   -4.18358   -1.53685    3.03806
 H   -3.87968    0.18497    3.29252
 H   -3.66569   -2.09040    5.39343
 H   -4.85101   -0.78694    5.36000
 H   -2.72915    2.20787    6.79143
 H   -4.33542    1.69343    6.22490
 H   -3.01235    1.98119    5.03663
 N   -1.67518   -3.40191    2.88372
 C   -2.51505   -3.54647    1.69571
 H   -1.17690   -4.24024    3.19036
 H   -1.90529   -3.91019    0.85979
 H   -2.96532   -2.59175    1.41519
 H   -3.31505   -4.27103    1.89113
Ca    0.08946   -0.53131    5.51537
