30
Energy:  -45056.4305772  eV PBE+vdW (tier 2 basis)
 C    0.30391    1.46844    2.14555
 C   -0.00222    0.01166    2.25655
 O    0.94481   -0.83284    2.39527
 H   -0.33474    2.06476    2.80716
 H    0.13335    1.82653    1.11812
 H    1.35458    1.63518    2.39972
 N   -1.27195   -0.45447    2.20029
 C   -2.26137   -0.03327    1.19432
 C   -1.64381   -0.33040   -0.21111
 O   -0.51607   -0.95164   -0.29405
 H   -1.33933   -1.43854    2.46060
 H   -3.08907   -0.75070    1.30928
 C   -2.85455    1.38576    1.41589
 C   -4.37391    1.49194    1.20749
 S   -5.00517    1.39347   -0.50329
 C   -4.65145    3.06562   -1.12095
 H   -2.32748    2.13526    0.81000
 H   -2.66388    1.64082    2.46798
 H   -4.72824    2.44102    1.63070
 H   -4.89609    0.69333    1.75360
 H   -5.01601    3.09043   -2.15427
 H   -3.58087    3.30105   -1.11160
 H   -5.21078    3.80138   -0.53262
 N   -2.31785    0.02749   -1.26866
 C   -1.91422   -0.24808   -2.64661
 H   -3.27062    0.49057   -1.10901
 H   -2.69375    0.13581   -3.31058
 H   -1.80458   -1.32699   -2.81165
 H   -0.96614    0.25175   -2.87967
Ca    1.21357   -1.87319    0.52642
