30
Energy:  -45057.0934193  eV PBE+vdW (tier 2 basis)
C    1.704639  -0.209272  1.124200
C    0.939367  -0.415104  2.388591
O    1.496216  -0.969947  3.392276
H    2.136604  -1.161818  0.791389
H    2.547879  0.464122  1.338042
H    1.103949  0.220549  0.316174
N    -0.328754  0.003984  2.446997
C    -1.204135  0.091754  3.636526
C    -1.789074  -1.300954  3.966670
O    -0.970068  -2.194629  4.399481
H    -0.705798  0.421008  1.597892
H    -0.554720  0.332174  4.494353
C    -2.159459  1.275831  3.394521
C    -3.222466  1.543129  4.477002
S    -4.842327  0.986534  3.835643
C    -5.864418  0.986288  5.331747
H    -2.655009  1.151773  2.416313
H    -1.518912  2.162701  3.292706
H    -3.276537  2.614620  4.700534
H    -2.997601  1.020942  5.419347
H    -5.473748  0.298480  6.090314
H    -6.862165  0.658582  5.018455
H    -5.936887  2.003243  5.732860
N    -3.062033  -1.559837  3.816338
C    -3.664859  -2.858658  4.118120
H    -3.742468  -0.764917  3.635684
H    -3.246002  -3.634032  3.466119
H    -4.740482  -2.779742  3.937928
H    -3.489726  -3.138526  5.164527
Ca    1.077994  -2.530281  4.755247
