30
Energy:  -45056.0590813  eV PBE+vdW (tier 2 basis)
 C   -0.89431    1.05318   -1.66446
 C   -0.68680    1.13200   -0.19299
 O    0.42533    1.60655    0.27086
 H   -1.79215    0.49742   -1.94871
 H   -0.01334    0.62399   -2.15734
 H   -0.99038    2.08341   -2.04257
 N   -1.59701    0.75663    0.68525
 C   -2.72757   -0.15463    0.59738
 C   -3.46453    0.10504    1.94262
 O   -2.76369    0.44022    2.91224
 H   -1.45498    0.96278    1.69363
 H   -3.35575    0.08239   -0.26938
 C   -2.27407   -1.66051    0.56562
 C   -0.78582   -1.99258    0.42816
 S    0.39316   -1.62198    1.80768
 C   -0.47524   -2.05192    3.34428
 H   -2.75820   -2.14908   -0.29268
 H   -2.67579   -2.17061    1.45105
 H   -0.31897   -1.52519   -0.44937
 H   -0.68946   -3.07714    0.28654
 H    0.27024   -1.99440    4.14619
 H   -0.81591   -3.09059    3.26646
 H   -1.30263   -1.36051    3.53580
 N   -4.78075   -0.11119    1.96755
 C   -5.60678    0.01519    3.16952
 H   -5.25045   -0.33869    1.09596
 H   -6.36801    0.78964    3.01913
 H   -4.96329    0.29701    4.00656
 H   -6.10117   -0.93865    3.38825
Ca    1.72446    0.81322    1.68601
