30
Energy:  -45056.1729903  eV PBE+vdW (tier 2 basis)
 C    0.09004   -0.31461    0.31692
 C   -0.03146    0.26193    1.67021
 O    0.94151    0.89361    2.22014
 H   -0.75077    0.10945   -0.28150
 H   -0.06307   -1.40345    0.30496
 H    1.06408   -0.07705   -0.11824
 N   -1.19969    0.18412    2.35919
 C   -1.97177   -1.05168    2.55423
 C   -1.00290   -2.12294    3.14384
 O    0.14960   -1.78303    3.57987
 H   -1.22311    0.81435    3.16026
 H   -2.66182   -0.81185    3.38034
 C   -2.85747   -1.52543    1.38300
 C   -3.81754   -0.44031    0.85852
 S   -3.14189    0.71491   -0.37572
 C   -3.37112   -0.23475   -1.90537
 H   -3.48196   -2.35060    1.76434
 H   -2.25704   -1.94531    0.56537
 H   -4.19113    0.18282    1.68358
 H   -4.69648   -0.92311    0.41236
 H   -2.99236    0.40097   -2.71409
 H   -4.43656   -0.42607   -2.07725
 H   -2.80896   -1.17655   -1.90335
 N   -1.41351   -3.37153    3.23028
 C   -0.64908   -4.46465    3.84206
 H   -2.33342   -3.59141    2.85602
 H   -0.40417   -4.22059    4.88213
 H    0.27489   -4.64502    3.28002
 H   -1.26405   -5.36771    3.81975
Ca    1.74179   -0.33202    3.76380
