30
Energy:  -45057.0991034  eV PBE+vdW (tier 2 basis)
 C    1.21002    1.33215    1.90879
 C   -0.09843    0.69452    2.23412
 O   -0.45487    0.55273    3.45796
 H    1.21987    2.34528    2.33572
 H    1.39363    1.39285    0.83159
 H    2.02546    0.77626    2.39039
 N   -0.87535    0.29225    1.23418
 C   -2.27467   -0.15569    1.33468
 C   -2.34957   -1.61450    1.83832
 O   -2.09697   -1.85293    3.06696
 H   -0.55734    0.49882    0.25042
 H   -2.75352    0.42165    2.14350
 C   -3.03283    0.17150    0.02910
 C   -2.36996   -0.20749   -1.30860
 S   -1.06717    1.01163   -1.73543
 C   -0.26136    0.19691   -3.13918
 H   -3.22421    1.25490    0.02665
 H   -4.02966   -0.28923    0.09369
 H   -3.12839   -0.20056   -2.10187
 H   -1.90971   -1.20946   -1.30140
 H   -0.97757    0.07375   -3.95922
 H    0.17553   -0.76643   -2.85382
 H    0.53506    0.87561   -3.46489
 N   -2.70021   -2.58796    1.02282
 C   -2.83134   -3.99658    1.40819
 H   -2.88721   -2.34421    0.05336
 H   -3.32848   -4.07086    2.38045
 H   -1.84361   -4.47110    1.46765
 H   -3.43179   -4.50803    0.65125
Ca   -1.29415   -0.84164    4.76836
