30
Energy:  -45057.7747406  eV PBE+vdW (tier 2 basis)
C    -0.637352  0.212414  -0.739531
C    -0.369465  -0.037146  0.708420
O    0.641992  -0.706881  1.069947
H    0.239653  0.692459  -1.193434
H    -1.522851  0.829354  -0.923354
H    -0.765510  -0.756361  -1.243281
N    -1.239638  0.457328  1.607485
C    -1.254283  0.239627  3.067790
C    -0.113978  1.016451  3.757929
O    1.100201  0.700087  3.597661
H    -2.019899  0.986247  1.227709
H    -2.190257  0.708581  3.395438
C    -1.354507  -1.279280  3.429064
C    -0.654545  -1.754260  4.711391
S    1.009992  -2.507069  4.517020
C    0.620256  -4.141325  3.819445
H    -1.008967  -1.874113  2.576108
H    -2.426220  -1.499725  3.520520
H    -1.254561  -2.526109  5.209626
H    -0.514817  -0.955367  5.451818
H    1.576783  -4.656796  3.674034
H    0.086683  -4.071942  2.865485
H    0.029471  -4.701567  4.552667
N    -0.472365  2.026095  4.539954
C    0.449291  2.887156  5.283205
H    -1.463332  2.241741  4.615708
H    1.440729  2.429118  5.295004
H    0.081627  3.006146  6.308279
H    0.506479  3.873749  4.805905
Ca    2.179389  -0.873613  2.569988
