30
Energy:  -45057.0004868  eV PBE+vdW (tier 2 basis)
 C   -1.14688    0.83504   -0.56812
 C   -0.92857    1.08120    0.88587
 O   -0.32858    2.13598    1.27723
 H   -1.73605    1.66845   -0.97725
 H   -1.66518   -0.10658   -0.77635
 H   -0.18169    0.84184   -1.09220
 N   -1.37064    0.18312    1.77220
 C   -1.39523    0.35543    3.23425
 C   -0.00603    0.10225    3.83851
 O    0.87683    1.02217    3.75070
 H   -1.83857   -0.64110    1.39980
 H   -1.61492    1.42453    3.41654
 C   -2.56577   -0.42641    3.84659
 C   -3.92363    0.20238    3.50507
 S   -3.95338    1.93360    4.08637
 C   -5.56003    2.47758    3.44635
 H   -2.44500   -0.42482    4.94006
 H   -2.55650   -1.48028    3.51865
 H   -4.71683   -0.36874    4.00413
 H   -4.12436    0.17349    2.42309
 H   -5.67066    3.52276    3.75585
 H   -6.36781    1.88792    3.89383
 H   -5.59675    2.41869    2.35276
 N    0.25686   -1.03525    4.44871
 C    1.53907   -1.36980    5.07818
 H   -0.48697   -1.72742    4.49727
 H    1.88656   -0.52738    5.68532
 H    2.29093   -1.60129    4.31342
 H    1.39275   -2.24457    5.71682
Ca    1.04952    2.86990    2.69321
