30
Energy:  -45057.0389840  eV PBE+vdW (tier 2 basis)
 C    0.82613   -0.25200    1.43393
 C   -0.01196    0.17908    2.58356
 O    0.48419    0.74469    3.59959
 H    1.51033    0.54843    1.12837
 H    0.24998   -0.61921    0.57967
 H    1.45825   -1.08042    1.79501
 N   -1.36227   -0.03927    2.58273
 C   -2.26524    0.27582    1.47967
 C   -1.86419    1.64653    0.87303
 O   -1.25313    2.49832    1.58638
 H   -1.77780    0.04988    3.50929
 H   -2.19828   -0.48929    0.69241
 C   -3.73704    0.30094    1.99901
 C   -3.99484    0.69305    3.46004
 S   -3.44651    2.37568    3.98139
 C   -4.09031    2.42649    5.68175
 H   -4.14666   -0.71322    1.89047
 H   -4.32695    0.94258    1.33145
 H   -3.58909   -0.04488    4.16885
 H   -5.08267    0.69114    3.61250
 H   -3.81939    3.40522    6.09398
 H   -3.66717    1.62647    6.29795
 H   -5.18283    2.35174    5.64432
 N   -2.19961    1.87449   -0.38428
 C   -1.97735    3.12383   -1.11688
 H   -2.66294    1.12241   -0.89126
 H   -1.41948    3.81704   -0.48423
 H   -2.94212    3.56734   -1.39144
 H   -1.40684    2.91328   -2.02883
Ca   -0.62744    2.67281    3.68284
