30
Energy:  -45056.8241365  eV PBE+vdW (tier 2 basis)
 C   -0.36786    0.49990   -0.31552
 C   -0.49163    0.34491    1.16420
 O    0.28624    0.98631    1.93368
 H   -0.48697    1.56071   -0.57551
 H   -1.09068   -0.09423   -0.88358
 H    0.64978    0.21270   -0.61543
 N   -1.43610   -0.48417    1.63524
 C   -1.78645   -0.88556    3.02226
 C   -2.23330    0.30647    3.88802
 O   -1.39950    1.16979    4.30530
 H   -1.99151   -0.94389    0.91837
 H   -2.67254   -1.51717    2.87552
 C   -0.75864   -1.81953    3.72001
 C    0.59959   -1.27513    4.19182
 S    1.78463   -2.53164    4.76251
 C    1.01907   -3.11545    6.29957
 H   -0.56349   -2.64944    3.02595
 H   -1.27878   -2.26116    4.58255
 H    0.45606   -0.55431    5.02877
 H    1.14268   -0.81771    3.34634
 H    1.74826   -3.81635    6.72396
 H    0.08583   -3.66013    6.12057
 H    0.87082   -2.29695    7.01478
 N   -3.51505    0.36945    4.21161
 C   -4.13042    1.39412    5.05738
 H   -4.13388   -0.34752    3.84004
 H   -4.73094    0.90593    5.83319
 H   -4.78204    2.03417    4.44936
 H   -3.34820    1.99912    5.52029
Ca    0.66094    1.62066    3.92031
