30
Energy:  -45057.2128629  eV PBE+vdW (tier 2 basis)
 C    0.49108    2.40443    1.00158
 C    0.28608    1.11530    1.71676
 O    1.08055    0.14088    1.56110
 H    1.49330    2.78689    1.23937
 H   -0.25659    3.16358    1.25290
 H    0.47207    2.22069   -0.08169
 N   -0.77230    0.98770    2.55661
 C   -0.92230   -0.25955    3.28771
 C   -1.59427   -1.36510    2.44475
 O   -0.83445   -2.28534    2.00322
 H   -1.38808    1.78238    2.70604
 H    0.11992   -0.58919    3.34111
 C   -1.26388   -0.24250    4.78212
 C   -0.74540   -1.54896    5.41160
 S    1.04926   -1.84100    5.04784
 C    1.33054   -3.40790    5.92699
 H   -2.33720   -0.15305    4.99428
 H   -0.76393    0.62280    5.24004
 H   -1.31156   -2.42485    5.06583
 H   -0.82776   -1.49704    6.50385
 H    2.38429   -3.66807    5.77640
 H    0.68364   -4.20377    5.54389
 H    1.15701   -3.24616    6.99642
 N   -2.88821   -1.37114    2.17309
 C   -3.92326   -0.40712    2.54352
 H   -3.18932   -2.15777    1.59404
 H   -4.69266   -0.90123    3.14935
 H   -4.39085   -0.00672    1.63584
 H   -3.50192    0.42101    3.11742
Ca    1.33840   -2.00114    2.09904
