30
Energy:  -45056.9091882  eV PBE+vdW (tier 2 basis)
 C    1.55885    1.02829    0.96435
 C    0.43801    1.41789    1.86619
 O    0.64575    1.54796    3.11979
 H    2.39615    1.72667    1.09443
 H    1.27242    0.99541   -0.09115
 H    1.91778    0.03428    1.26860
 N   -0.76865    1.61749    1.32743
 C   -2.07807    1.75707    2.00423
 C   -2.16854    3.02167    2.86660
 O   -1.63638    3.06635    4.02722
 H   -0.85867    1.32377    0.35246
 H   -2.78698    1.87465    1.17607
 C   -2.49948    0.49100    2.78985
 C   -3.04007   -0.62050    1.88567
 S   -1.81794   -1.14414    0.63088
 C   -2.79167   -2.36586   -0.28685
 H   -3.28914    0.76570    3.50524
 H   -1.64760    0.11290    3.37664
 H   -3.95584   -0.28197    1.37787
 H   -3.30617   -1.48597    2.50785
 H   -3.07904   -3.19584    0.36825
 H   -3.67524   -1.90524   -0.74236
 H   -2.13453   -2.74552   -1.07708
 N   -2.85486    4.06285    2.42855
 C   -3.54600    4.24333    1.14410
 H   -2.91824    4.83546    3.09309
 H   -2.89136    3.98790    0.30417
 H   -3.81433    5.29981    1.05607
 H   -4.46743    3.64882    1.10551
Ca    0.07631    2.27069    4.99421
