30
Energy:  -45056.7250840  eV PBE+vdW (tier 2 basis)
 C   -1.59478    1.69663   -0.73492
 C   -1.84304    0.98537    0.55431
 O   -1.48521   -0.22357    0.68679
 H   -1.93803    2.73603   -0.73942
 H   -2.09899    1.14712   -1.54228
 H   -0.51924    1.66944   -0.95737
 N   -2.45044    1.66407    1.54114
 C   -2.88179    1.25049    2.90037
 C   -1.70461    0.81273    3.78431
 O   -1.09477   -0.28379    3.56812
 H   -2.69433    2.62225    1.30483
 H   -3.27016    2.18276    3.32494
 C   -4.08897    0.27185    2.95059
 C   -3.92604   -1.19863    2.53347
 S   -5.47391   -2.14823    2.42444
 C   -5.97550   -2.27058    4.16310
 H   -4.87782    0.71306    2.32477
 H   -4.46875    0.30375    3.98255
 H   -3.26126   -1.73231    3.24982
 H   -3.54602   -1.26171    1.49885
 H   -6.26619   -1.30160    4.58292
 H   -5.20352   -2.75347    4.77482
 H   -6.86111   -2.91768    4.15174
 N   -1.34636    1.56595    4.81233
 C   -1.89241    2.85646    5.25522
 H   -0.58279    1.17711    5.36751
 H   -2.93136    2.75476    5.59196
 H   -1.81886    3.61136    4.46368
 H   -1.29249    3.19777    6.10326
Ca   -1.10938   -1.79815    2.05585
