30
Energy:  -45056.8167024  eV PBE+vdW (tier 2 basis)
 C    0.57257    0.03337    0.22926
 C    0.14412    0.59309    1.54274
 O    0.91488    1.37608    2.19319
 H    1.54138   -0.47131    0.33845
 H    0.72699    0.86896   -0.46951
 H   -0.15332   -0.66248   -0.20363
 N   -1.06268    0.27592    2.02091
 C   -1.73276    0.87324    3.19284
 C   -1.15371    0.28368    4.49871
 O   -0.01151    0.69031    4.90317
 H   -1.63103   -0.35263    1.45586
 H   -1.45958    1.94101    3.21345
 C   -3.25325    0.75234    3.03597
 C   -3.82690    1.59349    1.89066
 S   -5.59658    1.18946    1.75934
 C   -6.10753    2.34277    0.45930
 H   -3.73109    1.07351    3.97325
 H   -3.53363   -0.30556    2.87636
 H   -3.32418    1.37760    0.93382
 H   -3.69606    2.66519    2.10694
 H   -7.17860    2.16253    0.31220
 H   -5.58401    2.14165   -0.48264
 H   -5.96463    3.38354    0.77205
 N   -1.85121   -0.61065    5.16662
 C   -1.45782   -1.25419    6.42139
 H   -2.76254   -0.86239    4.78658
 H   -2.24386   -1.09419    7.16866
 H   -0.51926   -0.82252    6.77400
 H   -1.33488   -2.33193    6.25781
Ca    1.65481    1.76307    4.12747
