30
Energy:  -45056.0414857  eV PBE+vdW (tier 2 basis)
 C    0.02164    0.26075   -0.06931
 C    0.00550    0.04607    1.40408
 O    1.09414   -0.12604    2.04834
 H    0.44634    1.24567   -0.31560
 H   -0.96330    0.16063   -0.53369
 H    0.70390   -0.48333   -0.50485
 N   -1.15746    0.03301    2.09199
 C   -2.19566    1.05046    1.93223
 C   -1.59004    2.40269    2.40314
 O   -0.43070    2.42291    2.96085
 H   -1.07472   -0.31711    3.04871
 H   -2.44997    1.14111    0.86577
 C   -3.46417    0.65096    2.71395
 C   -3.28082    0.54535    4.23113
 S   -4.94363    0.47039    4.96409
 C   -4.56214   -0.04055    6.65843
 H   -3.82225   -0.30302    2.30336
 H   -4.25103    1.38517    2.49653
 H   -2.73217    1.41732    4.63145
 H   -2.73091   -0.36871    4.51293
 H   -5.53024   -0.10526    7.16875
 H   -3.94401    0.70352    7.17454
 H   -4.08905   -1.02957    6.68008
 N   -2.24208    3.53533    2.22605
 C   -3.53254    3.77924    1.57067
 H   -1.77472    4.35760    2.61056
 H   -3.47696    4.74784    1.06324
 H   -4.34033    3.81291    2.31250
 H   -3.74693    3.00931    0.82422
Ca    1.46223    1.52059    3.38807
