30
Energy:  -45057.1887364  eV PBE+vdW (tier 2 basis)
C    0.032216  -2.592799  0.345989
C    -0.324573  -1.817310  1.565763
O    -0.316626  -0.549902  1.564368
H    -0.610002  -2.267660  -0.483818
H    -0.061449  -3.675653  0.476888
H    1.065176  -2.351117  0.058513
N    -0.668673  -2.485094  2.693226
C    -1.042051  -1.732562  3.881831
C    0.179004  -1.279217  4.706349
O    0.572875  -0.085481  4.523110
H    -0.674777  -3.502012  2.683969
H    -1.391674  -0.796229  3.437291
C    -2.303732  -2.157130  4.660368
C    -3.471642  -1.235089  4.265509
S    -3.025138  0.559596  4.429830
C    -4.500746  1.347480  3.718518
H    -2.121913  -2.087441  5.741168
H    -2.589790  -3.198011  4.452590
H    -4.333889  -1.398694  4.922890
H    -3.786576  -1.409287  3.227084
H    -4.342828  2.429983  3.782274
H    -5.369700  1.083265  4.330865
H    -4.654695  1.047117  2.676949
N    0.764955  -2.112595  5.547216
C    1.936302  -1.799489  6.371732
H    0.366370  -3.043558  5.647436
H    2.750371  -2.492780  6.129703
H    1.676264  -1.904331  7.431671
H    2.250959  -0.773654  6.168783
Ca    -0.425018  1.137654  2.982934
