30
Energy:  -45057.1567826  eV PBE+vdW (tier 2 basis)
 C    0.21738   -1.69563    0.34070
 C   -0.08839   -0.92009    1.57742
 O    0.85660   -0.47886    2.31033
 H    0.77246   -1.04352   -0.34956
 H   -0.67586   -2.07186   -0.16815
 H    0.87966   -2.53621    0.58486
 N   -1.36613   -0.68505    1.89449
 C   -1.85073    0.19275    2.97381
 C   -1.70142   -0.50243    4.34802
 O   -0.54085   -0.45945    4.90390
 H   -2.07256   -1.07830    1.27687
 H   -1.13497    1.02715    3.03395
 C   -3.20843    0.83530    2.59665
 C   -4.34279   -0.02204    2.01309
 S   -5.25988   -1.13693    3.13319
 C   -6.34145    0.03363    4.00551
 H   -2.97063    1.60359    1.84455
 H   -3.56743    1.39098    3.47442
 H   -4.01134   -0.66601    1.18355
 H   -5.07764    0.65547    1.55751
 H   -6.93771   -0.56977    4.69962
 H   -7.01530    0.51783    3.29008
 H   -5.77818    0.78219    4.57393
 N   -2.71425   -1.09895    4.91615
 C   -2.64916   -1.76997    6.21370
 H   -3.63306   -1.14497    4.38066
 H   -3.66182   -2.07879    6.48724
 H   -2.25572   -1.08938    6.97758
 H   -2.00705   -2.65834    6.16036
Ca    1.47151   -0.23494    4.32284
