30
Energy:  -45057.1406142  eV PBE+vdW (tier 2 basis)
 C   -0.25385   -1.26244    0.60115
 C   -0.26785   -0.58573    1.92820
 O    0.80895   -0.10582    2.42467
 H    0.07080   -0.53756   -0.15938
 H   -1.23064   -1.66535    0.31575
 H    0.48870   -2.07115    0.60760
 N   -1.41905   -0.46979    2.59159
 C   -1.56828    0.27832    3.85361
 C   -0.88133   -0.48953    5.00690
 O    0.29511   -0.11214    5.35754
 H   -2.26226   -0.89507    2.19669
 H   -0.96109    1.18810    3.73799
 C   -3.01833    0.78109    4.05261
 C   -4.12446   -0.16582    4.53567
 S   -4.06165   -1.79349    3.70447
 C   -5.63820   -2.53409    4.20866
 H   -3.30892    1.22777    3.09033
 H   -2.96690    1.61617    4.76573
 H   -5.09210    0.30316    4.31569
 H   -4.07443   -0.31662    5.62311
 H   -6.46995   -1.95438    3.79475
 H   -5.70620   -2.59356    5.30003
 H   -5.65083   -3.54410    3.78475
 N   -1.48403   -1.51362    5.56447
 C   -0.92557   -2.32670    6.64402
 H   -2.37968   -1.82926    5.12647
 H   -0.24838   -1.72280    7.25392
 H   -0.38318   -3.18985    6.23476
 H   -1.74909   -2.69339    7.26456
Ca    1.96340    0.36721    4.13358
