30
Energy:  -45056.1886549  eV PBE+vdW (tier 2 basis)
 C    0.05743    0.28807    1.74475
 C   -1.10022    0.72015    2.58174
 O   -0.91745    1.07061    3.79668
 H    0.03344    0.76170    0.75656
 H    0.04383   -0.80229    1.58882
 H    0.98836    0.54787    2.25731
 N   -2.36081    0.74071    2.09261
 C   -2.98067   -0.36409    1.34646
 C   -2.89135   -1.63385    2.21302
 O   -2.49228   -1.56449    3.43324
 H   -3.01531    1.25642    2.68121
 H   -4.05277   -0.07115    1.30032
 C   -2.57495   -0.49118   -0.13549
 C   -2.93919    0.77388   -0.91747
 S   -4.72751    1.09546   -0.74522
 C   -4.83688    2.81934   -1.29525
 H   -3.12770   -1.33665   -0.57409
 H   -1.51088   -0.72989   -0.25502
 H   -2.68367    0.62984   -1.97520
 H   -2.37766    1.64337   -0.54634
 H   -5.89522    3.09202   -1.21736
 H   -4.52521    2.90300   -2.34219
 H   -4.24298    3.48417   -0.65822
 N   -3.29547   -2.78450    1.71006
 C   -3.36781   -4.04635    2.45409
 H   -3.60974   -2.79190    0.74291
 H   -3.70506   -4.82863    1.76958
 H   -4.08166   -3.96191    3.28232
 H   -2.38034   -4.31470    2.84651
Ca   -1.69797   -0.46551    5.08570
