30
Energy:  -45056.7951539  eV PBE+vdW (tier 2 basis)
 C   -1.68411    0.01022    0.30640
 C   -1.01433    0.07099    1.63628
 O    0.19041    0.49759    1.73135
 H   -1.15341   -0.70425   -0.33864
 H   -1.60816    0.99379   -0.17664
 H   -2.73616   -0.28266    0.37947
 N   -1.69355   -0.32204    2.71258
 C   -1.23987   -0.12359    4.09682
 C   -0.06455   -1.07510    4.43825
 O    1.11735   -0.60300    4.28211
 H   -2.73659   -0.45046    2.60353
 H   -0.74211    0.85797    4.13795
 C   -2.42885   -0.03773    5.09987
 C   -3.75364   -0.74782    4.78589
 S   -4.61988    0.05139    3.37814
 C   -6.00998   -1.08792    3.14268
 H   -2.64806    1.03179    5.22665
 H   -2.06937   -0.37301    6.08333
 H   -4.39709   -0.67587    5.67286
 H   -3.63127   -1.81346    4.55794
 H   -6.59633   -0.68228    2.31060
 H   -6.63474   -1.10212    4.04283
 H   -5.66863   -2.09775    2.88986
 N   -0.18539   -2.31613    4.87482
 C   -1.37168   -3.14974    5.08019
 H    0.71150   -2.75796    5.08084
 H   -1.03427   -4.18487    5.18371
 H   -2.03871   -3.09165    4.21503
 H   -1.90515   -2.86660    5.99515
Ca    2.01741    0.58091    2.75445
