30
Energy:  -45057.1772292  eV PBE+vdW (tier 2 basis)
C    0.665368  2.537222  1.493570
C    0.453920  1.168800  2.040174
O    1.302373  0.247005  1.850613
H    0.734967  2.478244  0.398267
H    1.632404  2.917581  1.850244
H    -0.126477  3.241709  1.767778
N    -0.666645  0.911596  2.757500
C    -0.863655  -0.415240  3.318629
C    -1.438541  -1.424386  2.307650
O    -0.606441  -2.257526  1.821423
H    -1.339174  1.659347  2.906639
H    0.165068  -0.776229  3.410260
C    -1.301275  -0.541522  4.786662
C    -0.053052  -0.761677  5.672409
S    1.129162  -2.067981  5.133682
C    0.154513  -3.593108  5.318498
H    -1.998409  -1.382044  4.899824
H    -1.832438  0.351788  5.145913
H    -0.335435  -1.007538  6.703748
H    0.567038  0.145070  5.715896
H    0.843402  -4.428128  5.144504
H    -0.679597  -3.648009  4.610927
H    -0.208454  -3.656407  6.350602
N    -2.709756  -1.439088  1.948453
C    -3.792685  -0.561406  2.388750
H    -2.948938  -2.150146  1.254473
H    -3.459520  0.086083  3.203931
H    -4.631639  -1.168199  2.749092
H    -4.137746  0.057589  1.551170
Ca    1.556663  -1.923400  2.140717
