30
Energy:  -45056.9835721  eV PBE+vdW (tier 2 basis)
 C   -0.53574    1.75034    0.31782
 C   -0.81636    0.98680    1.56214
 O   -0.00649    0.96161    2.53135
 H   -0.24296    2.78134    0.55138
 H   -1.35518    1.73371   -0.40622
 H    0.34328    1.27932   -0.15213
 N   -1.97720    0.27355    1.69808
 C   -3.31395    0.76386    1.38157
 C   -3.44216    2.23223    1.86597
 O   -2.72601    2.65398    2.82287
 H   -1.93519   -0.43061    2.43266
 H   -3.48690    0.74175    0.29528
 C   -4.38723   -0.14966    2.05214
 C   -4.03113   -0.90075    3.34401
 S   -3.45273   -0.01579    4.84725
 C   -4.84283    1.08481    5.24542
 H   -4.66267   -0.92975    1.32743
 H   -5.29611    0.44673    2.20560
 H   -3.26631   -1.67657    3.18383
 H   -4.92234   -1.45714    3.66668
 H   -4.61275    1.54152    6.21532
 H   -5.74734    0.47628    5.35945
 H   -4.98958    1.86535    4.49213
 N   -4.32733    2.99481    1.24631
 C   -4.63961    4.38699    1.58003
 H   -4.83726    2.58492    0.46574
 H   -4.53323    5.00680    0.68233
 H   -3.94939    4.73527    2.35124
 H   -5.67204    4.46069    1.94322
Ca   -1.27823    1.72437    4.19631
