30
Energy:  -45056.7940166  eV PBE+vdW (tier 2 basis)
 C   -0.10910    0.33988   -0.11198
 C   -0.05675    0.09838    1.35920
 O    1.06937    0.11992    1.96900
 H   -1.13294    0.37192   -0.49759
 H    0.45255   -0.44604   -0.63560
 H    0.39533    1.29131   -0.32993
 N   -1.20001   -0.13160    2.00177
 C   -1.40336   -0.14427    3.46143
 C   -0.94900   -1.50130    4.06269
 O    0.32069   -1.67486    4.13418
 H   -2.08339    0.02592    1.44699
 H   -0.66370    0.54544    3.90164
 C   -2.79380    0.43945    3.79975
 C   -3.98873    0.03133    2.92287
 S   -3.96895    0.95854    1.33914
 C   -5.29927    0.12533    0.43326
 H   -2.69047    1.53421    3.75271
 H   -3.00886    0.22731    4.85603
 H   -4.92171    0.26575    3.45198
 H   -3.99926   -1.04203    2.69159
 H   -5.36433    0.62794   -0.53837
 H   -6.24954    0.25636    0.96299
 H   -5.08233   -0.93752    0.27920
 N   -1.71258   -2.46991    4.53988
 C   -3.16267   -2.66873    4.64147
 H   -1.15254   -3.24627    4.89634
 H   -3.59024   -2.93610    3.66838
 H   -3.66404   -1.78727    5.04649
 H   -3.32598   -3.50213    5.33058
Ca    2.16622   -0.88072    3.43968
