30
Energy:  -45055.9692365  eV PBE+vdW (tier 2 basis)
 C    0.47374    0.35422    0.30696
 C    0.04006    0.03439    1.69276
 O    0.89342   -0.26082    2.59334
 H    1.25804    1.12198    0.30182
 H   -0.34762    0.63524   -0.35744
 H    0.94066   -0.56003   -0.09629
 N   -1.27173    0.04112    2.02782
 C   -2.18514    1.15352    1.72481
 C   -1.50982    2.44607    2.23732
 O   -0.65374    2.35890    3.19462
 H   -1.47200   -0.41208    2.92169
 H   -2.35813    1.21361    0.64274
 C   -3.51475    0.85156    2.45941
 C   -4.67851    1.81139    2.22904
 S   -6.07215    1.17975    3.22089
 C   -7.39323    2.29925    2.68985
 H   -3.30453    0.79693    3.54192
 H   -3.81867   -0.15762    2.14116
 H   -4.43805    2.83514    2.55498
 H   -4.96381    1.83441    1.16641
 H   -7.59509    2.19717    1.61726
 H   -8.28372    1.98534    3.24661
 H   -7.16590    3.33997    2.94933
 N   -1.77761    3.62858    1.71777
 C   -2.65626    3.99456    0.60349
 H   -1.29984    4.40656    2.17672
 H   -3.53602    4.52917    0.98157
 H   -2.98754    3.11067    0.05468
 H   -2.10252    4.65362   -0.07487
Ca    0.89365    1.23003    4.15754
