30
Energy:  -45056.9880053  eV PBE+vdW (tier 2 basis)
 C    0.12132    1.25043    0.57452
 C    0.42448    0.60381    1.88490
 O    1.45031   -0.15003    1.99696
 H   -0.79673    1.84619    0.58706
 H    0.03871    0.46946   -0.19414
 H    0.96265    1.89417    0.28273
 N   -0.38634    0.84396    2.91640
 C   -0.45409    0.18413    4.23842
 C    0.75982    0.44047    5.13853
 O    1.91102   -0.03785    4.86877
 H   -1.23889    1.36344    2.69943
 H   -1.31705    0.67288    4.71076
 C   -0.80303   -1.32039    4.15769
 C   -2.03572   -1.59451    3.28711
 S   -3.37073   -0.41229    3.67978
 C   -4.67855   -0.99342    2.56780
 H   -0.98060   -1.66478    5.18687
 H    0.04555   -1.90433    3.76909
 H   -2.38387   -2.61871    3.47550
 H   -1.78509   -1.52059    2.21813
 H   -5.52746   -0.31880    2.72521
 H   -4.97886   -2.01310    2.83299
 H   -4.36449   -0.93998    1.51941
 N    0.54477    1.12360    6.24851
 C    1.53605    1.40503    7.28793
 H   -0.39382    1.48764    6.39930
 H    1.08117    1.22751    8.26849
 H    1.85534    2.45327    7.22622
 H    2.39859    0.74808    7.15673
Ca    2.98957   -0.84246    3.23045
