30
Energy:  -45057.0429977  eV PBE+vdW (tier 2 basis)
 C   -0.60697    1.07075    0.18027
 C   -0.44787    0.43068    1.52015
 O    0.60088    0.65814    2.20917
 H   -1.57322    0.86632   -0.29196
 H    0.19432    0.69741   -0.47482
 H   -0.46518    2.15566    0.26609
 N   -1.42271   -0.37300    1.95766
 C   -1.46341   -1.31282    3.09606
 C   -1.46751   -0.65579    4.48673
 O   -0.66935    0.29519    4.79799
 H   -2.21292   -0.46272    1.32359
 H   -2.44371   -1.79529    2.98891
 C   -0.40698   -2.44192    2.98179
 C   -0.62689   -3.58641    3.98017
 S   -2.37454   -4.13608    3.96524
 C   -2.30957   -5.51940    5.13581
 H    0.60988   -2.04055    3.10296
 H   -0.47580   -2.82986    1.95571
 H   -0.34636   -3.29037    5.00270
 H    0.01236   -4.43181    3.69508
 H   -3.33424   -5.90068    5.20803
 H   -1.97228   -5.19253    6.12567
 H   -1.66023   -6.31078    4.74582
 N   -2.30328   -1.18124    5.35602
 C   -2.43313   -0.78733    6.75625
 H   -2.78395   -2.05211    5.04875
 H   -3.49056   -0.83709    7.03634
 H   -2.06596    0.23271    6.89195
 H   -1.86428   -1.47196    7.39976
Ca    1.07112    1.29124    4.15799
