30
Energy:  -45057.7412272  eV PBE+vdW (tier 2 basis)
 C   -1.16750   -0.28619   -0.12108
 C   -1.45273   -0.07818    1.32981
 O   -2.60375   -0.31259    1.80004
 H   -0.12054   -0.11649   -0.39228
 H   -1.80138    0.40022   -0.70124
 H   -1.45774   -1.30524   -0.40709
 N   -0.45925    0.38022    2.11258
 C   -0.54101    0.78568    3.53048
 C   -0.71122   -0.44161    4.44939
 O   -1.78080   -1.11575    4.48292
 H    0.43362    0.53894    1.65388
 H    0.45445    1.19334    3.74478
 C   -1.56645    1.94677    3.74825
 C   -2.38014    1.95432    5.05413
 S   -4.11325    1.44222    4.72612
 C   -4.83019    1.36180    6.39310
 H   -2.24836    1.98760    2.88934
 H   -0.99156    2.87919    3.69668
 H   -2.44240    2.97168    5.45780
 H   -1.95606    1.31100    5.83636
 H   -5.88297    1.08214    6.27245
 H   -4.78288    2.36103    6.84017
 H   -4.31259    0.63180    7.02411
 N    0.32201   -0.76119    5.21734
 C    0.34253   -1.90023    6.13885
 H    1.16782   -0.20254    5.14572
 H    1.14958   -1.74931    6.86066
 H    0.51798   -2.83431    5.59006
 H   -0.61382   -1.96831    6.66679
Ca   -3.71331   -1.03368    3.49505
