30
Energy:  -45057.6617553  eV PBE+vdW (tier 2 basis)
 C   -1.18847    0.42350   -0.85461
 C   -0.72243    0.08451    0.52351
 O    0.39832   -0.47438    0.70378
 H   -2.15682    0.93359   -0.87949
 H   -1.25917   -0.50628   -1.43711
 H   -0.43526    1.05091   -1.34901
 N   -1.53652    0.37609    1.55476
 C   -1.37003    0.01955    2.97732
 C   -0.27119    0.87207    3.63739
 O    0.94307    0.76450    3.29110
 H   -2.41584    0.82313    1.31091
 H   -2.31801    0.32012    3.43358
 C   -1.23050   -1.52578    3.18680
 C   -0.31796   -2.01553    4.32161
 S    1.39422   -2.50120    3.86534
 C    1.13727   -4.09520    3.02679
 H   -0.92467   -1.98688    2.24089
 H   -2.24456   -1.90031    3.37822
 H   -0.74538   -2.90966    4.79268
 H   -0.19252   -1.28019    5.12764
 H    2.12885   -4.45691    2.73056
 H    0.49579   -4.00478    2.14380
 H    0.70841   -4.80198    3.74584
 N   -0.60594    1.72477    4.59763
 C   -1.92901    2.03449    5.15671
 H    0.18307    2.25208    4.97391
 H   -2.43615    1.12974    5.51123
 H   -2.55634    2.56243    4.42777
 H   -1.78020    2.69277    6.01726
Ca    2.11059   -0.53213    2.01036
