30
Energy:  -45057.1246287  eV PBE+vdW (tier 2 basis)
 C    0.70591   -2.21546    1.27267
 C    0.21698   -1.13267    2.17309
 O    1.02694   -0.25031    2.62205
 H    1.10549   -1.75329    0.35806
 H   -0.07667   -2.92991    0.99819
 H    1.53926   -2.74808    1.74940
 N   -1.07839   -1.09192    2.48821
 C   -1.72798   -0.04384    3.28925
 C   -1.41283   -0.25680    4.78975
 O   -0.31290    0.22766    5.23808
 H   -1.66964   -1.89453    2.23555
 H   -1.20980    0.89487    3.04740
 C   -3.22121    0.15340    2.90728
 C   -3.99823   -1.03251    2.31856
 S   -3.75586   -2.57533    3.27354
 C   -5.15671   -3.58704    2.72536
 H   -3.25784    0.95789    2.16041
 H   -3.74402    0.54307    3.79089
 H   -3.71735   -1.21034    1.27103
 H   -5.06608   -0.77998    2.32816
 H   -6.10135   -3.10938    3.00558
 H   -5.06133   -4.54690    3.24482
 H   -5.10395   -3.75223    1.64411
 N   -2.24849   -0.91299    5.55982
 C   -2.04971   -1.17458    6.98566
 H   -3.06205   -1.36123    5.10255
 H   -3.03093   -1.25098    7.46349
 H   -1.48276   -0.35600    7.43728
 H   -1.50814   -2.11893    7.12990
Ca    1.56922    0.74949    4.40173
