30
Energy:  -45056.8808181  eV PBE+vdW (tier 2 basis)
 C    0.55506    0.16289    0.11362
 C    0.18674    0.06650    1.55667
 O    1.04750   -0.33696    2.40444
 H   -0.23971    0.57654   -0.51496
 H    0.80816   -0.84428   -0.24851
 H    1.46019    0.77493    0.00696
 N   -1.05424    0.40865    1.92223
 C   -1.73121    0.26190    3.23320
 C   -1.12237    1.17431    4.30684
 O    0.00800    0.88459    4.83541
 H   -1.66008    0.71171    1.16365
 H   -2.75406    0.60981    3.04851
 C   -1.83541   -1.20891    3.69351
 C   -2.71322   -1.40704    4.93219
 S   -4.37224   -0.70373    4.64076
 C   -5.24756   -1.26667    6.12424
 H   -0.83753   -1.63557    3.88239
 H   -2.25439   -1.77510    2.84968
 H   -2.26129   -0.95385    5.82857
 H   -2.81140   -2.48505    5.11964
 H   -6.26889   -0.87987    6.03458
 H   -4.78890   -0.86524    7.03482
 H   -5.28326   -2.36152    6.15534
 N   -1.77463    2.24585    4.71410
 C   -3.08630    2.74695    4.28108
 H   -1.30475    2.76749    5.45535
 H   -3.31086    3.64084    4.86869
 H   -3.85809    1.98570    4.46933
 H   -3.06888    3.02828    3.22150
Ca    1.76236   -0.19926    4.37811
