30
Energy:  -45057.1123721  eV PBE+vdW (tier 2 basis)
 C    0.43523   -0.31601    0.16028
 C    0.05006    0.20522    1.50467
 O    0.94650    0.60645    2.31723
 H    0.92147    0.49789   -0.39777
 H   -0.41334   -0.68785   -0.42293
 H    1.18072   -1.11404    0.26989
 N   -1.24660    0.25304    1.82737
 C   -1.87033    0.91416    2.99597
 C   -1.73142    0.01297    4.24255
 O   -0.54692   -0.18486    4.70412
 H   -1.89753   -0.10192    1.12958
 H   -1.26261    1.80693    3.21939
 C   -3.27236    1.37300    2.55075
 C   -4.09496    2.19984    3.55834
 S   -5.27925    1.25909    4.58373
 C   -6.58213    0.86981    3.38288
 H   -3.85676    0.50199    2.21268
 H   -3.10493    1.99017    1.65504
 H   -4.66385    2.96941    3.02225
 H   -3.45254    2.73639    4.27085
 H   -6.21612    0.26756    2.54368
 H   -7.04396    1.79615    3.02342
 H   -7.33120    0.28992    3.93415
 N   -2.78330   -0.51837    4.80893
 C   -2.72639   -1.35927    6.00555
 H   -3.74458   -0.16455    4.54059
 H   -3.75016   -1.50906    6.35933
 H   -2.13485   -0.87802    6.79338
 H   -2.28070   -2.33208    5.76504
Ca    1.47326    0.27907    4.33923
