30
Energy:  -45056.8170179  eV PBE+vdW (tier 2 basis)
 C    0.00267    0.15419   -0.02627
 C   -0.12537    0.25606    1.45414
 O    0.85677    0.68425    2.16245
 H    0.20762    1.15380   -0.43550
 H   -0.89633   -0.25265   -0.49938
 H    0.86682   -0.47497   -0.27859
 N   -1.26847   -0.09098    2.03632
 C   -1.51555    0.07719    3.47098
 C   -0.63269   -0.89613    4.29129
 O    0.36406   -0.36986    4.90700
 H   -2.09685   -0.44660    1.48940
 H   -1.08796    1.05123    3.75413
 C   -3.02105    0.22309    3.80318
 C   -4.06288   -0.79405    3.32401
 S   -4.12894   -1.13301    1.52187
 C   -5.00151    0.33357    0.89724
 H   -3.29833    1.21414    3.41438
 H   -3.09867    0.31068    4.89826
 H   -5.05500   -0.43376    3.62806
 H   -3.94545   -1.77234    3.80020
 H   -5.09490    0.18900   -0.18510
 H   -4.45332    1.26252    1.08982
 H   -6.00456    0.37946    1.33565
 N   -0.79259   -2.20565    4.36029
 C   -1.70341   -3.11042    3.65704
 H   -0.11711   -2.65924    4.97829
 H   -2.10314   -2.64248    2.75480
 H   -2.52098   -3.42692    4.31563
 H   -1.13357   -3.99873    3.36194
Ca    1.87457    0.84621    4.00163
