30
Energy:  -45056.5080854  eV PBE+vdW (tier 2 basis)
 C    0.45612   -0.15696    0.30021
 C    0.32532   -0.26718    1.78159
 O    1.36396   -0.25566    2.52121
 H    0.92814    0.80813    0.06426
 H   -0.50128   -0.22322   -0.22652
 H    1.13158   -0.93894   -0.07080
 N   -0.89667   -0.36480    2.31606
 C   -1.24249   -0.29221    3.74693
 C   -0.94559   -1.64408    4.44706
 O    0.29020   -1.85313    4.73827
 H   -1.68431   -0.36743    1.67039
 H   -0.49534    0.37068    4.21039
 C   -2.62157    0.37502    3.93569
 C   -3.71506    0.03935    2.89927
 S   -5.40577    0.03910    3.56867
 C   -5.63661    1.78602    3.99972
 H   -2.44826    1.45922    3.92537
 H   -2.97650    0.14730    4.95007
 H   -3.61248   -0.97772    2.49050
 H   -3.67010    0.73368    2.04621
 H   -6.67119    1.85887    4.35489
 H   -5.52591    2.42411    3.11504
 H   -4.97012    2.11287    4.80582
 N   -1.81972   -2.57128    4.78982
 C   -3.26902   -2.71336    4.60146
 H   -1.37095   -3.36071    5.25857
 H   -3.49257   -3.04526    3.57995
 H   -3.81377   -1.78730    4.81715
 H   -3.61102   -3.48486    5.29690
Ca    2.22879   -1.18381    4.21063
