30
Energy:  -45057.1257093  eV PBE+vdW (tier 2 basis)
C    -0.480930  -0.996246  0.647039
C    -0.392163  -0.396698  2.008961
O    0.676502  0.196468  2.385951
H    -0.391130  -0.188630  -0.094440
H    -1.419805  -1.532369  0.475936
H    0.366109  -1.674459  0.482094
N    -1.449806  -0.474821  2.817839
C    -1.551279  0.140789  4.149197
C    -0.759293  -0.700965  5.179528
O    0.499287  -0.474840  5.282874
H    -2.233048  -1.082486  2.543713
H    -0.987136  1.082675  4.097226
C    -3.013974  0.511049  4.521152
C    -4.162656  -0.288845  3.891156
S    -3.893199  -2.096834  3.987780
C    -5.563762  -2.746550  3.716438
H    -3.162841  1.560283  4.232572
H    -3.097411  0.488565  5.615972
H    -4.316218  -0.003195  2.841071
H    -5.086104  -0.043814  4.430867
H    -6.232551  -2.418936  4.519344
H    -5.473233  -3.838133  3.735282
H    -5.938694  -2.429957  2.737461
N    -1.370082  -1.607650  5.905566
C    -0.734847  -2.464658  6.905834
H    -2.365112  -1.794235  5.688250
H    0.217903  -2.028572  7.214901
H    -0.565840  -3.466744  6.490215
H    -1.401637  -2.547982  7.770599
Ca    2.007952  0.327788  4.020623
