30
Energy:  -45056.3467356  eV PBE+vdW (tier 2 basis)
 C   -0.27054    1.18707   -0.54544
 C   -0.31926    0.43511    0.73690
 O    0.68759   -0.23544    1.14531
 H    0.52159    1.94871   -0.52689
 H   -1.22800    1.63967   -0.81957
 H    0.01974    0.46866   -1.32808
 N   -1.43813    0.43984    1.49742
 C   -2.13928    1.67258    1.85813
 C   -1.21007    2.48568    2.77088
 O   -0.12125    1.95632    3.21427
 H   -1.44217   -0.27117    2.23148
 H   -2.35528    2.24895    0.93106
 C   -3.52097    1.34451    2.44615
 C   -4.45560    0.79985    1.34820
 S   -4.57792    1.85551   -0.12597
 C   -5.77549    3.11262    0.40774
 H   -3.95314    2.24827    2.89290
 H   -3.42652    0.61531    3.26803
 H   -5.45800    0.63118    1.76215
 H   -4.09774   -0.17066    0.97850
 H   -5.89124    3.79661   -0.44073
 H   -5.43703    3.68429    1.27967
 H   -6.74333    2.64311    0.61670
 N   -1.49194    3.73699    3.08738
 C   -2.60304    4.57498    2.62642
 H   -0.83440    4.17324    3.73448
 H   -2.21975    5.58567    2.44974
 H   -3.38954    4.62533    3.39028
 H   -3.01607    4.19042    1.68952
Ca    1.46031    0.53472    3.00671
