30
Energy:  -45057.1093340  eV PBE+vdW (tier 2 basis)
 C    1.37035    1.05698    0.91984
 C    0.27091    0.72289    1.87154
 O   -0.19305    1.61532    2.65426
 H    1.00696    1.83238    0.22951
 H    1.71776    0.19769    0.33725
 H    2.21589    1.49196    1.46829
 N   -0.22315   -0.51969    1.87604
 C   -1.42384   -0.99397    2.59311
 C   -1.09985   -1.22903    4.08796
 O   -0.99287   -0.18291    4.83068
 H    0.20034   -1.18176    1.22901
 H   -2.12558   -0.14519    2.61123
 C   -2.11876   -2.09844    1.76854
 C   -1.33071   -3.36695    1.38831
 S   -1.64587   -4.70629    2.59194
 C   -0.36196   -5.90755    2.15173
 H   -2.44553   -1.60553    0.84156
 H   -3.04897   -2.37469    2.28728
 H   -0.24233   -3.20062    1.32828
 H   -1.65465   -3.70947    0.39801
 H   -0.49695   -6.75649    2.83149
 H    0.64398   -5.49285    2.28111
 H   -0.51268   -6.25230    1.12274
 N   -0.95288   -2.43011    4.57920
 C   -0.67633   -2.70633    5.98882
 H   -1.08556   -3.27552    3.94865
 H   -0.76790   -3.78489    6.14471
 H   -1.39360   -2.18287    6.63137
 H    0.34036   -2.38906    6.25302
Ca   -0.77529    1.90434    4.66948
