30
Energy:  -45057.6479637  eV PBE+vdW (tier 2 basis)
 C   -2.37061    0.31893    0.36045
 C   -1.79462   -0.03332    1.69362
 O   -0.60305   -0.43920    1.79107
 H   -3.41642    0.63972    0.40212
 H   -2.28542   -0.55065   -0.30535
 H   -1.76612    1.11995   -0.08730
 N   -2.58243    0.09970    2.77705
 C   -2.26701   -0.19894    4.18792
 C   -0.97133    0.49023    4.65756
 O    0.15942   -0.07688    4.57545
 H   -3.53174    0.41566    2.59754
 H   -3.07184    0.30195    4.73933
 C   -2.39283   -1.69624    4.59869
 C   -2.00606   -2.83319    3.64728
 S   -0.27314   -3.42220    3.53026
 C    0.11247   -3.93821    5.22919
 H   -3.46365   -1.85151    4.79810
 H   -1.90554   -1.81756    5.57659
 H   -2.29099   -2.62654    2.60735
 H   -2.57189   -3.72804    3.93983
 H    1.10281   -4.40697    5.19357
 H   -0.61785   -4.69387    5.54045
 H    0.12422   -3.09597    5.92851
 N   -1.06513    1.69612    5.20475
 C   -2.25664    2.52745    5.41524
 H   -0.17678    2.07611    5.53257
 H   -2.93983    2.06884    6.14172
 H   -2.77851    2.72170    4.47108
 H   -1.92708    3.48736    5.82229
Ca    1.10046   -1.11294    2.92923
