30
Energy:  -45057.0205933  eV PBE+vdW (tier 2 basis)
 C   -0.37396    0.06847   -0.20260
 C   -0.67398    0.73794    1.09526
 O   -0.27765    1.92979    1.31401
 H   -0.84159    0.64915   -1.01118
 H   -0.73352   -0.96433   -0.25187
 H    0.70873    0.08621   -0.38418
 N   -1.37907    0.07835    2.02186
 C   -1.87607    0.66724    3.28111
 C   -0.71383    0.81270    4.28660
 O    0.01151    1.86924    4.24600
 H   -1.67787   -0.86734    1.79370
 H   -2.18181    1.69813    3.04606
 C   -3.11444   -0.08596    3.78794
 C   -3.96046    0.79759    4.71380
 S   -3.01649    1.66775    6.00524
 C   -2.85422    0.39418    7.28109
 H   -2.83829   -1.02887    4.28652
 H   -3.72915   -0.37623    2.92156
 H   -4.76703    0.21685    5.17900
 H   -4.44187    1.59606    4.13164
 H   -2.34817    0.87068    8.12857
 H   -2.26113   -0.46895    6.95204
 H   -3.84569    0.06050    7.60826
 N   -0.33656   -0.23054    5.00975
 C    0.78712   -0.21306    5.94756
 H   -0.94005   -1.04686    5.01217
 H    1.71635    0.04435    5.42734
 H    0.88775   -1.20876    6.38685
 H    0.60610    0.52098    6.74350
Ca    0.51301    3.27199    2.75644
