30
Energy:  -45056.5322125  eV PBE+vdW (tier 2 basis)
 C   -2.80858    0.40355   -1.06022
 C   -1.76738   -0.04963   -0.09542
 O   -0.61869   -0.42712   -0.50297
 H   -3.82291    0.34206   -0.65405
 H   -2.73177   -0.21633   -1.96273
 H   -2.61479    1.44160   -1.37475
 N   -2.01241   -0.04786    1.23403
 C   -2.62197    1.09255    1.91683
 C   -1.64811    2.30081    1.76096
 O   -0.46897    2.12029    1.27478
 H   -1.30863   -0.54032    1.78743
 H   -3.55623    1.36149    1.40186
 C   -2.96118    0.67941    3.37031
 C   -3.54565    1.76218    4.28238
 S   -4.84857    2.71987    3.42615
 C   -5.39790    3.82286    4.75785
 H   -2.05522    0.27811    3.85292
 H   -3.67274   -0.15308    3.28110
 H   -2.76623    2.44979    4.64138
 H   -3.98429    1.27504    5.16263
 H   -6.15687    4.47789    4.31607
 H   -4.57034    4.42798    5.14390
 H   -5.85531    3.23426    5.56044
 N   -2.08819    3.48302    2.10843
 C   -1.31385    4.72163    2.02902
 H   -3.08024    3.51624    2.47303
 H   -0.38555    4.63413    2.60591
 H   -1.92083    5.53100    2.44302
 H   -1.07068    4.95894    0.98573
Ca    0.90213    0.97513    0.11332
