30
Energy:  -45056.0965914  eV PBE+vdW (tier 2 basis)
 C   -0.50180   -0.58791   -0.53379
 C   -0.21003   -0.78498    0.91339
 O    0.81503   -1.45009    1.28516
 H    0.21100    0.11979   -0.98383
 H   -1.52295   -0.24724   -0.72743
 H   -0.33853   -1.55054   -1.03863
 N   -1.01859   -0.26619    1.86356
 C   -1.48791    1.11721    1.83801
 C   -0.25261    2.02174    2.12489
 O    0.91216    1.50944    2.27724
 H   -0.84576   -0.62984    2.80249
 H   -1.82841    1.35175    0.81842
 C   -2.66842    1.33174    2.81295
 C   -2.33778    1.07711    4.28738
 S   -3.76136    1.27632    5.39638
 C   -3.97556    3.07578    5.40722
 H   -3.48783    0.67499    2.49012
 H   -3.04517    2.35712    2.68341
 H   -1.50550    1.71567    4.63214
 H   -2.04192    0.02937    4.45753
 H   -4.29307    3.47152    4.43480
 H   -3.07192    3.58401    5.76629
 H   -4.78323    3.26293    6.12503
 N   -0.43189    3.32614    2.17963
 C    0.62716    4.31156    2.42420
 H   -1.37988    3.67620    2.06173
 H    1.42192    4.20904    1.67669
 H    1.04784    4.17842    3.42830
 H    0.19098    5.31060    2.34756
Ca    2.24036   -0.17952    2.27422
