30
Energy:  -45056.5434038  eV PBE+vdW (tier 2 basis)
 C   -0.64542    1.92554    1.22956
 C   -0.13099    0.73957    1.97173
 O    0.56304    0.89015    3.03219
 H   -1.48679    2.38753    1.76836
 H   -0.95769    1.69464    0.20705
 H    0.15622    2.67621    1.20487
 N   -0.38679   -0.51510    1.53791
 C   -1.72596   -0.94969    1.13964
 C   -2.57467   -1.04604    2.45185
 O   -2.06812   -0.64697    3.56884
 H    0.16429   -1.23272    2.01296
 H   -2.17463   -0.14401    0.53848
 C   -1.66509   -2.24453    0.28706
 C   -2.62957   -2.28730   -0.90723
 S   -4.41528   -2.43080   -0.54858
 C   -4.57088   -4.20322   -0.17777
 H   -1.79293   -3.13136    0.92439
 H   -0.64552   -2.30124   -0.12292
 H   -2.35874   -3.12665   -1.56090
 H   -2.53223   -1.37588   -1.51419
 H   -5.63098   -4.37613    0.04032
 H   -3.97034   -4.50678    0.68782
 H   -4.29290   -4.78986   -1.06032
 N   -3.78812   -1.51475    2.36315
 C   -4.72066   -1.63910    3.48217
 H   -4.12544   -1.80357    1.38920
 H   -4.32910   -2.33148    4.23755
 H   -5.66535   -2.02975    3.09389
 H   -4.90302   -0.66234    3.94658
Ca   -0.53438    0.21369    4.76088
