30
Energy:  -45057.1255988  eV PBE+vdW (tier 2 basis)
C    -0.916706  -0.420001  0.442958
C    -0.640486  -0.708129  1.880881
O    0.494890  -1.195443  2.227469
H    -1.928209  -0.036715  0.275959
H    -0.766273  -1.328700  -0.154547
H    -0.184016  0.318700  0.087291
N    -1.586290  -0.440195  2.772216
C    -1.464825  -0.460823  4.238655
C    -1.501724  -1.905126  4.788130
O    -0.514615  -2.678746  4.549581
H    -2.489598  -0.007684  2.432688
H    -0.447729  -0.117733  4.496220
C    -2.455422  0.554292  4.850362
C    -3.942118  0.491517  4.446301
S    -4.352028  0.897575  2.704527
C    -4.065589  2.689363  2.661718
H    -2.069017  1.554866  4.610258
H    -2.376173  0.483699  5.946745
H    -4.509876  1.174058  5.092784
H    -4.397233  -0.501272  4.582482
H    -4.730472  3.189344  3.375017
H    -4.334243  3.007596  1.647748
H    -3.020340  2.956630  2.853018
N    -2.510261  -2.313212  5.530972
C    -2.623245  -3.642341  6.139012
H    -3.272201  -1.659467  5.689452
H    -3.304490  -3.576835  6.991838
H    -1.639687  -3.978110  6.480375
H    -3.022297  -4.361775  5.412487
Ca    1.287271  -2.724334  3.408402
