30
Energy:  -45056.1334941  eV PBE+vdW (tier 2 basis)
 C    0.33810   -0.17754    0.74204
 C    0.14401    0.33256    2.12770
 O    1.14635    0.69819    2.83325
 H    0.63492    0.63475    0.06138
 H   -0.54351   -0.68428    0.33964
 H    1.18186   -0.88203    0.76388
 N   -1.09047    0.41835    2.67263
 C   -2.22664    1.01677    1.97753
 C   -1.94307    2.54732    1.86911
 O   -0.85002    3.03991    2.31851
 H   -1.09199    0.57246    3.68321
 H   -2.26506    0.61410    0.95320
 C   -3.54417    0.69700    2.70450
 C   -3.86107   -0.79815    2.73981
 S   -5.42843   -1.00768    3.63901
 C   -5.58842   -2.81180    3.60939
 H   -4.37125    1.22202    2.20347
 H   -3.50608    1.10370    3.72918
 H   -3.06124   -1.35668    3.25190
 H   -3.95156   -1.19652    1.71648
 H   -6.52747   -3.03132    4.13015
 H   -4.76479   -3.29523    4.14759
 H   -5.65797   -3.18763    2.58210
 N   -2.84991    3.31440    1.30226
 C   -2.73411    4.76724    1.12714
 H   -3.70575    2.87125    0.97508
 H   -3.60949    5.11646    0.57399
 H   -1.82890    5.01008    0.55916
 H   -2.70229    5.26658    2.10284
Ca    1.10509    2.81356    3.18942
