30
Energy:  -45057.6372026  eV PBE+vdW (tier 2 basis)
C    0.203687  -0.905750  0.097996
C    0.104760  -0.560230  1.547629
O    1.068543  -0.795520  2.331985
H    0.354397  -1.991182  0.008290
H    1.093350  -0.425226  -0.329795
H    -0.677949  -0.619165  -0.484295
N    -1.040810  -0.009261  1.990116
C    -1.424331  0.293871  3.383432
C    -0.632090  1.501555  3.918786
O    0.611096  1.425548  4.152372
H    -1.761524  0.138658  1.289270
H    -2.467172  0.614755  3.302039
C    -1.407397  -0.979589  4.292527
C    -0.956043  -0.817435  5.754853
S    0.728548  -1.512774  5.981695
C    1.115759  -1.073942  7.701440
H    -0.804888  -1.757178  3.805985
H    -2.430926  -1.372903  4.291189
H    -1.607760  -1.395795  6.420162
H    -0.965116  0.224128  6.102349
H    0.384626  -1.560280  8.356920
H    1.112409  0.010051  7.855828
H    2.107936  -1.486109  7.918038
N    -1.272754  2.643082  4.140976
C    -2.689494  2.975265  3.938071
H    -0.671611  3.394703  4.480439
H    -2.956275  2.954495  2.874308
H    -2.848360  3.992397  4.306748
H    -3.343760  2.305235  4.507996
Ca    2.158148  -0.088406  4.047651
