30
Energy:  -45057.7439534  eV PBE+vdW (tier 2 basis)
 C   -0.64178    0.49596   -0.59910
 C   -0.90946    0.40575    0.86717
 O   -0.41066    1.25080    1.66587
 H   -0.92979    1.49190   -0.96043
 H   -1.15969   -0.26726   -1.18876
 H    0.44141    0.39969   -0.76170
 N   -1.68013   -0.60401    1.31048
 C   -1.97589   -0.96742    2.71113
 C   -2.93023    0.05772    3.35986
 O   -2.55647    1.23248    3.64307
 H   -2.04108   -1.23476    0.60013
 H   -2.54183   -1.90311    2.62535
 C   -0.67569   -1.29337    3.51722
 C   -0.63202   -0.89866    5.00386
 S    0.45279    0.56456    5.23951
 C    0.22609    0.95354    6.99933
 H    0.18705   -0.85993    2.99554
 H   -0.53263   -2.37819    3.44520
 H   -0.18117   -1.70191    5.59829
 H   -1.62186   -0.68512    5.42816
 H    0.56633    0.09629    7.59099
 H   -0.81638    1.19419    7.23221
 H    0.87317    1.81000    7.22064
 N   -4.16506   -0.36032    3.60803
 C   -5.23035    0.44943    4.20045
 H   -4.40497   -1.31428    3.35002
 H   -4.81075    1.39364    4.55382
 H   -5.67730   -0.09669    5.03888
 H   -6.00572    0.64996    3.45043
Ca   -0.72196    2.38006    3.46946
