30
Energy:  -45057.2622921  eV PBE+vdW (tier 2 basis)
C    0.741334  1.080159  1.399872
C    -0.010655  0.336536  2.447923
O    0.532218  0.021208  3.548632
H    1.144495  2.003843  1.836818
H    0.134344  1.326772  0.522736
H    1.604964  0.477925  1.084288
N    -1.302472  -0.003950  2.214866
C    -2.037532  -0.700915  3.257085
C    -1.757027  -2.217954  3.272435
O    -0.989575  -2.642364  4.195855
H    -1.733479  0.263957  1.334206
H    -1.525198  -0.348402  4.161619
C    -3.458000  -0.267902  3.618282
C    -3.742333  -0.684947  5.081254
S    -2.477362  -0.266405  6.352747
C    -2.553514  1.549296  6.429709
H    -4.241212  -0.701949  2.982955
H    -3.523674  0.823921  3.510999
H    -3.850650  -1.774316  5.178236
H    -4.683474  -0.242106  5.430296
H    -2.238608  2.024705  5.495068
H    -1.886740  1.855888  7.243891
H    -3.576694  1.844700  6.687801
N    -2.266893  -3.054704  2.385168
C    -3.129327  -2.782347  1.236432
H    -1.985642  -4.028387  2.519090
H    -3.335785  -1.713675  1.145612
H    -4.079923  -3.317924  1.349206
H    -2.635966  -3.127365  0.319685
Ca    0.172380  -1.199297  5.366235
