30
Energy:  -45056.0536472  eV PBE+vdW (tier 2 basis)
 C    0.05564    0.73516   -0.05663
 C   -0.01874    0.13452    1.30411
 O    1.01879   -0.37621    1.84631
 H    0.61563    1.68251   -0.03534
 H   -0.92468    0.90250   -0.51138
 H    0.63706    0.04989   -0.68960
 N   -1.17963    0.12226    1.99583
 C   -2.03639    1.30112    2.13315
 C   -1.23193    2.35276    2.94791
 O   -0.08073    2.06125    3.43276
 H   -1.17063   -0.48719    2.81605
 H   -2.22642    1.72039    1.13268
 C   -3.39284    0.89268    2.76712
 C   -4.53808    1.90221    2.59992
 S   -6.17003    1.17220    2.92958
 C   -6.22047    1.18060    4.74224
 H   -3.24708    0.65044    3.83143
 H   -3.69268   -0.03741    2.26291
 H   -4.59744    2.24600    1.55544
 H   -4.42648    2.78807    3.24557
 H   -7.21605    0.80280    5.00365
 H   -6.12336    2.19929    5.13745
 H   -5.47449    0.51292    5.18905
 N   -1.75708    3.54688    3.12569
 C   -1.13452    4.63780    3.88376
 H   -2.67789    3.71730    2.72334
 H   -0.20054    4.95240    3.40304
 H   -0.92895    4.31864    4.91192
 H   -1.82817    5.48212    3.90112
Ca    1.64297    0.78451    3.54443
