30
Energy:  -45056.8075918  eV PBE+vdW (tier 2 basis)
 C    0.42895   -0.03107    0.17893
 C    0.19529    0.04667    1.64920
 O    1.11773    0.44788    2.43081
 H    0.67285    0.97504   -0.19161
 H   -0.43095   -0.41748   -0.37757
 H    1.30460   -0.66334   -0.01984
 N   -1.00308   -0.29681    2.13931
 C   -1.40525   -0.12306    3.54784
 C   -0.67604   -1.16356    4.43331
 O    0.41227   -0.78542    5.01013
 H   -1.71854   -0.57427    1.47123
 H   -0.97897    0.83869    3.87248
 C   -2.93296    0.00144    3.67879
 C   -3.31703    0.69070    4.99092
 S   -2.55103   -0.06517    6.45996
 C   -3.74325   -1.36239    6.89309
 H   -3.42835   -0.97315    3.59315
 H   -3.29488    0.61391    2.83682
 H   -4.40671    0.71243    5.11754
 H   -2.97841    1.73654    4.98838
 H   -3.30923   -1.90907    7.73793
 H   -3.92659   -2.06022    6.06951
 H   -4.68601   -0.90589    7.21566
 N   -0.95243   -2.46320    4.41053
 C   -2.03724   -3.18925    3.75049
 H   -0.34114   -3.01748    5.00869
 H   -2.21823   -2.80615    2.74192
 H   -2.96437   -3.15090    4.33441
 H   -1.73140   -4.23600    3.65902
Ca    2.03472    0.37305    4.35158
