30
Energy:  -45056.3835290  eV PBE+vdW (tier 2 basis)
 C    0.71136   -1.07626    0.35808
 C    0.35105   -0.73495    1.76099
 O    1.26843   -0.34421    2.59008
 H    1.19111   -0.21098   -0.11972
 H   -0.15775   -1.37917   -0.23387
 H    1.44670   -1.89322    0.36138
 N   -0.89152   -0.82797    2.17162
 C   -1.38910   -0.57657    3.51679
 C   -2.78571   -1.28555    3.49472
 O   -3.29006   -1.50568    2.39311
 H   -1.67045   -1.16198    1.56658
 H   -0.71398   -1.05524    4.24545
 C   -1.53774    0.94341    3.81589
 C   -1.23074    1.34096    5.25987
 S    0.51683    1.75821    5.67165
 C    0.65872    3.47007    5.05485
 H   -2.56997    1.24595    3.58737
 H   -0.90826    1.51754    3.12213
 H   -1.49852    0.56205    5.98608
 H   -1.78846    2.23924    5.55566
 H    0.43201    3.54693    3.98600
 H    1.68255    3.80892    5.25580
 H   -0.02771    4.09628    5.63620
 N   -3.36094   -1.54696    4.67829
 C   -4.69045   -2.15352    4.79548
 H   -2.81647   -1.44197    5.52711
 H   -5.22115   -1.70301    5.64051
 H   -4.61275   -3.23736    4.94878
 H   -5.24335   -1.96368    3.87164
Ca    2.38052    0.40496    4.12180
