30
Energy:  -45057.1325407  eV PBE+vdW (tier 2 basis)
 C    0.69530    0.28650    0.31197
 C    0.01404    0.43065    1.62804
 O    0.49307    1.16994    2.53858
 H    1.69631   -0.13813    0.47262
 H    0.84263    1.28357   -0.12483
 H    0.14581   -0.34351   -0.39493
 N   -1.14250   -0.24202    1.84686
 C   -1.82149   -0.08772    3.12431
 C   -1.24304   -0.99737    4.22520
 O   -0.45704   -0.43459    5.05342
 H   -1.51783   -0.83308    1.10962
 H   -1.45801    0.89598    3.43309
 C   -3.34155    0.17396    3.13805
 C   -3.59461    1.68474    3.28196
 S   -2.70163    2.40430    4.74119
 C   -3.02348    4.17755    4.50167
 H   -3.80612   -0.36682    3.97357
 H   -3.83353   -0.17960    2.22077
 H   -4.66038    1.88451    3.44553
 H   -3.27068    2.23304    2.38621
 H   -2.54585    4.70106    5.33755
 H   -4.10422    4.34844    4.55298
 H   -2.61933    4.53502    3.54897
 N   -1.52608   -2.28403    4.31813
 C   -2.38906   -3.09628    3.46295
 H   -1.06614   -2.76513    5.09372
 H   -1.79913   -3.88908    2.98689
 H   -2.85594   -2.48358    2.68761
 H   -3.17971   -3.55711    4.06721
Ca    0.20856    1.63144    4.68472
