30
Energy:  -45057.1328451  eV PBE+vdW (tier 2 basis)
C    0.413998  1.008760  1.452144
C    -0.238049  0.252451  2.556585
O    0.285706  0.188938  3.708426
H    1.401479  0.569350  1.252523
H    0.589867  2.041631  1.782243
H    -0.170856  1.016686  0.526707
N    -1.416631  -0.373653  2.318234
C    -2.067392  -1.095802  3.400675
C    -1.507483  -2.517953  3.595223
O    -0.685555  -2.663670  4.556313
H    -1.828014  -0.316662  1.390197
H    -1.659584  -0.574013  4.270511
C    -3.575355  -0.881019  3.644107
C    -3.765184  0.155921  4.764781
S    -2.820699  -0.296236  6.296823
C    -3.082109  1.187990  7.313386
H    -4.046990  -1.831671  3.927340
H    -4.096465  -0.526006  2.743631
H    -4.819315  0.216363  5.060973
H    -3.434454  1.154978  4.447808
H    -4.154645  1.295645  7.508122
H    -2.684540  2.084715  6.826978
H    -2.568945  1.013225  8.265742
N    -1.840339  -3.534732  2.820894
C    -2.749911  -3.556062  1.677241
H    -1.387019  -4.418394  3.062109
H    -2.200902  -3.843196  0.772087
H    -3.204152  -2.573968  1.523267
H    -3.548594  -4.286475  1.854034
Ca    0.056134  -0.889141  5.627896
