30
Energy:  -45056.6226979  eV PBE+vdW (tier 2 basis)
 C    0.01602   -0.02974   -0.06581
 C   -0.13202    0.13962    1.40684
 O    0.82922    0.60246    2.10639
 H    0.89748   -0.64920   -0.27822
 H    0.20567    0.95651   -0.51409
 H   -0.86416   -0.47388   -0.54153
 N   -1.28944   -0.18824    1.99186
 C   -1.62205    0.07229    3.40417
 C   -0.84559   -0.88601    4.33024
 O    0.26697   -0.45893    4.81051
 H   -2.03891   -0.53219    1.39426
 H   -1.19846    1.05951    3.64839
 C   -3.14646    0.17153    3.59535
 C   -3.72186    1.48567    3.03651
 S   -5.53312    1.49861    2.95927
 C   -5.97736    1.75909    4.69833
 H   -3.36576    0.09971    4.67000
 H   -3.65901   -0.67374    3.11477
 H   -3.40617    1.64292    1.99415
 H   -3.36109    2.34908    3.61685
 H   -5.54261    2.69076    5.07998
 H   -5.70570    0.91040    5.33711
 H   -7.06940    1.85654    4.70642
 N   -1.25267   -2.10054    4.65293
 C   -2.43607   -2.85698    4.22741
 H   -0.63325   -2.57661    5.31058
 H   -2.21860   -3.91957    4.37047
 H   -2.65002   -2.69162    3.16800
 H   -3.31134   -2.59256    4.83294
Ca    1.85819    0.66281    3.95624
