30
Energy:  -45057.7723901  eV PBE+vdW (tier 2 basis)
 C   -1.30981    0.27594   -0.56141
 C   -0.80798   -0.03507    0.81050
 O    0.34632   -0.52679    0.97839
 H   -2.29979    0.74344   -0.57214
 H   -1.35018   -0.65896   -1.13863
 H   -0.59252    0.93263   -1.07075
 N   -1.62320    0.20825    1.85274
 C   -1.39832   -0.12772    3.27289
 C   -0.32832    0.79083    3.89656
 O    0.89127    0.72457    3.56810
 H   -2.52972    0.60807    1.62637
 H   -2.34681    0.12946    3.76017
 C   -1.17978   -1.66270    3.47926
 C   -0.24296   -2.10174    4.61469
 S    1.48902   -2.50353    4.15180
 C    1.31137   -4.12003    3.33688
 H   -0.84994   -2.10814    2.53397
 H   -2.17388   -2.08876    3.66855
 H   -0.62391   -3.01324    5.09231
 H   -0.15215   -1.35624    5.41610
 H    2.31881   -4.43272    3.03816
 H    0.65974   -4.07535    2.45767
 H    0.92483   -4.83902    4.06779
 N   -0.73782    1.65985    4.80973
 C    0.15068    2.60544    5.49327
 H   -1.72674    1.69155    5.04094
 H   -0.43056    3.14268    6.24656
 H    0.56768    3.32250    4.77586
 H    0.97131    2.06758    5.98132
Ca    2.08013   -0.52934    2.25871
