30
Energy:  -45057.1272891  eV PBE+vdW (tier 2 basis)
C    1.690586  0.487169  1.219737
C    0.959822  -0.133182  2.363462
O    1.613595  -0.563544  3.380248
H    2.445700  -0.211898  0.837025
H    2.233031  1.369506  1.588831
H    1.023771  0.786056  0.404907
N    -0.363118  -0.214639  2.298675
C    -1.289012  -0.600301  3.375207
C    -1.317913  -2.133961  3.573753
O    -0.278616  -2.707771  4.043692
H    -0.850434  0.189138  1.451651
H    -0.870190  -0.229656  4.326942
C    -2.643094  0.113080  3.166553
C    -3.351549  -0.001665  1.801612
S    -2.530496  0.791991  0.365563
C    -2.770272  2.554646  0.726243
H    -2.475203  1.176922  3.385969
H    -3.329025  -0.225902  3.959143
H    -4.358307  0.427698  1.892385
H    -3.494958  -1.038751  1.462343
H    -2.265350  2.872184  1.645396
H    -3.841159  2.782242  0.773671
H    -2.333608  3.092358  -0.123319
N    -2.413758  -2.814925  3.305931
C    -2.600479  -4.255472  3.488186
H    -3.206660  -2.291761  2.942394
H    -2.729285  -4.736823  2.510741
H    -3.497867  -4.428441  4.093354
H    -1.727831  -4.674415  3.992509
Ca    1.732682  -2.259882  4.592193
