30
Energy:  -45057.0931473  eV PBE+vdW (tier 2 basis)
 C    0.01251    0.28113   -0.09003
 C    0.02417    0.08815    1.38964
 O    1.13007   -0.03884    2.01106
 H    0.52682    1.22668   -0.31749
 H   -0.99483    0.31410   -0.51742
 H    0.58912   -0.51739   -0.57428
 N   -1.14164    0.06512    2.04362
 C   -1.36482    0.09596    3.50590
 C   -1.15760   -1.31506    4.10325
 O    0.04115   -1.78392    4.10095
 H   -1.98070    0.15528    1.47363
 H   -0.55431    0.70436    3.93995
 C   -2.70317    0.82464    3.73232
 C   -3.19247    0.94218    5.18821
 S   -4.57185   -0.23538    5.42534
 C   -4.73400   -0.27233    7.22975
 H   -3.48713    0.34874    3.11853
 H   -2.57040    1.83255    3.31546
 H   -3.55316    1.95761    5.38751
 H   -2.39385    0.72769    5.91443
 H   -5.55343   -0.96671    7.44748
 H   -5.00671    0.72238    7.59916
 H   -3.81564   -0.62564    7.71239
 N   -2.15620   -2.00155    4.59458
 C   -2.01217   -3.33672    5.17584
 H   -3.09390   -1.52785    4.75100
 H   -1.66253   -4.04697    4.41748
 H   -2.99404   -3.65266    5.53896
 H   -1.30038   -3.32613    6.01087
Ca    1.98906   -1.34777    3.43111
