30
Energy:  -45057.0467736  eV PBE+vdW (tier 2 basis)
 C    0.26767    0.94773    0.71359
 C   -0.00627    0.53319    2.11879
 O    0.87552    0.70244    3.02365
 H    0.44776    2.03270    0.70143
 H   -0.55017    0.71425    0.02430
 H    1.19049    0.46925    0.36015
 N   -1.19000   -0.01219    2.41902
 C   -1.68582   -0.30606    3.77415
 C   -1.08858   -1.61754    4.30160
 O    0.10636   -1.59852    4.75561
 H   -1.84857   -0.13272    1.65196
 H   -1.29821    0.49356    4.44071
 C   -3.20588   -0.14216    3.83630
 C   -3.61123    1.34487    3.74020
 S   -2.78916    2.43404    4.94566
 C   -3.73639    2.08624    6.45613
 H   -3.55976   -0.54706    4.79526
 H   -3.71301   -0.71454    3.03970
 H   -4.69901    1.43986    3.84836
 H   -3.35903    1.76457    2.75632
 H   -3.32805    2.75081    7.22607
 H   -3.63200    1.04896    6.79438
 H   -4.79266    2.33546    6.30358
 N   -1.81135   -2.71998    4.29049
 C   -1.38679   -4.03496    4.77514
 H   -2.75786   -2.64789    3.92197
 H   -1.34004   -4.73931    3.93545
 H   -2.11388   -4.40135    5.50905
 H   -0.40291   -3.94900    5.24041
Ca    1.69958   -0.17251    4.75363
