30
Energy:  -45056.9580674  eV PBE+vdW (tier 2 basis)
 C   -0.36269    0.03864   -0.00746
 C   -0.26976   -0.18612    1.46202
 O    0.80707   -0.65578    1.97856
 H   -0.26306   -0.92267   -0.53117
 H    0.48070    0.66486   -0.32886
 H   -1.30427    0.51298   -0.30098
 N   -1.31618    0.10913    2.22938
 C   -1.26645    0.10469    3.69928
 C   -1.10639   -1.33345    4.23839
 O    0.05911   -1.69117    4.63405
 H   -2.09432    0.70128    1.82965
 H   -0.32702    0.59862    3.99913
 C   -2.41987    0.91972    4.31601
 C   -2.52025    2.35717    3.78199
 S   -3.17600    2.51959    2.07656
 C   -4.94534    2.20480    2.32521
 H   -2.23955    0.95267    5.40138
 H   -3.38501    0.41813    4.18365
 H   -1.53904    2.85292    3.76228
 H   -3.15666    2.95405    4.44779
 H   -5.40754    2.29089    1.33520
 H   -5.36968    2.97212    2.98238
 H   -5.14588    1.20367    2.72423
 N   -2.09519   -2.20865    4.29237
 C   -3.48205   -2.11542    3.82434
 H   -1.82935   -3.09908    4.71610
 H   -3.79611   -3.11623    3.51040
 H   -3.55946   -1.44622    2.96377
 H   -4.14514   -1.77929    4.63113
Ca    1.88877   -1.55070    3.54094
