30
Energy:  -45057.0990935  eV PBE+vdW (tier 2 basis)
 C   -2.12425   -1.42137    0.42178
 C   -0.87994   -1.16411    1.19543
 O    0.23447   -1.64210    0.84212
 H   -1.95987   -1.25469   -0.64940
 H   -2.99249   -0.85713    0.77434
 H   -2.35033   -2.49450    0.53839
 N   -0.90945   -0.39460    2.32640
 C   -1.61766    0.87918    2.46106
 C   -1.36511    1.72131    1.19005
 O   -0.30787    1.51175    0.51427
 H   -0.12281   -0.54241    2.96201
 H   -2.69242    0.70608    2.60445
 C   -1.07458    1.62816    3.70401
 C    0.31706    2.26837    3.59968
 S    1.70270    1.07496    3.35271
 C    3.15662    2.06769    3.80706
 H   -1.11945    0.93490    4.55680
 H   -1.77583    2.44058    3.94191
 H    0.53592    2.75848    4.55744
 H    0.36521    3.03292    2.81345
 H    4.03232    1.42317    3.66973
 H    3.07630    2.33716    4.86586
 H    3.23929    2.96108    3.17995
 N   -2.21227    2.67372    0.83607
 C   -3.46185    3.09263    1.47829
 H   -1.92518    3.20644    0.01339
 H   -3.28670    3.94714    2.14423
 H   -3.90887    2.27249    2.04740
 H   -4.16796    3.39449    0.69814
Ca    1.46264    0.20520    0.66061
