30
Energy:  -45056.6039470  eV PBE+vdW (tier 2 basis)
 C   -0.23820   -0.02739   -0.19028
 C   -0.25260   -0.07309    1.29852
 O    0.83215    0.03135    1.96159
 H    0.45293   -0.78907   -0.57508
 H    0.15713    0.94914   -0.50666
 H   -1.22658   -0.17290   -0.63785
 N   -1.41958   -0.21192    1.94027
 C   -1.59227   -0.08975    3.39805
 C   -1.03319   -1.34397    4.10868
 O    0.17762   -1.28087    4.52926
 H   -2.26434   -0.25893    1.37379
 H   -0.91160    0.71051    3.72808
 C   -3.01886    0.36957    3.74462
 C   -3.22835    0.57643    5.24960
 S   -4.85589    1.26130    5.66619
 C   -5.92485   -0.18617    5.44703
 H   -3.76635   -0.32704    3.34259
 H   -3.17989    1.32891    3.23107
 H   -2.51100    1.31613    5.63528
 H   -3.06643   -0.35280    5.82068
 H   -6.92716    0.14333    5.74539
 H   -5.62358   -1.00609    6.11250
 H   -5.97928   -0.52265    4.40413
 N   -1.70502   -2.46957    4.27322
 C   -3.06800   -2.83487    3.87335
 H   -1.18189   -3.18548    4.77975
 H   -3.13170   -3.92686    3.87386
 H   -3.29096   -2.48150    2.86259
 H   -3.80643   -2.44047    4.58294
Ca    1.94620   -0.43519    3.70073
