30
Energy:  -45056.4479048  eV PBE+vdW (tier 2 basis)
 C    0.86545   -1.13041    1.35606
 C   -0.05014    0.04778    1.21593
 O    0.25135    1.04630    0.54176
 H    1.76351   -0.80579    1.90041
 H    1.19592   -1.44642    0.35934
 H    0.42088   -1.98096    1.88392
 N   -1.25787   -0.02233    1.86703
 C   -2.18354    1.09302    2.07487
 C   -2.83019    1.66491    0.80243
 O   -4.09504    1.94843    0.86128
 H   -1.46548   -0.87896    2.36883
 H   -3.02634    0.66302    2.63344
 C   -1.53511    2.20665    2.94326
 C   -2.30487    3.50869    3.14402
 S   -3.96786    3.46191    3.93528
 C   -3.73438    2.54784    5.48759
 H   -0.57875    2.49063    2.47846
 H   -1.28085    1.75558    3.91220
 H   -2.48695    4.03989    2.19834
 H   -1.71476    4.19015    3.77126
 H   -3.45305    1.50471    5.31596
 H   -4.68561    2.59922    6.02929
 H   -2.96815    3.06870    6.07308
 N   -2.09600    1.89567   -0.24825
 C   -2.55389    2.43066   -1.52504
 H   -1.06585    1.65450   -0.10012
 H   -3.64494    2.48537   -1.55181
 H   -2.19771    1.77632   -2.32923
 H   -2.12557    3.42937   -1.67995
Ca   -5.68937    2.54148    2.00731
