30
Energy:  -45057.2275703  eV PBE+vdW (tier 2 basis)
 C    2.07747   -0.29688    2.14076
 C    0.77579   -0.48517    2.83767
 O    0.72506   -0.72778    4.08074
 H    1.97096   -0.07336    1.07445
 H    2.68377   -1.20518    2.26265
 H    2.62845    0.51755    2.63096
 N   -0.37325   -0.38732    2.12750
 C   -1.65002   -0.53625    2.80813
 C   -2.06791   -2.00636    2.99985
 O   -1.87340   -2.50159    4.15441
 H   -0.32230   -0.18411    1.13239
 H   -1.40072   -0.24266    3.83262
 C   -2.75923    0.48519    2.51350
 C   -2.74605    1.57423    3.61226
 S   -2.69374    0.98821    5.35917
 C   -4.30140    0.15826    5.55156
 H   -3.73669   -0.01398    2.49122
 H   -2.63560    0.97028    1.53430
 H   -3.62100    2.23144    3.53314
 H   -1.85472    2.21211    3.52766
 H   -4.39743   -0.09619    6.61359
 H   -4.38202   -0.74990    4.94458
 H   -5.09693    0.86665    5.29412
 N   -2.59621   -2.68922    1.99959
 C   -3.01017   -4.09470    2.05513
 H   -2.73636   -2.20170    1.11731
 H   -2.46916   -4.66522    1.29111
 H   -4.08716   -4.16902    1.86335
 H   -2.78308   -4.49439    3.04564
Ca   -0.71990   -1.31601    5.63016
