30
Energy:  -45056.0865169  eV PBE+vdW (tier 2 basis)
 C   -0.91401   -1.53596    1.03664
 C   -0.25626   -0.63270    2.01971
 O    0.96727   -0.80325    2.34229
 H   -0.44408   -1.44816    0.04631
 H   -1.99248   -1.37909    0.95203
 H   -0.72889   -2.56874    1.36898
 N   -0.93739    0.38816    2.58892
 C   -1.74287    1.34009    1.81778
 C   -0.80462    2.00309    0.77457
 O    0.46782    1.89043    0.88755
 H   -0.46593    0.80529    3.39402
 H   -2.54237    0.80298    1.28552
 C   -2.38225    2.35923    2.80071
 C   -3.44930    3.28983    2.21343
 S   -4.21109    4.35256    3.47685
 C   -5.34951    3.20053    4.29306
 H   -1.59101    2.96618    3.26816
 H   -2.83469    1.75139    3.59795
 H   -4.23500    2.72093    1.68911
 H   -3.01525    4.00849    1.50362
 H   -5.88588    3.80605    5.03336
 H   -4.83092    2.39440    4.82528
 H   -6.07845    2.79523    3.58120
 N   -1.35811    2.68573   -0.20674
 C   -0.65927    3.44087   -1.24925
 H   -2.37687    2.71216   -0.23170
 H   -1.08740    4.44797   -1.30816
 H   -0.78630    2.94208   -2.21823
 H    0.40186    3.50970   -1.00271
Ca    2.17594    0.83626    1.64917
