30
Energy:  -45056.3580295  eV PBE+vdW (tier 2 basis)
 C    0.22749   -0.63791    0.23025
 C   -0.03393   -0.34157    1.66666
 O    0.73499   -0.85082    2.57552
 H    1.25054   -0.33384   -0.02987
 H   -0.47938   -0.13522   -0.43686
 H    0.16302   -1.72357    0.07001
 N   -1.04231    0.43136    2.00202
 C   -1.56467    0.72628    3.33444
 C   -3.10013    0.88105    3.05511
 O   -3.43678    1.09549    1.88854
 H   -1.74842    0.73738    1.29762
 H   -1.35342   -0.11917    4.00509
 C   -1.03048    2.05356    3.91172
 C    0.47906    2.21793    4.07046
 S    1.35976    1.17680    5.29995
 C    0.52007    1.46725    6.88249
 H   -1.53466    2.24610    4.86839
 H   -1.35414    2.86777    3.24316
 H    0.70920    3.25097    4.36475
 H    1.02169    2.03265    3.13313
 H    1.11090    0.95835    7.65238
 H   -0.50410    1.08301    6.87754
 H    0.53617    2.54489    7.08172
 N   -3.96776    0.80844    4.07835
 C   -3.71403    0.56633    5.49162
 H   -4.93326    0.97924    3.80044
 H   -3.59561    1.50310    6.05575
 H   -2.82268   -0.05755    5.62924
 H   -4.56188    0.01804    5.91598
Ca    1.82561   -1.28721    4.23987
