30
Energy:  -45057.6623355  eV PBE+vdW (tier 2 basis)
C    -1.410701  0.394226  -0.837000
C    -0.888537  0.051496  0.519989
O    0.252410  -0.478640  0.654867
H    -1.468543  -0.528051  -1.432499
H    -0.695498  1.055106  -1.344361
H    -2.395826  0.871542  -0.822459
N    -1.673411  0.310226  1.582280
C    -1.442321  -0.049343  2.995074
C    -0.343478  0.832655  3.615600
O    0.861157  0.753161  3.230476
H    -2.572835  0.735108  1.374788
H    -2.379869  0.221078  3.490226
C    -1.250748  -1.590953  3.188826
C    -0.285412  -2.060442  4.288013
S    1.421587  -2.497162  3.767617
C    1.177641  -4.091645  2.926555
H    -0.964628  -2.037464  2.229897
H    -2.246472  -1.995917  3.412189
H    -0.671190  -2.967769  4.769752
H    -0.150571  -1.325344  5.092810
H    0.498551  -4.013302  2.070835
H    0.798761  -4.816545  3.655593
H    2.166555  -4.421576  2.587417
N    -0.668456  1.682813  4.581401
C    -1.981689  1.963838  5.177876
H    0.119118  2.229450  4.932123
H    -1.829902  2.674263  5.995173
H    -2.432761  1.057964  5.599334
H    -2.660348  2.424300  4.449454
Ca    2.013417  -0.503071  1.897152
