30
Energy:  -45056.7567854  eV PBE+vdW (tier 2 basis)
 C   -0.68493   -1.44813   -1.47262
 C   -0.91973   -0.20040   -0.69981
 O   -0.12363    0.77897   -0.75875
 H   -1.29027   -2.29359   -1.13223
 H    0.37850   -1.70065   -1.53365
 H   -1.01922   -1.22286   -2.50172
 N   -2.09386   -0.01174   -0.00566
 C   -2.61564   -0.69235    1.18914
 C   -2.66597    0.41540    2.28198
 O   -1.82402    1.36522    2.24735
 H   -2.31818    0.98314    0.02633
 H   -3.64732   -1.02732    0.99822
 C   -1.83335   -1.93330    1.69468
 C   -0.30012   -1.94721    1.80117
 S    0.50815   -0.64098    2.81931
 C    2.21229   -1.27507    2.85991
 H   -2.09228   -2.77927    1.04122
 H   -2.26573   -2.18730    2.67270
 H    0.18530   -1.95501    0.82024
 H   -0.02737   -2.89108    2.29299
 H    2.80349   -0.55092    3.43202
 H    2.62752   -1.38992    1.85309
 H    2.21813   -2.23294    3.39204
 N   -3.59622    0.31352    3.21233
 C   -3.77193    1.21986    4.35000
 H   -4.26196   -0.45297    3.12952
 H   -3.61744    0.67013    5.28632
 H   -4.79026    1.62533    4.33492
 H   -3.04984    2.03526    4.27513
Ca    0.13594    1.68888    1.28292
