30
Energy:  -45056.7958638  eV PBE+vdW (tier 2 basis)
 C   -0.56391    0.19598   -0.24696
 C   -0.52044    0.07411    1.23811
 O    0.59163    0.15130    1.85922
 H    0.12803   -0.52590   -0.69981
 H   -0.20239    1.19801   -0.52223
 H   -1.56536    0.05272   -0.66542
 N   -1.66269   -0.10126    1.90967
 C   -1.83882   -0.04875    3.37390
 C   -1.36382   -1.36796    4.02152
 O   -0.10829   -1.57583    4.14365
 H   -2.51633   -0.15614    1.35748
 H   -1.14329    0.71887    3.75231
 C   -3.27243    0.38599    3.71798
 C   -3.58493    1.84155    3.32787
 S   -5.20960    2.40453    3.90927
 C   -6.31358    1.67546    2.66850
 H   -3.41331    0.29318    4.80425
 H   -4.00129   -0.29040    3.23758
 H   -3.50960    2.00701    2.24205
 H   -2.86212    2.51773    3.80798
 H   -6.31981    0.57880    2.69434
 H   -6.07552    2.04236    1.66245
 H   -7.31851    2.02475    2.93352
 N   -2.25750   -2.23594    4.44651
 C   -1.97839   -3.51665    5.09855
 H   -3.23705   -1.97760    4.33760
 H   -2.48402   -3.54288    6.07102
 H   -0.90149   -3.62680    5.23905
 H   -2.35888   -4.33558    4.47582
Ca    1.70977   -0.75876    3.39868
