30
Energy:  -45057.3423324  eV PBE+vdW (tier 2 basis)
C    1.639568  -1.418464  1.033886
C    0.841184  -0.836554  2.147474
O    1.329932  -0.707412  3.310228
H    1.105579  -1.432613  0.078288
H    1.931844  -2.443828  1.300662
H    2.569860  -0.844431  0.924178
N    -0.429959  -0.433565  1.906961
C    -1.192597  0.165451  2.989373
C    -1.847627  -0.890792  3.903135
O    -1.260000  -1.169202  4.993931
H    -0.813856  -0.533315  0.970719
H    -0.401684  0.598821  3.615596
C    -2.015336  1.424002  2.735026
C    -2.219111  2.147135  4.088825
S    -0.741081  2.377678  5.166355
C    0.261998  3.573876  4.232036
H    -3.004084  1.236512  2.291465
H    -1.466972  2.066761  2.032500
H    -2.923768  1.604478  4.734530
H    -2.641013  3.147682  3.932628
H    0.617068  3.172631  3.277136
H    1.117789  3.828544  4.867867
H    -0.334264  4.479252  4.072155
N    -2.975974  -1.478228  3.547541
C    -3.646188  -2.513967  4.345778
H    -3.410174  -1.201419  2.671271
H    -4.521837  -2.862673  3.793071
H    -3.963324  -2.102135  5.311125
H    -2.964656  -3.353986  4.521104
Ca    0.699681  -0.256239  5.381156
