30
Energy:  -45055.9951011  eV PBE+vdW (tier 2 basis)
 C   -0.26043    0.31136   -0.29471
 C   -0.12934    0.18516    1.18139
 O    1.01043   -0.00545    1.72138
 H    0.40717    1.08932   -0.68822
 H   -1.28671    0.47906   -0.63164
 H    0.09345   -0.63874   -0.72779
 N   -1.21812    0.26636    1.98273
 C   -2.19828    1.36085    1.89977
 C   -1.40786    2.68530    1.92924
 O   -0.24869    2.70438    2.48992
 H   -1.05130   -0.05360    2.93888
 H   -2.77882    1.27812    0.97195
 C   -3.14660    1.21286    3.12639
 C   -4.32112    2.18791    3.22955
 S   -5.30498    1.89922    4.73182
 C   -6.31312    0.47036    4.24890
 H   -2.54301    1.29251    4.04514
 H   -3.52651    0.18140    3.07993
 H   -3.97423    3.22529    3.33314
 H   -4.97521    2.13418    2.34661
 H   -5.71672   -0.43351    4.07896
 H   -6.97576    0.28597    5.10279
 H   -6.93070    0.70270    3.37320
 N   -1.88732    3.79793    1.40666
 C   -3.12397    4.03605    0.65615
 H   -1.29244    4.61690    1.54642
 H   -3.82029    4.63182    1.25838
 H   -3.60586    3.09577    0.38137
 H   -2.87527    4.59209   -0.25501
Ca    1.57948    1.68350    2.93943
