30
Energy:  -45056.0643563  eV PBE+vdW (tier 2 basis)
 C   -0.90639   -0.05727   -0.34563
 C   -0.25996   -0.27689    0.97855
 O    0.99256   -0.51476    1.05794
 H   -0.63240    0.92666   -0.75598
 H   -1.99613   -0.14546   -0.31589
 H   -0.49996   -0.80505   -1.04079
 N   -0.97974   -0.22894    2.12100
 C   -1.93604    0.83691    2.41434
 C   -1.09723    2.13147    2.67149
 O    0.17397    2.11916    2.50650
 H   -0.48856   -0.59358    2.93985
 H   -2.54455    1.01232    1.51387
 C   -2.85598    0.44334    3.59479
 C   -4.26017    1.05609    3.55947
 S   -5.09113    0.60078    5.10970
 C   -6.78549    1.13491    4.75240
 H   -2.36152    0.68415    4.54965
 H   -2.97034   -0.64931    3.56558
 H   -4.25550    2.15974    3.46455
 H   -4.82024    0.66679    2.69537
 H   -7.20437    0.58581    3.90132
 H   -7.36418    0.88946    5.65033
 H   -6.83887    2.21699    4.58495
 N   -1.73907    3.21123    3.05847
 C   -1.15136    4.51702    3.36366
 H   -2.74871    3.11494    3.18988
 H   -0.12202    4.55178    3.00155
 H   -1.16898    4.68724    4.44766
 H   -1.74223    5.29664    2.87027
Ca    2.00955    1.12861    1.99784
