30
Energy:  -45056.9100484  eV PBE+vdW (tier 2 basis)
 C    0.04834    0.32030    0.11465
 C    0.07662    0.15296    1.59163
 O    1.14947   -0.06687    2.22136
 H    0.80758    1.04213   -0.21014
 H   -0.93576    0.58669   -0.28172
 H    0.33789   -0.65052   -0.32057
 N   -1.07610    0.22655    2.32592
 C   -2.09753    1.26039    2.19622
 C   -1.40759    2.63408    2.02947
 O   -0.23299    2.81407    2.47759
 H   -0.98653   -0.17962    3.25546
 H   -2.72603    1.07203    1.31523
 C   -3.02392    1.25557    3.45418
 C   -2.46197    0.74124    4.78844
 S   -0.97100    1.49051    5.56034
 C   -1.46396    3.21886    5.82974
 H   -3.89011    0.61547    3.23314
 H   -3.42779    2.26698    3.59133
 H   -2.23514   -0.33592    4.76337
 H   -3.25240    0.83783    5.54591
 H   -0.66475    3.68342    6.41948
 H   -2.38182    3.23071    6.42882
 H   -1.60190    3.76775    4.89278
 N   -2.05859    3.61606    1.42484
 C   -3.39146    3.57972    0.80677
 H   -1.54736    4.49737    1.37347
 H   -4.17744    3.40934    1.55192
 H   -3.44526    2.81031    0.02678
 H   -3.56949    4.55100    0.33788
Ca    1.18000    1.62657    3.67144
