30
Energy:  -45057.1126297  eV PBE+vdW (tier 2 basis)
C    1.389475  0.283040  0.916547
C    0.754327  -0.215865  2.171598
O    1.448244  -0.849499  3.032929
H    0.682126  0.756580  0.228139
H    1.900709  -0.542173  0.404417
H    2.163894  1.014824  1.190445
N    -0.544641  0.027538  2.374609
C    -1.326298  -0.178722  3.614856
C    -1.723580  -1.665769  3.741598
O    -0.779690  -2.519287  3.930507
H    -1.031209  0.524741  1.631198
H    -0.640710  0.007007  4.458506
C    -2.427838  0.898562  3.631013
C    -3.316906  0.975027  4.887857
S    -4.903370  0.073208  4.798362
C    -5.871470  1.135666  3.691592
H    -3.055983  0.799524  2.730950
H    -1.897982  1.857373  3.525422
H    -3.547487  2.024224  5.109932
H    -2.805344  0.580589  5.777241
H    -6.844580  0.643367  3.582095
H    -5.414864  1.240611  2.700911
H    -6.020238  2.116902  4.156024
N    -2.975422  -2.036252  3.668150
C    -3.423259  -3.423028  3.805035
H    -3.732986  -1.299490  3.731008
H    -3.002807  -3.881995  4.707744
H    -3.118792  -4.008496  2.929111
H    -4.514514  -3.417939  3.874201
Ca    1.312194  -2.662268  4.114005
