30
Energy:  -45057.1690242  eV PBE+vdW (tier 2 basis)
C    -0.261333  0.170984  -0.436614
C    -0.093322  0.223051  1.040524
O    1.046244  0.177929  1.583191
H    0.424278  0.867884  -0.933187
H    -1.289803  0.329147  -0.773627
H    0.043495  -0.841234  -0.751207
N    -1.183370  0.322575  1.862328
C    -2.311578  1.232507  1.658830
C    -1.758497  2.612793  1.225784
O    -0.598461  2.963997  1.601636
H    -1.023624  0.009567  2.822074
H    -2.993851  0.840297  0.889986
C    -3.098050  1.361845  2.987701
C    -2.471685  2.194150  4.114950
S    -0.893308  1.518164  4.789854
C    -0.741804  2.395386  6.375164
H    -3.328815  0.345286  3.339367
H    -4.068082  1.826433  2.759940
H    -3.166487  2.187071  4.965089
H    -2.312601  3.239637  3.820920
H    -0.726341  3.480199  6.229622
H    0.195575  2.058755  6.832499
H    -1.577662  2.097468  7.017606
N    -2.548808  3.390580  0.506809
C    -2.238679  4.752156  0.063291
H    -3.452643  3.012008  0.229283
H    -2.292621  4.800121  -1.030665
H    -1.232773  5.017764  0.394703
H    -2.967101  5.453270  0.488018
Ca    1.032708  2.052208  2.784131
