28
Energy: -172796.520262 eV PBE+vdW (tier 2 basis)
N    1.105184  0.874588  0.546711
C    0.253848  0.243316  1.469209
C    1.126776  -0.547640  2.600331
O    1.731213  -1.605448  2.305406
H    1.764099  0.323055  0.004735
H    0.105643  -0.854066  -1.083563
H    -0.259761  1.013478  2.054476
C    -0.831954  -0.681778  0.864473
C    -0.490913  -1.501005  -0.406657
C    0.285205  -2.764500  -0.212847
C    -1.709934  -1.997663  -1.157886
N    -0.350519  -3.764163  -0.761912
C    -1.573780  -3.381218  -1.357953
C    -2.832207  -1.351940  -1.657662
C    -2.496214  -4.169468  -2.034668
C    -3.783894  -2.122732  -2.339799
C    -3.620692  -3.503425  -2.525595
H    -1.643373  -0.000069  0.573317
H    -1.248154  -1.336406  1.641231
H    1.238792  -2.894207  0.291499
H    0.002733  -4.724000  -0.775440
H    -2.979515  -0.278742  -1.540631
H    -2.356658  -5.239718  -2.180772
H    -4.672080  -1.636167  -2.740476
H    -4.381660  -4.065850  -3.063968
O    1.154980  0.022899  3.722318
H    1.444586  1.805873  0.770811
Cd    2.601249  -1.496007  4.545313
