28
Energy: -172796.483341 eV PBE+vdW (tier 2 basis)
N    -1.164059  0.393334  1.082129
C    -0.174554  -0.384505  1.673778
C    1.375710  -0.066496  1.151650
O    2.181751  -1.031495  1.157898
H    -1.148167  1.400967  1.209727
H    0.781111  -2.806481  0.210318
H    -0.025369  -0.048488  2.716068
C    -0.479282  -1.890742  1.714133
C    -0.305059  -2.743137  0.415907
C    -0.801416  -4.126116  0.686764
C    -1.068757  -2.382968  -0.841127
N    -1.697764  -4.465846  -0.195636
C    -1.916889  -3.456464  -1.164923
C    -1.018493  -1.297354  -1.709916
C    -2.753790  -3.492699  -2.272419
C    -1.858220  -1.300276  -2.833172
C    -2.718265  -2.372273  -3.104797
H    -1.514588  -1.975649  2.071584
H    0.167772  -2.338345  2.479191
H    -0.518596  -4.788029  1.503427
H    -2.180235  -5.368507  -0.200373
H    -0.329088  -0.467531  -1.553047
H    -3.393507  -4.346394  -2.492744
H    -1.832462  -0.455013  -3.519606
H    -3.353675  -2.342037  -3.988288
O    1.654674  1.121149  0.890856
H    -1.640840  0.067115  0.247763
Cd    3.879060  0.503281  0.667851
