28
Energy: -172796.341864 eV PBE+vdW (tier 2 basis)
N    0.606751  1.065812  1.747276
C    1.091924  -0.200305  2.408786
C    2.554141  -0.544787  2.010216
O    3.410176  0.413444  1.712087
H    0.230902  0.857127  0.814373
H    -0.164867  1.483442  2.276641
H    1.132040  0.015192  3.488595
C    0.098951  -1.367274  2.144445
C    0.279472  -2.605560  2.980422
C    1.056993  -3.729706  2.611680
C    -0.302615  -2.921984  4.210010
N    0.973114  -4.678267  3.559775
C    0.141256  -4.233175  4.574007
C    -1.244538  -2.216515  5.113981
C    -0.253194  -4.875505  5.725817
C    -1.625270  -2.970963  6.338361
C    -1.152588  -4.219186  6.618169
H    0.156563  -1.638948  1.079680
H    -0.917474  -0.980071  2.313375
H    1.656330  -3.879393  1.719909
H    1.438734  -5.581255  3.526359
H    -2.175663  -1.943788  4.577050
H    0.106390  -5.878734  5.961417
H    -2.316392  -2.482397  7.025743
H    -1.461023  -4.734321  7.526209
O    2.931774  -1.703937  2.033046
H    -0.845806  -1.233463  5.431464
Cd    2.551915  2.302518  1.495111
