28
Energy: -172796.471348 eV PBE+vdW (tier 2 basis)
N    -0.839796  0.396039  0.990897
C    0.232707  -0.207483  1.723052
C    1.599871  0.385644  1.232578
O    1.630336  1.628983  0.999321
H    -1.762815  0.061149  1.262395
H    -0.812622  1.415322  0.960726
H    0.282165  0.129009  2.784577
C    0.151782  -1.736315  1.756793
C    0.290999  -2.508214  0.410563
C    -0.747964  -2.220613  -0.624831
C    0.166070  -4.009316  0.567339
N    -1.344960  -3.329035  -0.975828
C    -0.848330  -4.461777  -0.292483
C    0.832402  -4.930892  1.361423
C    -1.241289  -5.790364  -0.412684
C    0.455952  -6.279460  1.263746
C    -0.560176  -6.701842  0.394722
H    -0.805095  -2.010802  2.225398
H    0.936419  -2.114578  2.423046
H    -1.000191  -1.262268  -1.070820
H    -2.079209  -3.378837  -1.686438
H    1.630515  -4.633681  2.040736
H    -2.029685  -6.107496  -1.093997
H    0.968559  -7.018834  1.877553
H    -0.821806  -7.757511  0.347400
O    2.611678  -0.371602  1.166695
H    1.273085  -2.243803  -0.029376
Cd    3.868398  1.492575  0.715495
