28
Energy: -172796.528443 eV PBE+vdW (tier 2 basis)
N    1.246872  0.127959  0.816795
C    0.458426  0.055572  2.058304
C    1.392480  0.333642  3.264021
O    2.377480  1.072811  3.149480
H    1.728105  -0.754282  0.617673
H    0.647622  0.332684  0.012876
H    -0.199675  0.941418  2.050660
C    -0.521455  -1.185600  2.147067
C    -0.019606  -2.467988  2.710635
C    0.729904  -3.468003  2.060489
C    -0.214070  -2.927164  4.054376
N    1.009891  -4.459866  2.933389
C    0.456962  -4.173027  4.178017
C    -0.922790  -2.419163  5.169443
C    0.475860  -4.900769  5.357910
C    -0.891837  -3.134841  6.370042
C    -0.205543  -4.350684  6.463696
H    -0.918849  -1.327568  1.132976
H    -1.379815  -0.846044  2.744562
H    1.050306  -3.535314  1.025017
H    1.516615  -5.310937  2.701959
H    -1.536044  -1.517197  5.098162
H    0.986185  -5.860000  5.439240
H    -1.433442  -2.756885  7.235325
H    -0.210708  -4.898869  7.404572
O    1.119302  -0.122425  4.459529
H    0.435810  -0.833298  4.496906
Cd    2.972791  1.824697  1.079508
