28
Energy: -172797.677641 eV PBE+vdW (tier 2 basis)
N    -0.055481  -1.109279  -0.100596
C    0.119292  -0.392485  1.191117
C    1.594265  -0.507372  1.601958
O    2.301446  -1.468648  1.270171
H    -1.052379  -1.245408  -0.291880
H    0.306923  -0.546985  -0.878684
H    -0.142672  0.670671  1.066097
C    -0.796013  -1.002985  2.314117
C    -0.273025  -2.216788  3.034209
C    0.247490  -2.190170  4.327081
C    -0.126467  -3.567388  2.586684
N    0.706383  -3.421130  4.678889
C    0.512548  -4.298816  3.639225
C    -0.447325  -4.292915  1.377173
C    0.821896  -5.652657  3.543432
C    -0.106846  -5.680909  1.298498
C    0.524462  -6.332256  2.353298
H    -1.779582  -1.195817  1.857244
H    -0.974560  -0.210394  3.052514
H    0.303256  -1.359659  5.024870
H    1.106155  -3.656729  5.583154
H    -1.252885  -3.933201  0.725563
H    1.287402  -6.181372  4.376085
H    -0.403183  -6.241039  0.412040
H    0.761684  -7.391149  2.268014
O    2.120765  0.405821  2.383536
H    1.536044  1.174911  2.535287
Cd    1.139668  -3.099688  0.248627
