28
Energy: -172796.605253 eV PBE+vdW (tier 2 basis)
N    -0.200379  -0.672482  0.098942
C    -0.451479  0.091808  1.243495
C    0.631429  1.338441  1.298615
O    1.741863  1.139549  1.845230
H    -0.514749  -0.338707  -0.807022
H    0.590821  -1.310208  0.078667
H    -1.412841  0.607906  1.129043
C    -0.364439  -0.749078  2.527500
C    -0.818139  -0.053038  3.836903
C    -2.294999  0.175272  3.947712
C    -0.536340  -0.855751  5.090501
N    -2.748927  -0.374397  5.040493
C    -1.742069  -1.022076  5.791883
C    0.625916  -1.403592  5.612666
C    -1.861417  -1.705325  6.996036
C    0.536238  -2.102281  6.825439
C    -0.681650  -2.250478  7.504674
H    0.673662  -1.076930  2.671199
H    -0.970252  -1.651441  2.368231
H    -2.954543  0.713903  3.270947
H    -3.729931  -0.337149  5.329995
H    1.586838  -1.298663  5.110102
H    -2.812196  -1.812440  7.516459
H    1.436749  -2.541112  7.252851
H    -0.708864  -2.799924  8.444117
O    0.275985  2.388404  0.708967
H    -0.329766  0.939755  3.910845
Cd    2.386655  3.244648  1.031391
