28
Energy: -172796.324297 eV PBE+vdW (tier 2 basis)
N    -0.014299  0.504049  0.054221
C    -0.258512  0.032948  1.358751
C    0.895244  0.300048  2.421196
O    0.958342  -0.297231  3.464724
H    -0.236328  1.475826  -0.145333
H    0.838820  0.193747  -0.407028
H    -1.112804  0.588377  1.781377
C    -0.564315  -1.517310  1.411565
C    -1.988036  -1.729018  1.098078
C    -3.064032  -1.763197  2.079716
C    -2.625868  -1.580639  -0.162823
N    -4.232230  -1.595906  1.447041
C    -4.027364  -1.492922  0.063501
C    -2.122804  -1.438715  -1.476700
C    -4.937719  -1.287659  -0.954421
C    -3.031362  -1.210030  -2.511303
C    -4.407492  -1.150137  -2.257708
H    -0.309836  -1.851646  2.425352
H    0.101447  -2.018892  0.697527
H    -2.988165  -1.713478  3.163962
H    -5.141617  -1.563112  1.904908
H    -1.059884  -1.544683  -1.684579
H    -6.010244  -1.213561  -0.777663
H    -2.672115  -1.099705  -3.533032
H    -5.096880  -0.994890  -3.087193
O    1.696171  1.276226  1.998707
H    2.367155  1.465175  2.690484
Cd    -2.406215  -4.567724  2.120449
