28
Energy: -172797.148957 eV PBE+vdW (tier 2 basis)
N    0.826427  -0.998006  0.250574
C    0.202309  0.025121  1.186004
C    1.331000  0.553551  2.094600
O    1.068698  1.546327  2.824926
H    0.145513  -1.740253  0.022014
H    1.664639  -1.380812  0.733105
H    -0.180915  0.847112  0.569473
C    -0.940672  -0.609036  2.015962
C    -2.037778  -1.142252  1.158587
C    -2.320403  -2.505714  0.947254
C    -3.032365  -0.404932  0.430988
N    -3.406712  -2.618283  0.149525
C    -3.881702  -1.356252  -0.191426
C    -3.322804  0.966446  0.280933
C    -4.985658  -0.995570  -0.954450
C    -4.430022  1.342036  -0.485527
C    -5.243754  0.381281  -1.096155
H    -1.305333  0.189131  2.680322
H    -0.529839  -1.397108  2.664435
H    -1.841274  -3.385272  1.368338
H    -3.840774  -3.498006  -0.118476
H    -2.713613  1.731247  0.763936
H    -5.636543  -1.737142  -1.416439
H    -4.668623  2.397553  -0.603405
H    -6.101976  0.699092  -1.686074
O    2.436099  -0.064876  2.062565
H    1.150035  -0.576792  -0.629899
Cd    3.169037  1.457409  3.784308
