28
Energy: -172797.76283 eV PBE+vdW (tier 2 basis)
N    -0.567699  0.701202  0.117439
C    -0.835760  0.499897  1.599971
C    0.282092  1.229814  2.357684
O    0.023273  1.696456  3.506878
H    -0.893105  1.621154  -0.213336
H    -1.017565  -0.019759  -0.464896
H    -1.817419  0.925468  1.833617
C    -0.781761  -1.028811  1.931358
C    -0.726931  -1.284198  3.409810
C    -1.804067  -1.403459  4.259926
C    0.437215  -1.213984  4.253559
N    -1.374622  -1.382836  5.570854
C    -0.024113  -1.220577  5.614608
C    1.813154  -1.100186  4.019826
C    0.823270  -0.992077  6.711045
C    2.676511  -0.777259  5.121865
C    2.156210  -0.719370  6.457010
H    0.100925  -1.464124  1.437048
H    -1.669197  -1.505711  1.490751
H    -2.862446  -1.489572  4.033632
H    -1.985770  -1.462316  6.378892
H    2.243317  -1.268541  3.030926
H    0.441640  -1.000280  7.731738
H    3.759142  -0.836723  4.982580
H    2.839464  -0.512079  7.278783
O    1.440823  1.169508  1.850828
H    0.460722  0.664787  -0.019889
Cd    2.158696  1.360574  4.133492
