28
Energy: -172797.260777 eV PBE+vdW (tier 2 basis)
N    -0.320111  0.088043  -0.047929
C    -0.566558  0.064266  1.446928
C    0.766914  0.657392  2.017352
O    0.782859  1.243126  3.177141
H    -0.702725  -0.721703  -0.551719
H    0.745827  0.103925  -0.081001
H    -1.421994  0.720526  1.653820
C    -0.854875  -1.406204  1.866808
C    -0.673846  -1.788877  3.310050
C    0.221513  -2.771370  3.731833
C    -1.337799  -1.340403  4.491243
N    0.141984  -2.940525  5.078230
C    -0.795852  -2.079549  5.595113
C    -2.333828  -0.336777  4.793954
C    -1.226076  -1.910820  6.907913
C    -2.748449  -0.169769  6.160010
C    -2.200173  -0.939207  7.181941
H    -0.178508  -2.050398  1.284836
H    -1.878416  -1.650764  1.539412
H    0.908560  -3.368331  3.138890
H    0.681826  -3.616549  5.612201
H    -3.004046  0.026966  4.006407
H    -0.817050  -2.520884  7.714247
H    -3.545714  0.540558  6.378133
H    -2.545815  -0.799810  8.204649
O    1.753198  0.543809  1.297464
H    -0.666875  0.943638  -0.500461
Cd    -0.747966  1.279693  4.589535
