28
Energy: -172796.978274 eV PBE+vdW (tier 2 basis)
N    1.402580  -2.161491  1.369125
C    0.153298  -2.007976  2.034458
C    -1.138381  -2.302549  1.245726
O    -2.243325  -2.558319  1.781519
H    1.608923  -3.107624  1.055363
H    1.570249  -1.497409  0.614783
H    0.116927  -2.760922  2.847114
C    0.054311  -0.574402  2.698533
C    0.398798  -0.649111  4.151467
C    1.683334  -0.808565  4.700506
C    -0.503784  -0.784445  5.229738
N    1.591080  -1.040897  6.031278
C    0.262052  -1.050915  6.409147
C    -1.945685  -0.697607  5.357618
C    -0.314703  -1.238339  7.651873
C    -2.518641  -0.893364  6.670829
C    -1.725622  -1.172281  7.764998
H    -0.942447  -0.131164  2.561560
H    0.743776  0.081559  2.152811
H    2.646441  -0.775285  4.199396
H    2.383913  -1.153885  6.658393
H    -2.468546  0.029505  4.716751
H    0.294213  -1.422094  8.538185
H    -3.592214  -0.756600  6.798323
H    -2.183000  -1.298451  8.744929
O    -1.006660  -2.294275  -0.052597
H    -1.855705  -2.499181  -0.504945
Cd    -2.630676  -2.349245  3.945679
