28
Energy: -172796.70103 eV PBE+vdW (tier 2 basis)
N    0.487739  -1.006854  0.419305
C    0.431423  -1.724572  1.631822
C    -0.817413  -2.616481  1.706219
O    -0.867433  -3.645347  2.407108
H    1.210549  -0.295806  0.343065
H    0.360742  -1.525616  -0.445742
H    1.286068  -2.451214  1.799758
C    0.482861  -0.697348  2.830526
C    0.429486  -1.200347  4.242697
C    1.517652  -1.839449  4.985178
C    -0.591678  -0.948534  5.181598
N    1.153635  -1.872863  6.312483
C    -0.116321  -1.367989  6.472747
C    -1.877095  -0.350194  5.073230
C    -0.877716  -1.225630  7.630031
C    -2.623908  -0.201738  6.219922
C    -2.130653  -0.636542  7.480761
H    -0.335522  0.014995  2.671121
H    1.422871  -0.142403  2.686334
H    2.575586  -1.796763  4.722916
H    1.756078  -2.191188  7.066847
H    -2.259765  -0.008108  4.112286
H    -0.512372  -1.538804  8.606953
H    -3.608399  0.260789  6.173313
H    -2.754674  -0.496479  8.363264
O    -1.831039  -2.206677  0.989436
H    -2.589348  -2.828746  1.065798
Cd    0.903645  -3.836092  3.787023
