28
Energy: -172797.588695 eV PBE+vdW (tier 2 basis)
N    1.619780  -1.459678  1.175183
C    0.581656  -0.402888  1.278983
C    1.231256  0.861683  1.856619
O    2.177616  0.808671  2.652624
H    2.218875  -1.304205  0.358113
H    1.170607  -2.372608  1.054342
H    0.187463  -0.175605  0.276885
C    -0.624895  -0.835516  2.227787
C    -0.476991  -2.174921  2.888507
C    -1.108321  -3.351450  2.483627
C    0.330715  -2.533859  4.011990
N    -0.721381  -4.388386  3.276836
C    0.173772  -3.938071  4.221065
C    1.213316  -1.817587  4.900056
C    0.836402  -4.629427  5.232676
C    1.892077  -2.551211  5.924290
C    1.715857  -3.924457  6.067458
H    -1.534344  -0.835226  1.615962
H    -0.775074  -0.055830  2.988130
H    -1.831422  -3.502088  1.686845
H    -1.074114  -5.338896  3.204089
H    1.059489  -0.742156  5.065292
H    0.676914  -5.698159  5.380987
H    2.508558  -2.005070  6.637983
H    2.236819  -4.453915  6.863187
O    0.732418  2.038567  1.563101
H    0.023875  2.013994  0.889513
Cd    2.706908  -1.312532  3.236175
