28
Energy: -172797.164917 eV PBE+vdW (tier 2 basis)
N    -0.265853  -0.032127  -0.003187
C    -0.546547  0.019800  1.429951
C    0.649356  0.774337  2.050865
O    0.661701  1.319798  3.185495
H    -0.708313  0.717359  -0.536850
H    -0.503877  -0.922198  -0.440299
H    -1.459664  0.600550  1.658121
C    -0.693129  -1.442906  1.965169
C    -0.581028  -1.739729  3.432466
C    0.345886  -2.643484  3.964693
C    -1.353942  -1.291431  4.540840
N    0.180966  -2.760222  5.306165
C    -0.850680  -1.946091  5.714752
C    -2.449496  -0.360116  4.720394
C    -1.405266  -1.775023  6.976061
C    -3.000472  -0.194551  6.042129
C    -2.484236  -0.883405  7.129448
H    0.069399  -2.043107  1.447842
H    -1.668519  -1.795968  1.594285
H    1.107221  -3.220548  3.447121
H    0.717448  -3.381473  5.906768
H    -3.091060  -0.106758  3.867849
H    -1.022570  -2.324229  7.837423
H    -3.869624  0.451381  6.164685
H    -2.931905  -0.751622  8.113005
O    1.693432  0.823547  1.302186
H    1.343097  0.410808  0.418411
Cd    -1.030325  1.398409  4.501211
