28
Energy: -172796.543907 eV PBE+vdW (tier 2 basis)
N    -0.015472  0.657232  0.397154
C    0.027861  -0.166130  1.535982
C    1.582177  -0.367799  2.011919
O    2.311896  -1.177384  1.389042
H    0.434251  0.344899  -0.459623
H    0.634962  -2.100665  -0.247449
H    -0.423957  0.367845  2.379312
C    -0.659125  -1.540757  1.414602
C    -0.380550  -2.363189  0.124887
C    -0.293349  -3.838860  0.345394
C    -1.388633  -2.279050  -1.006709
N    -1.039068  -4.467835  -0.519312
C    -1.737964  -3.589259  -1.379167
C    -1.993162  -1.219252  -1.668750
C    -2.634663  -3.908712  -2.390850
C    -2.905720  -1.510326  -2.693610
C    -3.216655  -2.827902  -3.054411
H    -1.739971  -1.354324  1.476167
H    -0.393835  -2.126561  2.304678
H    0.311533  -4.370208  1.076920
H    -1.111973  -5.486909  -0.574831
H    -1.792653  -0.184533  -1.396617
H    -2.876372  -4.938042  -2.652575
H    -3.391252  -0.689167  -3.219143
H    -3.929422  -3.012819  -3.856205
O    1.946038  0.362735  2.967695
H    0.043747  1.662066  0.540370
Cd    4.072328  -0.405093  2.785133
