28
Energy: -172796.917358 eV PBE+vdW (tier 2 basis)
N    -0.080028  -1.206351  0.337192
C    0.527110  -1.585865  1.606418
C    -0.097190  -2.973526  1.828308
O    -1.175478  -3.277992  2.396086
H    -0.259264  -0.208086  0.249952
H    0.441341  -1.529938  -0.475599
H    1.617963  -1.745680  1.547192
C    0.232317  -0.521795  2.678519
C    0.540220  -0.889374  4.100031
C    1.765833  -1.306318  4.638024
C    -0.385500  -0.937766  5.170550
N    1.615838  -1.619479  5.951094
C    0.304073  -1.423688  6.326954
C    -1.800976  -0.625157  5.296331
C    -0.322817  -1.608173  7.548716
C    -2.424286  -0.840327  6.578834
C    -1.704106  -1.325035  7.655466
H    -0.824392  -0.211015  2.590371
H    0.802012  0.374886  2.387698
H    2.737241  -1.385793  4.158486
H    2.367762  -1.921107  6.565765
H    -2.217975  0.188020  4.685970
H    0.229652  -1.960302  8.421036
H    -3.467826  -0.553412  6.705230
H    -2.196911  -1.455628  8.617535
O    0.597382  -3.906718  1.225474
H    0.132018  -4.772439  1.242831
Cd    -2.379011  -2.217942  3.817539
