28
Energy: -172796.452246 eV PBE+vdW (tier 2 basis)
N    2.078279  1.423283  3.185240
C    1.553374  0.017896  3.084505
C    0.516748  -0.123202  1.933905
O    0.678639  0.565346  0.822042
H    1.428607  2.015755  3.715832
H    2.968914  1.449276  3.691563
H    2.410799  -0.604446  2.781849
C    1.012104  -0.489091  4.456413
C    0.951090  -1.983400  4.612166
C    2.053169  -2.806142  4.928923
C    -0.162063  -2.836079  4.553351
N    1.658377  -4.090977  5.045662
C    0.293322  -4.159263  4.826862
C    -1.597264  -2.625108  4.279885
C    -0.546890  -5.255948  4.864530
C    -2.441036  -3.835027  4.353883
C    -1.935268  -5.079378  4.621238
H    0.017962  -0.054159  4.628320
H    1.672851  -0.089174  5.239619
H    3.091870  -2.531866  5.091841
H    2.262892  -4.872835  5.281144
H    -1.712569  -2.176348  3.267910
H    -0.158322  -6.252593  5.082147
H    -3.509137  -3.709188  4.173428
H    -2.591821  -5.946896  4.656083
O    -0.406743  -0.913019  2.036323
H    -2.034580  -1.834915  4.920986
Cd    2.079700  2.112495  0.972347
