28
Energy: -172797.839166 eV PBE+vdW (tier 2 basis)
N    -1.451856  1.091798  1.688155
C    -0.343076  0.263213  2.230803
C    0.562692  -0.145966  1.072791
O    0.152672  -0.331356  -0.083566
H    -2.204681  1.152909  2.380333
H    -1.133218  2.048314  1.503121
H    0.261571  0.850195  2.935081
C    -0.870041  -1.048381  2.965040
C    -2.355910  -1.254815  2.929790
C    -3.235953  -0.994111  3.981044
C    -3.168975  -1.714488  1.848506
N    -4.516687  -1.251319  3.596368
C    -4.527823  -1.681822  2.288705
C    -2.910545  -2.158636  0.500565
C    -5.594102  -2.052492  1.473463
C    -4.023747  -2.524798  -0.321946
C    -5.328771  -2.452522  0.154844
H    -0.535087  -0.987218  4.006533
H    -0.356930  -1.923091  2.541641
H    -3.015938  -0.660354  4.991316
H    -5.331344  -1.173970  4.199283
H    -1.934475  -2.599542  0.255250
H    -6.618880  -2.038241  1.846651
H    -3.830322  -2.923382  -1.317591
H    -6.154647  -2.747720  -0.489883
O    1.806260  -0.329618  1.440256
H    2.359820  -0.642526  0.690266
Cd    -2.126012  -0.114064  -0.177814
