28
Energy: -172796.714101 eV PBE+vdW (tier 2 basis)
N    -0.360485  -2.006726  1.809412
C    0.799047  -1.557984  1.147471
C    1.592933  -0.420484  2.010290
O    1.049515  0.699401  2.163961
H    -0.235347  -2.647737  2.588582
H    -0.140717  -1.391962  -2.207360
H    1.521005  -2.381387  1.090300
C    0.534780  -0.942882  -0.237540
C    -0.235877  -1.874277  -1.209256
C    0.304618  -3.252527  -1.407238
C    -1.699724  -2.142113  -0.956825
N    -0.667518  -4.122300  -1.344046
C    -1.920485  -3.525771  -1.073397
C    -2.782537  -1.304250  -0.719115
C    -3.164979  -4.131242  -0.956994
C    -4.049102  -1.888139  -0.589332
C    -4.238111  -3.274053  -0.704482
H    1.495320  -0.660155  -0.689050
H    -0.045138  -0.016039  -0.130599
H    1.327232  -3.551236  -1.629251
H    -0.544025  -5.125489  -1.502765
H    -2.665621  -0.222979  -0.648785
H    -3.305964  -5.205820  -1.065518
H    -4.912675  -1.250547  -0.404808
H    -5.239997  -3.688545  -0.605541
O    2.703034  -0.770055  2.487884
H    -1.107965  -1.333289  1.962790
Cd    2.873785  1.281586  3.490212
