28
Energy: -172796.628744 eV PBE+vdW (tier 2 basis)
N    0.407122  -0.603021  -0.083612
C    -0.231907  0.227932  0.840675
C    0.762603  1.493802  1.198749
O    1.673763  1.313741  2.040970
H    0.390050  -0.365449  -1.070366
H    1.169896  -1.206608  0.210665
H    -1.093763  0.705898  0.362760
C    -0.624610  -0.530019  2.117968
C    -1.351265  0.307733  3.208951
C    -1.686575  -0.569807  4.373426
C    -2.704799  0.895176  2.863208
N    -2.965639  -0.521453  4.617478
C    -3.657668  0.348259  3.741091
C    -3.127400  1.831103  1.927405
C    -5.011341  0.657433  3.726676
C    -4.490330  2.159183  1.883792
C    -5.416577  1.580951  2.761528
H    0.275828  -0.980833  2.559125
H    -1.284122  -1.346598  1.792583
H    -1.011749  -1.193618  4.956403
H    -3.422414  -1.046594  5.367882
H    -2.432579  2.325846  1.249512
H    -5.718646  0.215969  4.427582
H    -4.837585  2.888625  1.153388
H    -6.466086  1.863409  2.698912
O    0.568953  2.540700  0.533247
H    -0.657122  1.087325  3.579920
Cd    2.495213  3.424979  1.443170
