28
Energy: -172796.665767 eV PBE+vdW (tier 2 basis)
N    0.088333  0.528920  0.204610
C    0.031444  0.169522  1.635598
C    1.449554  0.071070  2.225168
O    2.448936  -0.166617  1.539859
H    0.123508  1.544981  0.072738
H    -0.763351  0.187980  -0.263561
H    -0.536801  0.931127  2.194845
C    -0.687580  -1.204801  1.800923
C    -2.077801  -1.189975  1.248245
C    -2.498994  -1.797557  0.045093
C    -3.246866  -0.627258  1.845734
N    -3.827515  -1.614898  -0.107534
C    -4.335480  -0.898298  0.973852
C    -3.495221  0.062858  3.054536
C    -5.633101  -0.495223  1.247284
C    -4.796784  0.476169  3.340750
C    -5.846564  0.204611  2.454989
H    -0.705036  -1.465601  2.869192
H    -0.088238  -1.983582  1.302495
H    -1.930281  -2.390354  -0.665569
H    -4.381383  -1.985759  -0.875564
H    -2.697036  0.250290  3.773244
H    -6.461688  -0.707145  0.572322
H    -5.004755  1.002798  4.270384
H    -6.856248  0.528936  2.702749
O    1.604555  0.170819  3.526797
H    0.786392  0.403023  4.007564
Cd    2.141338  -0.337954  -0.709576
