28
Energy: -172796.686661 eV PBE+vdW (tier 2 basis)
N    0.588560  0.758622  1.136054
C    0.460394  -0.274869  2.114348
C    1.551595  -1.372441  2.190499
O    1.642784  -2.206524  3.127007
H    1.410527  1.347584  1.256285
H    0.552064  0.428550  0.172372
H    0.529964  0.210058  3.104392
C    -0.930625  -0.973500  1.983934
C    -2.055120  -0.458686  2.825357
C    -3.363206  -0.222581  2.358744
C    -2.134373  -0.415078  4.235461
N    -4.208942  -0.075763  3.400271
C    -3.508316  -0.215495  4.584766
C    -1.174030  -0.533126  5.319507
C    -3.963067  -0.219037  5.888506
C    -1.681298  -0.538473  6.674818
C    -3.026861  -0.409005  6.937897
H    -0.830651  -2.057583  2.214569
H    -1.212007  -0.948579  0.923044
H    -3.720206  -0.171840  1.333846
H    -5.204075  0.120445  3.321731
H    -0.243130  0.048295  5.212580
H    -5.019751  -0.078439  6.120720
H    -0.969693  -0.564993  7.499634
H    -3.378230  -0.393028  7.968365
O    2.410632  -1.369784  1.208818
H    3.088100  -2.074278  1.320105
Cd    0.167784  -2.309573  4.776592
