28
Energy: -172796.110183 eV PBE+vdW (tier 2 basis)
N    -0.137287  0.338883  0.440557
C    -0.281000  -0.257377  1.698751
C    1.108759  -0.551302  2.365595
O    2.097803  -0.763886  1.715925
H    -0.438903  1.302028  0.332838
H    0.725606  0.122666  -0.058530
H    -0.882141  0.358430  2.376763
C    -0.956076  -1.759838  1.632087
C    -2.409215  -1.637055  1.577357
C    -3.179480  -1.263059  0.388381
C    -3.322601  -1.513080  2.672926
N    -4.402781  -0.883496  0.771553
C    -4.562616  -1.052835  2.155947
C    -3.191230  -1.723669  4.062126
C    -5.669086  -0.813772  2.950013
C    -4.295073  -1.477646  4.877889
C    -5.510736  -1.039475  4.334058
H    -0.638717  -2.296956  2.532458
H    -0.505741  -2.233198  0.753253
H    -2.794286  -1.042473  -0.605762
H    -5.127044  -0.539582  0.142345
H    -2.253980  -2.074428  4.493633
H    -6.616194  -0.458421  2.545389
H    -4.216589  -1.631820  5.952781
H    -6.359863  -0.864352  4.993960
O    0.991226  -0.541677  3.698425
H    1.872955  -0.710271  4.095732
Cd    -3.211298  -4.038486  -0.014755
