28
Energy: -172796.69182 eV PBE+vdW (tier 2 basis)
N    0.706450  -1.695047  0.572419
C    0.652107  -1.797422  1.970058
C    -0.647878  -2.451237  2.532261
O    -0.619268  -3.137235  3.567474
H    1.204743  -2.396827  0.037532
H    0.001099  -1.173457  0.062972
H    1.468753  -2.438064  2.325252
C    0.826582  -0.356899  2.673184
C    0.839737  -0.456910  4.148909
C    1.948583  -0.795400  4.948148
C    -0.291847  -0.536219  5.000195
N    1.542958  -1.125684  6.195909
C    0.158676  -1.058842  6.257944
C    -1.668119  -0.286444  4.797798
C    -0.720724  -1.602947  7.173604
C    -2.574797  -0.761372  5.727520
C    -2.122901  -1.514731  6.861707
H    0.025505  0.298253  2.306243
H    1.776330  0.019406  2.275121
H    3.001879  -0.821629  4.680201
H    2.160797  -1.393040  6.958219
H    -2.013593  0.249325  3.913794
H    -0.395430  -2.074057  8.101463
H    -3.643371  -0.585174  5.609961
H    -2.842172  -1.805336  7.630273
O    -1.722057  -2.169627  1.827609
H    -2.517743  -2.633937  2.160433
Cd    -1.934302  -3.526442  5.462796
