28
Energy: -172797.716186 eV PBE+vdW (tier 2 basis)
N    0.477018  -1.741802  0.685691
C    0.117078  -0.306149  1.023736
C    1.279223  0.268248  1.841422
O    2.000002  -0.556329  2.495871
H    -0.341626  -2.290722  0.389170
H    0.906891  -2.168610  1.526335
H    -0.012102  0.238128  0.081124
C    -1.194835  -0.239743  1.869258
C    -1.052832  -0.796838  3.259012
C    -1.298780  -2.094149  3.659776
C    -0.453533  -0.145838  4.397777
N    -0.851047  -2.285079  4.952221
C    -0.291264  -1.135408  5.422086
C    -0.030686  1.162882  4.670283
C    0.399768  -0.890712  6.621748
C    0.746918  1.405108  5.852082
C    0.960940  0.359884  6.805797
H    -1.993190  -0.754313  1.313189
H    -1.486640  0.819063  1.890011
H    -1.787047  -2.907005  3.129664
H    -0.947008  -3.150572  5.476039
H    -0.314156  1.998471  4.027072
H    0.508092  -1.666410  7.379514
H    0.950053  2.437432  6.149698
H    1.522276  0.580260  7.712113
O    1.344157  1.519170  1.963238
H    1.177629  -1.786880  -0.068448
Cd    2.344911  1.173077  4.005959
