28
Energy: -172797.017008 eV PBE+vdW (tier 2 basis)
N    -0.082184  1.371329  0.378189
C    0.011237  0.928628  1.828380
C    1.124828  -0.140653  1.895160
O    1.204298  -0.857593  2.929103
H    -0.812075  0.826543  -0.115210
H    0.835670  1.165686  -0.064543
H    0.388699  1.791602  2.398628
C    -1.356246  0.498377  2.393601
C    -2.074138  -0.540805  1.595203
C    -2.029417  -1.931643  1.814481
C    -2.957648  -0.334981  0.486967
N    -2.808137  -2.554941  0.904826
C    -3.402301  -1.618748  0.062124
C    -3.470510  0.812695  -0.166028
C    -4.292190  -1.795854  -0.985548
C    -4.362257  0.645451  -1.223553
C    -4.762698  -0.635304  -1.631379
H    -1.982289  1.398940  2.486702
H    -1.163697  0.144767  3.415465
H    -1.507573  -2.484427  2.589362
H    -2.977415  -3.556910  0.873807
H    -3.221254  1.819262  0.176015
H    -4.629372  -2.783331  -1.298834
H    -4.773316  1.518597  -1.727195
H    -5.467386  -0.739686  -2.455012
O    1.936179  -0.178455  0.920711
H    -0.303622  2.370218  0.281809
Cd    3.205817  -1.761766  2.173772
