 24
Energy: -13526.63525315.7 eV PBE+vdW (tier 2 basis)
N    2.446359   -2.490314   3.493019
C    1.373981   -1.764986   2.777294
C    1.973295   -1.173304   1.473717
O    3.194287   -1.661275   1.187560
H    2.861596   -1.902364   4.217356
H    3.385961   -2.266342   1.961660
H    0.642833   -2.518309   2.439853
C    0.637638   -0.709720   3.625894
C   -0.743166   -0.313044   3.085433
C   -1.434071    0.850650   3.809715
C   -1.752848    0.647209   5.305156
N   -0.693120    0.920299   6.285212
H    1.276606    0.184326   3.720175
H    0.533056   -1.139107   4.635651
H   -1.400658   -1.199415   3.124022
H   -0.634408   -0.052777   2.024269
H   -2.380732    1.047767   3.280768
H   -0.832851    1.769033   3.695779
H   -2.100283   -0.386680   5.468159
H   -2.603238    1.290579   5.575970
H    0.134531    0.355169   6.100881
H   -0.393995    1.893987   6.217161
O    1.401562   -0.371831   0.767717
H    2.091663   -3.327552   3.951581
