 24
Energy: -13526.73824515.7 eV PBE+vdW (tier 2 basis)
N    0.425360   -0.737591  -0.134970
C    0.021551   -0.447093   1.255515
C    1.185344    0.287134   1.957803
O    2.367340    0.128798   1.327691
H   -0.011249   -1.593567  -0.475469
H    2.120404   -0.370764   0.498203
H   -0.857528    0.214109   1.316624
C   -0.294000   -1.763435   1.993381
C   -0.926824   -1.591746   3.374505
C   -1.151140   -2.927283   4.087783
C   -1.940070   -2.794933   5.393545
N   -3.323261   -2.367778   5.134807
H    0.631268   -2.359985   2.064414
H   -0.985614   -2.338539   1.352455
H   -1.891990   -1.072764   3.276696
H   -0.290709   -0.944782   3.995957
H   -0.181352   -3.402395   4.308031
H   -1.686030   -3.626881   3.420176
H   -1.468278   -2.024518   6.022822
H   -1.868704   -3.746773   5.954585
H   -3.787319   -2.103016   6.002897
H   -3.864329   -3.138428   4.740320
O    1.062825    0.914916   2.986211
H    0.159713    0.016033  -0.768155
