 24
Energy: -13526.75694215.7 eV PBE+vdW (tier 2 basis)
N   -0.577782   -0.350923   0.431778
C    0.592205   -0.232775   1.327438
C    1.880793   -0.531788   0.519356
O    1.663475   -0.637711  -0.803823
H   -1.057603   -1.240809   0.572944
H    0.673624   -0.510568  -0.881283
H    0.683225    0.827172   1.618177
C    0.531288   -1.087185   2.598216
C   -0.532568   -0.625297   3.598583
C   -0.571367   -1.439452   4.899835
C   -1.064650   -2.886628   4.735385
N   -1.185183   -3.675421   5.963874
H    1.526326   -1.061099   3.064906
H    0.363073   -2.135833   2.299682
H   -1.532317   -0.652238   3.130848
H   -0.343974    0.432729   3.844550
H   -1.232624   -0.929120   5.619407
H    0.431695   -1.448395   5.359233
H   -0.397836   -3.441443   4.058349
H   -2.052703   -2.876382   4.245413
H   -0.274959   -3.772357   6.416017
H   -1.790440   -3.200742   6.635663
O    2.975311   -0.633651   1.027387
H   -1.258007    0.388916   0.591069
