 24
Energy: -13526.56226615.7 eV PBE+vdW (tier 2 basis)
N   -0.744372   -2.189621  -0.434478
C   -0.333057   -1.406677   0.735093
C    0.844002   -0.491712   0.398152
O    0.895860    0.685687   0.699119
H   -1.211798   -1.597717  -1.121649
H   -1.419204   -2.900162  -0.149093
H   -1.113554   -0.716064   1.098348
C    0.054813   -2.372506   1.875660
C    0.728927   -1.732930   3.093790
C   -0.118459   -0.695905   3.838986
C    0.649546    0.045322   4.935639
N    1.792027    0.772618   4.366961
H    0.719379   -3.135572   1.444357
H   -0.869686   -2.890697   2.184303
H    1.677456   -1.263345   2.794522
H    1.007442   -2.537547   3.793046
H   -1.001534   -1.180159   4.286727
H   -0.506477    0.054525   3.131288
H    1.044911   -0.679365   5.666549
H   -0.063272    0.691442   5.485207
H    1.473253    1.431437   3.653968
H    2.269271    1.316911   5.084509
O    1.857585   -1.130615  -0.237288
H    2.558090   -0.459036  -0.351432
