 24
Energy: -13526.53437315.7 eV PBE+vdW (tier 2 basis)
N    0.441215    0.039293  -0.226344
C   -0.107014    0.192385   1.124035
C    0.862133    0.929556   2.041905
O    0.860939    0.872645   3.253243
H    0.777201    0.932259  -0.584673
H   -0.287661   -0.286481  -0.860027
H   -1.016356    0.838766   1.151382
C   -0.489764   -1.164554   1.727822
C   -1.661210   -1.832609   1.000291
C   -2.224264   -3.089529   1.683456
C   -1.408037   -4.376473   1.530127
N   -0.112867   -4.310027   2.220720
H   -0.758057   -0.999808   2.781228
H    0.387049   -1.824719   1.717453
H   -1.368597   -2.099920  -0.029372
H   -2.480434   -1.098280   0.906522
H   -3.225215   -3.292974   1.271486
H   -2.382179   -2.884262   2.757096
H   -1.202064   -4.543263   0.460472
H   -2.041420   -5.223849   1.861654
H   -0.252870   -4.218182   3.228185
H    0.412963   -5.172195   2.078465
O    1.717597    1.741079   1.354181
H    2.255934    2.189549   2.034599
