 24
Energy: -13526.58203915.7 eV PBE+vdW (tier 2 basis)
N   -0.384825    0.759712   2.380007
C    0.512575   -0.114393   1.627597
C    1.537343    0.767788   0.925413
O    1.713819    1.946017   1.159550
H    0.112590    1.603349   2.667806
H   -0.735567    0.289140   3.211860
H    1.125651   -0.776531   2.278543
C   -0.300258   -1.027495   0.678835
C    0.375277   -2.333496   0.255543
C   -0.555349   -3.231204  -0.566086
C    0.103139   -4.515699  -1.071954
N    0.486941   -5.403778   0.035755
H   -0.612012   -0.444372  -0.201490
H   -1.229387   -1.265452   1.219313
H    0.699132   -2.869106   1.164367
H    1.285758   -2.120815  -0.324189
H   -0.924224   -2.666474  -1.438231
H   -1.437653   -3.501562   0.035975
H    0.949119   -4.247167  -1.737684
H   -0.621163   -5.063217  -1.692614
H    0.769231   -6.315436  -0.323320
H    1.297327   -5.031598   0.531578
O    2.285154    0.091800   0.010602
H    2.914385    0.747988  -0.347178
