 24
Energy: -13526.65939415.7 eV PBE+vdW (tier 2 basis)
N   -0.597753   -0.212610  -0.469054
C   -0.336908   -0.014381   0.963495
C    1.151824    0.170686   1.261556
O    1.675068    1.201723   1.630754
H   -0.115399   -1.049058  -0.802473
H   -0.238761    0.574287  -1.011155
H   -0.805533    0.935794   1.256543
C   -0.956218   -1.156218   1.776991
C   -0.777271   -1.012710   3.289305
C   -1.469957   -2.126494   4.078073
C   -1.203556   -2.076341   5.584706
N    0.215766   -2.320284   5.880128
H   -0.518862   -2.110777   1.441048
H   -2.024296   -1.190158   1.512341
H   -1.175068   -0.037166   3.616773
H    0.291212   -1.010639   3.552088
H   -1.144646   -3.108776   3.691648
H   -2.558528   -2.084053   3.910831
H   -1.890083   -2.781397   6.092824
H   -1.451073   -1.072023   5.963243
H    0.414939   -2.144884   6.864388
H    0.450155   -3.298745   5.706432
O    1.872220   -0.966346   1.015105
H    2.802321   -0.735900   1.202695
