 24
Energy: -13526.74173715.7 eV PBE+vdW (tier 2 basis)
N   -1.085252    0.874300   1.281021
C    0.137713    0.373026   1.939807
C    1.269466    0.319993   0.890595
O    0.814583    0.330955  -0.379061
H   -1.921763    0.483806   1.713667
H   -0.169545    0.466050  -0.268775
H    0.484438    1.029508   2.753777
C   -0.119373   -1.034476   2.513604
C    0.999225   -1.567019   3.411004
C    0.796786   -3.024713   3.845673
C   -0.509642   -3.324204   4.588209
N   -0.689951   -2.431895   5.742245
H   -0.308848   -1.730050   1.678290
H   -1.051985   -0.976481   3.099115
H    1.068021   -0.925544   4.301976
H    1.962269   -1.481734   2.889604
H    1.645641   -3.316827   4.486333
H    0.847441   -3.686512   2.965768
H   -0.519409   -4.400344   4.849477
H   -1.366958   -3.166700   3.914912
H   -1.560645   -2.646644   6.227788
H    0.060342   -2.575609   6.420403
O    2.445469    0.242348   1.170895
H   -1.154024    1.889765   1.341674
