 24
Energy: -13526.56343215.7 eV PBE+vdW (tier 2 basis)
N   -0.527149    0.054535   0.026192
C   -0.489737   -0.118974   1.476064
C    0.871662    0.229432   2.067226
O    1.077806    0.339581   3.259092
H   -1.425951   -0.259482  -0.340279
H    0.198600   -0.495494  -0.432380
H   -1.154038    0.644878   1.913699
C   -0.996616   -1.481427   2.038376
C   -0.397906   -2.755631   1.425036
C    1.101091   -3.002976   1.644999
C    1.521845   -3.162874   3.106437
N    2.970224   -3.393623   3.194144
H   -2.084866   -1.501519   1.869738
H   -0.861047   -1.466027   3.129699
H   -0.597805   -2.761173   0.341482
H   -0.965008   -3.610567   1.828026
H    1.706409   -2.203210   1.193883
H    1.376819   -3.921155   1.098802
H    0.910389   -3.963964   3.570894
H    1.308238   -2.240290   3.663659
H    3.274152   -3.392974   4.167475
H    3.210788   -4.310942   2.815371
O    1.849687    0.394128   1.137763
H    2.666335    0.568658   1.645506
