 24
Energy: -13526.55842215.7 eV PBE+vdW (tier 2 basis)
N   -0.690295    0.493275   0.079419
C   -0.426682    0.246871   1.504888
C    1.009216    0.486725   1.975506
O    1.334813    0.717535   3.120960
H    0.074770    0.130520  -0.489379
H   -0.711867    1.498206  -0.095290
H   -1.030921    0.967236   2.074227
C   -0.887323   -1.154710   1.982683
C   -0.067320   -2.375422   1.533002
C   -0.020918   -2.726459   0.035759
C   -1.322475   -3.215969  -0.607326
N   -2.417421   -2.240877  -0.521295
H   -1.930397   -1.270260   1.662746
H   -0.875735   -1.129607   3.082356
H   -0.469018   -3.247751   2.074287
H    0.970166   -2.265085   1.890475
H    0.718053   -3.533216  -0.092778
H    0.380884   -1.883821  -0.548697
H   -1.645776   -4.136748  -0.091478
H   -1.081746   -3.513710  -1.647715
H   -2.091347   -1.297707  -0.749516
H   -3.165170   -2.479520  -1.171023
O    1.925831    0.374030   0.966555
H    2.797239    0.501617   1.389410
