 24
Energy: -13526.57297915.7 eV PBE+vdW (tier 2 basis)
N    0.808561   -0.898340   0.011080
C    0.242417   -0.415066   1.274224
C    1.342556    0.000319   2.246237
O    1.263928   -0.029242   3.455158
H    1.498309   -0.240016  -0.348990
H    0.072968   -0.978399  -0.690094
H   -0.354587    0.519279   1.151560
C   -0.674353   -1.465197   1.910551
C   -1.933490   -1.744710   1.083543
C   -2.955475   -2.647199   1.786376
C   -2.461149   -4.068250   2.060657
N   -3.531618   -4.875784   2.658288
H   -0.957948   -1.111645   2.911996
H   -0.086816   -2.384855   2.047624
H   -1.658131   -2.204587   0.119301
H   -2.421804   -0.785775   0.840838
H   -3.861738   -2.707217   1.160278
H   -3.272053   -2.193817   2.738729
H   -1.631126   -4.042608   2.782057
H   -2.047678   -4.491490   1.121688
H   -4.285485   -5.021533   1.985071
H   -3.185867   -5.801383   2.910708
O    2.441201    0.488455   1.599201
H    3.062740    0.759619   2.302077
