 24
Energy: -13526.66519715.7 eV PBE+vdW (tier 2 basis)
N   -0.233952   -2.780859   1.148203
C    0.184436   -1.394571   1.337609
C    1.702083   -1.215467   1.303493
O    2.514823   -2.056517   1.630820
H    0.323481   -3.381299   1.760539
H   -0.027373   -3.085062   0.196385
H   -0.241494   -0.787561   0.524067
C   -0.337204   -0.839327   2.681886
C   -1.865712   -0.752817   2.725212
C   -2.463630   -0.388532   4.092115
C   -2.350304    1.076668   4.523899
N   -0.961524    1.482272   4.792171
H    0.102032    0.147115   2.877189
H    0.021923   -1.505872   3.485000
H   -2.270991   -1.723996   2.406605
H   -2.206415   -0.016679   1.976646
H   -2.021648   -1.032583   4.873455
H   -3.536193   -0.638686   4.079748
H   -3.026609    1.235261   5.387530
H   -2.728327    1.718123   3.711574
H   -0.923183    2.468516   5.050023
H   -0.593101    0.962436   5.590614
O    2.062926    0.029584   0.880725
H    3.037748    0.063668   0.942236
