 24
Energy: -13526.64085215.7 eV PBE+vdW (tier 2 basis)
N    0.162034    0.273914   0.071944
C    0.620140    0.001624   1.440694
C    2.043203   -0.558161   1.478508
O    3.016863    0.015776   1.921270
H    0.161765   -0.586452  -0.478645
H    0.792490    0.926880  -0.394905
H    0.679583    0.964618   1.967594
C   -0.381246   -0.908034   2.162028
C   -0.024293   -1.181267   3.626697
C   -0.990132   -2.134792   4.340369
C   -2.409301   -1.591647   4.512135
N   -3.237651   -2.549324   5.255086
H   -0.458149   -1.862521   1.615992
H   -1.360910   -0.416557   2.077632
H    0.024452   -0.225529   4.175487
H    0.988891   -1.609807   3.682830
H   -0.581740   -2.364463   5.338851
H   -1.042280   -3.096002   3.805089
H   -2.879717   -1.450689   3.527501
H   -2.352967   -0.586766   4.979955
H   -2.895322   -2.646593   6.212293
H   -4.198964   -2.215895   5.324339
O    2.124865   -1.796874   0.902904
H    3.068497   -2.045255   0.939639
