 24
Energy: -13526.76951615.7 eV PBE+vdW (tier 2 basis)
N   -0.804817   -0.488788   1.522946
C    0.096265    0.505094   2.143674
C    0.510415    1.549923   1.076037
O   -0.165261    1.422596  -0.080207
H   -0.306909   -1.355047   1.314479
H   -0.754958    0.631686   0.088318
H   -0.493309    1.075743   2.880315
C    1.328253   -0.077489   2.845490
C    1.006130   -0.879393   4.107520
C    2.249205   -1.463908   4.782306
C    1.958033   -2.276649   6.055960
N    1.182403   -3.511501   5.907704
H    2.000608    0.758328   3.084673
H    1.876620   -0.709910   2.124699
H    0.305432   -1.695865   3.861030
H    0.476205   -0.227530   4.824068
H    2.940225   -0.643983   5.040977
H    2.792096   -2.103891   4.064944
H    1.427600   -1.639415   6.781912
H    2.913710   -2.543650   6.531665
H    1.634935   -4.145722   5.247854
H    0.249905   -3.321183   5.541171
O    1.340991    2.408541   1.273835
H   -1.588774   -0.725985   2.126630
