 24
Energy: -13526.44626915.7 eV PBE+vdW (tier 2 basis)
N   -1.516175   -0.663247   1.045569
C   -0.412045   -0.134956   1.865977
C    0.106495    1.187930   1.274886
O   -0.393359    2.262817   1.510768
H   -2.276081    0.017353   1.007561
H   -1.207466   -0.811893   0.082406
H   -0.840274    0.137545   2.841172
C    0.662639   -1.208981   2.077644
C    0.185627   -2.380131   2.940469
C    1.216811   -3.505042   3.050415
C    0.809752   -4.619410   4.018686
N    0.738698   -4.120885   5.399458
H    0.991069   -1.603458   1.094302
H    1.548651   -0.747086   2.543600
H   -0.751389   -2.774312   2.519911
H   -0.052379   -2.014385   3.950364
H    2.189392   -3.092100   3.373519
H    1.394260   -3.951070   2.057857
H    1.501376   -5.474689   3.890192
H   -0.193125   -4.984677   3.747381
H    1.676628   -3.943219   5.761628
H    0.318509   -4.817485   6.013668
O    1.131269    1.100244   0.367953
H    1.458117    0.182140   0.344612
