 24
Energy: -13526.64924115.7 eV PBE+vdW (tier 2 basis)
N    0.468396    0.777082  -0.265313
C   -0.136366    0.840793   1.068701
C    0.833158    1.281208   2.166711
O    0.689959    2.242994   2.892894
H    1.248721    0.118212  -0.269651
H    0.844825    1.686493  -0.534620
H   -0.910531    1.619264   1.044241
C   -0.778714   -0.514601   1.409992
C   -1.453507   -0.597772   2.784369
C   -2.642076    0.349542   2.974356
C   -3.361831    0.134894   4.304796
N   -4.484107    1.070394   4.449588
H   -0.000550   -1.290956   1.339774
H   -1.506302   -0.725933   0.611825
H   -0.709801   -0.413858   3.578202
H   -1.791179   -1.636132   2.931804
H   -3.359127    0.202336   2.147153
H   -2.320462    1.400191   2.925360
H   -2.658903    0.331270   5.129588
H   -3.654172   -0.932230   4.388766
H   -5.212139    0.859752   3.765186
H   -4.915741    0.973736   5.368548
O    1.927403    0.463149   2.245885
H    2.483903    0.832570   2.958118
