 24
Energy: -13526.32093715.7 eV PBE+vdW (tier 2 basis)
N   -0.515462   -1.774912   1.235235
C   -0.194807   -0.562760   2.007063
C   -0.511200    0.687457   1.165443
O   -1.600319    1.210597   1.136888
H   -1.475450   -1.726724   0.890288
H    0.091309   -1.854719   0.417204
H   -0.897430   -0.518680   2.852186
C    1.243659   -0.602658   2.545695
C    1.505647   -1.442628   3.808791
C    1.386786   -2.972544   3.699677
C   -0.005288   -3.535352   3.989554
N    0.018658   -5.002808   3.944868
H    1.923124   -0.951533   1.743715
H    1.545294    0.430733   2.781949
H    0.847032   -1.078779   4.615759
H    2.526997   -1.195411   4.134683
H    2.091863   -3.423188   4.418010
H    1.705479   -3.317595   2.704411
H   -0.698933   -3.192156   3.210594
H   -0.359739   -3.123283   4.957287
H   -0.926609   -5.378989   4.011462
H    0.537140   -5.378865   4.740282
O    0.484751    1.149887   0.343948
H    1.309499    0.665906   0.532011
