 24
Energy: -13526.78154815.7 eV PBE+vdW (tier 2 basis)
N    2.542365    0.291342   1.456224
C    1.404567    0.184357   2.391659
C    1.266567   -1.291610   2.816806
O    1.882281   -2.146228   1.983070
H    2.386432    1.023486   0.764095
H    2.357467   -1.539296   1.344815
H    1.561691    0.765449   3.311081
C    0.121577    0.664072   1.674889
C   -1.209687    0.591463   2.440807
C   -1.508832    1.750352   3.403792
C   -0.638811    1.857061   4.672969
N   -0.607585    0.706732   5.571985
H    0.034959    0.072260   0.749000
H    0.300974    1.707291   1.361089
H   -1.280957   -0.368003   2.973375
H   -2.011526    0.570450   1.687873
H   -2.561008    1.658240   3.721157
H   -1.443575    2.706841   2.854535
H   -0.986532    2.729829   5.248230
H    0.401110    2.096114   4.397238
H   -0.245537   -0.127329   5.101414
H   -1.547319    0.479932   5.898823
O    0.641449   -1.655357   3.792298
H    3.410929    0.508551   1.943775
