 24
Energy: -13526.63576615.7 eV PBE+vdW (tier 2 basis)
N    1.868534   -0.535602   2.314255
C    1.986174   -0.584326   0.861157
C    1.666821    0.750899   0.180362
O    1.082304    1.685680   0.688780
H    2.578180    0.089295   2.698066
H    0.973592   -0.114891   2.571281
H    3.031615   -0.822196   0.612223
C    1.115940   -1.713027   0.260064
C   -0.390894   -1.530719   0.471576
C   -1.276617   -2.589289  -0.204542
C   -1.277115   -3.986919   0.423689
N   -0.018059   -4.710576   0.189482
H    1.444532   -2.657981   0.708716
H    1.328691   -1.779171  -0.817840
H   -0.697054   -0.541305   0.093231
H   -0.617139   -1.525577   1.550642
H   -1.006336   -2.672670  -1.272412
H   -2.316262   -2.226253  -0.191310
H   -2.168763   -4.531201   0.053689
H   -1.403096   -3.889382   1.513838
H   -0.032198   -5.612870   0.665023
H    0.091529   -4.911015  -0.805910
O    2.108444    0.781591  -1.111333
H    1.841179    1.652507  -1.464727
