 24
Energy: -13526.70384115.7 eV PBE+vdW (tier 2 basis)
N    0.020842    0.120642   2.528324
C    0.730204   -1.039077   1.951937
C    1.575016   -0.570670   0.739919
O    1.583753    0.765244   0.583492
H   -0.968970    0.113021   2.281446
H    0.996785    1.083171   1.329420
H    1.474541   -1.381322   2.686917
C   -0.165027   -2.219209   1.546920
C   -0.982920   -2.880005   2.665078
C   -0.182704   -3.555205   3.792477
C    0.225530   -2.652545   4.975131
N   -0.854004   -2.033126   5.749303
H    0.480364   -2.965108   1.062338
H   -0.854985   -1.867578   0.760538
H   -1.621291   -3.636307   2.185467
H   -1.693877   -2.153646   3.097848
H    0.724655   -4.020174   3.371017
H   -0.781150   -4.384590   4.202929
H    0.892571   -1.846047   4.633726
H    0.829867   -3.246690   5.676415
H   -1.426194   -2.749525   6.198820
H   -1.484342   -1.506688   5.142755
O    2.182666   -1.332419   0.020731
H    0.084668    0.147853   3.544054
