 24
Energy: -13526.61698815.7 eV PBE+vdW (tier 2 basis)
N    0.606348    1.229401   0.989570
C   -0.021743    0.625304   2.162903
C    0.878011    0.408923   3.381576
O    0.515197    0.482021   4.538002
H    1.366966    0.636004   0.655121
H    1.018455    2.132474   1.223157
H   -0.812647    1.305532   2.515250
C   -0.667355   -0.726239   1.792673
C   -1.831335   -0.574087   0.808269
C   -2.494919   -1.891857   0.379578
C   -1.747791   -2.718365  -0.671979
N   -0.494197   -3.293090  -0.156804
H   -1.025192   -1.207366   2.716423
H    0.099549   -1.388868   1.365035
H   -1.481741   -0.031306  -0.082721
H   -2.597217    0.068307   1.273495
H   -3.486690   -1.660869  -0.039866
H   -2.690814   -2.521814   1.265898
H   -1.485134   -2.063635  -1.518039
H   -2.445003   -3.481713  -1.070935
H   -0.698195   -3.978478   0.572782
H   -0.007169   -3.799757  -0.896330
O    2.161753    0.088051   3.039128
H    2.627235   -0.064136   3.884161
