 24
Energy: -13526.71435515.7 eV PBE+vdW (tier 2 basis)
N    0.372507    1.098297   1.396713
C   -0.206254   -0.008683   2.185525
C    0.923587   -0.708528   2.983083
O    2.097431   -0.055843   2.923351
H    0.471903    0.835908   0.415344
H    1.893365    0.720561   2.325129
H   -0.860014    0.434206   2.955342
C   -1.016397   -1.032215   1.381178
C   -2.344387   -0.485207   0.850370
C   -3.094476   -1.393597  -0.135368
C   -3.552650   -2.757073   0.401269
N   -2.494547   -3.777623   0.342914
H   -1.182965   -1.889913   2.047183
H   -0.392482   -1.401554   0.548505
H   -2.166197    0.480435   0.347514
H   -3.001465   -0.259679   1.708120
H   -2.475090   -1.572779  -1.028807
H   -3.985906   -0.844750  -0.477252
H   -4.370606   -3.118270  -0.238582
H   -3.987963   -2.619784   1.412599
H   -1.799706   -3.637453   1.076147
H   -2.891692   -4.703137   0.503000
O    0.756540   -1.728190   3.615526
H   -0.202533    1.936871   1.431194
