 24
Energy: -13526.78169815.7 eV PBE+vdW (tier 2 basis)
N    0.734238   -0.967143  -0.481201
C    0.497792   -0.662970   0.945796
C    1.858634   -0.400987   1.640256
O    1.976389   -0.249657   2.835942
H    0.058399   -0.508342  -1.087933
H    0.669353   -1.970479  -0.657169
H   -0.033937    0.301630   0.997658
C   -0.313840   -1.713279   1.712543
C   -1.776071   -1.812453   1.275009
C   -2.566291   -2.873989   2.045492
C   -4.034698   -2.976741   1.606563
N   -4.860153   -3.969925   2.297433
H   -0.250801   -1.466008   2.781545
H    0.183616   -2.692897   1.598531
H   -1.835704   -2.033915   0.195263
H   -2.258557   -0.828747   1.408606
H   -2.526397   -2.651499   3.125227
H   -2.083450   -3.858341   1.918759
H   -4.078275   -3.199580   0.527995
H   -4.521505   -1.995877   1.729750
H   -4.882861   -3.780476   3.300448
H   -4.461418   -4.903774   2.190448
O    2.888855   -0.332182   0.778028
H    2.454137   -0.501917  -0.107484
