 24
Energy: -13526.59155515.7 eV PBE+vdW (tier 2 basis)
N    0.651033    0.178953   2.079616
C    1.182689   -0.209808   0.772842
C    2.093950    0.870571   0.211044
O    3.078012    0.667234  -0.467479
H    0.073837   -0.571216   2.459426
H    0.056418    1.004623   1.994753
H    1.837737   -1.079112   0.923344
C    0.139691   -0.559899  -0.327143
C   -0.801066   -1.714296   0.037055
C   -0.111124   -3.065930   0.240336
C   -1.097341   -4.202014   0.506609
N   -0.393022   -5.481430   0.652675
H    0.683870   -0.805524  -1.252900
H   -0.456121    0.342775  -0.537173
H   -1.545804   -1.808647  -0.769479
H   -1.381472   -1.451333   0.938017
H    0.597130   -3.009833   1.085060
H    0.492647   -3.322128  -0.644210
H   -1.779950   -4.295950  -0.352673
H   -1.728716   -3.934261   1.379012
H   -1.057392   -6.245885   0.772636
H    0.191170   -5.472887   1.490226
O    1.643900    2.126416   0.495783
H    2.271927    2.737581   0.064624
