 24
Energy: -13526.65910215.7 eV PBE+vdW (tier 2 basis)
N    0.830241    0.229780   0.413945
C    0.411990   -0.811270   1.346630
C    1.599746   -1.458961   2.041207
O    1.615758   -1.831166   3.196617
H    1.298038   -0.172258  -0.399094
H   -0.001914    0.737707   0.095577
H   -0.145301   -0.318291   2.155806
C   -0.474201   -1.953904   0.767593
C   -1.756089   -1.453163   0.093781
C   -2.767889   -0.763262   1.034399
C   -3.232720    0.606063   0.533217
N   -2.110900    1.560669   0.497132
H   -0.720215   -2.655357   1.581422
H    0.125206   -2.516844   0.034055
H   -2.238468   -2.305645  -0.405552
H   -1.478178   -0.752412  -0.708176
H   -2.335561   -0.636554   2.040979
H   -3.651618   -1.401664   1.178633
H   -4.080784    0.954775   1.151800
H   -3.613444    0.505841  -0.495021
H   -1.864113    1.850547   1.445092
H   -2.374870    2.409986  -0.001507
O    2.654837   -1.646656   1.197982
H    3.341195   -2.093041   1.730402
