 24
Energy: -13526.58735915.7 eV PBE+vdW (tier 2 basis)
N    0.554027   -0.428400  -0.402039
C    0.184615   -0.049420   0.960339
C    1.301509   -0.015101   2.009081
O    1.262292    0.627549   3.037847
H    0.969211   -1.358978  -0.424855
H    1.259899    0.210485  -0.768214
H   -0.178156    0.988448   0.917721
C   -0.991232   -0.898693   1.508550
C   -0.683656   -2.310279   2.026109
C   -0.165859   -3.325437   0.999983
C   -0.221477   -4.771548   1.504272
N   -1.609263   -5.206240   1.714099
H   -1.733672   -0.946225   0.697650
H   -1.447387   -0.328719   2.330184
H   -1.613012   -2.714391   2.453701
H    0.029545   -2.251412   2.865805
H    0.878815   -3.106307   0.728056
H   -0.754026   -3.249837   0.068803
H    0.295165   -4.836205   2.475084
H    0.344692   -5.415950   0.803988
H   -2.081500   -5.331093   0.817618
H   -1.638390   -6.108882   2.186683
O    2.365665   -0.810869   1.688318
H    2.986006   -0.727105   2.438639
