 24
Energy: -13526.71447415.7 eV PBE+vdW (tier 2 basis)
N    0.084576   -0.631151  -0.155656
C   -0.062123   -0.134710   1.226797
C    0.823494    1.120190   1.391824
O    1.783421    1.218699   0.450588
H   -0.025323   -1.643677  -0.200263
H    1.580311    0.460040  -0.166774
H   -1.093682    0.171445   1.464253
C    0.372716   -1.230723   2.220042
C    0.122562   -0.900220   3.694659
C    0.650181   -1.965346   4.663404
C   -0.047066   -3.322972   4.567469
N    0.489654   -4.247709   5.572677
H    1.441515   -1.451792   2.060910
H   -0.179374   -2.144989   1.944440
H   -0.959513   -0.757446   3.853981
H    0.588603    0.065378   3.931619
H    0.531894   -1.585088   5.691637
H    1.732179   -2.111895   4.518172
H    0.139769   -3.774827   3.580941
H   -1.143886   -3.166180   4.638643
H    0.282805   -3.907670   6.513139
H    0.049646   -5.164273   5.492633
O    0.692765    1.921027   2.291126
H   -0.608123   -0.218110  -0.779264
