 24
Energy: -13526.79072615.7 eV PBE+vdW (tier 2 basis)
N    0.366637   -0.445692   0.452380
C    0.196231   -0.082922   1.876642
C    1.599855    0.028215   2.525432
O    2.597635    0.043169   1.627952
H    0.244936   -1.449789   0.315488
H    2.116101   -0.080212   0.757038
H   -0.203589    0.943609   1.904548
C   -0.721598   -0.987082   2.704987
C   -0.255860   -2.452630   2.781716
C   -0.806804   -3.212010   4.001351
C    0.001276   -3.022539   5.292445
N   -0.005910   -1.640602   5.790273
H   -1.739903   -0.940050   2.288519
H   -0.784703   -0.567036   3.716401
H    0.846919   -2.495938   2.815124
H   -0.550360   -2.985088   1.862659
H   -0.817189   -4.290279   3.778247
H   -1.852883   -2.916427   4.181878
H    1.023201   -3.419539   5.120514
H   -0.450391   -3.657971   6.068767
H    0.658685   -1.057935   5.273977
H    0.296463   -1.621418   6.763338
O    1.783987    0.117590   3.722296
H   -0.315739    0.025577  -0.137971
