 24
Energy: -13526.66157215.7 eV PBE+vdW (tier 2 basis)
N   -0.957272    1.882857  -0.130118
C   -0.016705    1.191142   0.739608
C    1.222318    0.796004  -0.052982
O    1.274978    0.792578  -1.271848
H   -0.807897    1.581540  -1.094831
H   -1.923041    1.691764   0.129339
H    0.326509    1.873725   1.537703
C   -0.562629   -0.068885   1.478277
C   -1.032784   -1.266584   0.632186
C    0.010528   -2.030249  -0.210517
C    1.218676   -2.615592   0.552035
N    2.504302   -2.190390  -0.060985
H   -1.419324    0.268355   2.083983
H    0.204495   -0.383448   2.200505
H   -1.827234   -0.933320  -0.054587
H   -1.521294   -1.975643   1.320393
H    0.381176   -1.374089  -1.008610
H   -0.516749   -2.846573  -0.725256
H    1.136057   -3.713913   0.598981
H    1.230046   -2.255446   1.590401
H    3.282601   -2.714813   0.341752
H    2.502175   -2.392132  -1.062516
O    2.205523    0.345061   0.746217
H    2.606915   -0.475261   0.292313
