 24
Energy: -13526.61127415.7 eV PBE+vdW (tier 2 basis)
N   -0.432565   -1.200624  -0.038719
C   -0.403024   -0.276118   1.089841
C    0.943753    0.377425   1.433813
O    1.073182    1.344288   2.155514
H    0.233448   -1.960616   0.099581
H   -0.148680   -0.727779  -0.896277
H   -1.059617    0.572075   0.842242
C   -0.983396   -0.929626   2.363742
C   -0.176784   -2.118389   2.898467
C   -0.707893   -2.681072   4.223431
C   -2.099240   -3.309768   4.134733
N   -2.484011   -3.884166   5.429840
H   -2.006446   -1.241182   2.111336
H   -1.056551   -0.156015   3.142316
H    0.871011   -1.812667   3.048297
H   -0.157836   -2.927355   2.149174
H   -0.723501   -1.892843   4.992342
H   -0.002237   -3.447210   4.586502
H   -2.110211   -4.037859   3.297236
H   -2.844667   -2.539579   3.886606
H   -3.434107   -4.252898   5.392077
H   -1.876854   -4.671359   5.663472
O    2.010325   -0.246189   0.851413
H    2.797089    0.245983   1.157842
