 24
Energy: -13526.61117215.7 eV PBE+vdW (tier 2 basis)
N   -0.898399   -0.510298  -0.300670
C   -0.277143   -0.371985   1.029107
C    1.200111   -0.010447   0.885968
O    1.668972    1.098063   1.048534
H   -0.451365   -1.268721  -0.819596
H   -0.761594    0.342054  -0.846204
H   -0.741455    0.497284   1.516436
C   -0.560889   -1.628398   1.862389
C   -0.273174   -1.519827   3.366077
C    1.204149   -1.474981   3.769851
C    1.401424   -1.565037   5.282441
N    2.826670   -1.497317   5.628665
H   -0.009649   -2.481664   1.435336
H   -1.629880   -1.841067   1.714794
H   -0.743857   -2.387628   3.856134
H   -0.791110   -0.633564   3.770525
H    1.688591   -0.551627   3.420450
H    1.739305   -2.309113   3.283815
H    0.891433   -2.476173   5.657724
H    0.902826   -0.709155   5.764188
H    2.950256   -1.485997   6.640984
H    3.313549   -2.327858   5.288093
O    1.956938   -1.067171   0.458846
H    2.859725   -0.713805   0.341809
