 24
Energy: -13526.61260915.7 eV PBE+vdW (tier 2 basis)
N   -0.942010    0.388223   0.214595
C    0.092476   -0.271660   1.014464
C    1.028610   -1.123252   0.153194
O    0.670344   -1.947665  -0.663066
H   -0.519529    1.037516  -0.450221
H   -1.438299   -0.312387  -0.341133
H    0.693479    0.509062   1.496856
C   -0.583638   -1.160894   2.076062
C    0.338232   -1.915669   3.049026
C    0.797366   -1.142085   4.293439
C    1.712663    0.058309   4.046946
N    2.192168    0.596133   5.327222
H   -1.200514   -1.890319   1.527670
H   -1.281773   -0.515905   2.630193
H    1.217718   -2.308702   2.512365
H   -0.205795   -2.805365   3.398287
H    1.333605   -1.848019   4.950794
H   -0.078201   -0.803310   4.869459
H    1.149983    0.864958   3.553156
H    2.521869   -0.237301   3.349393
H    2.796907   -0.083738   5.791072
H    2.758551    1.430901   5.176587
O    2.345204   -0.848151   0.387072
H    2.852609   -1.440447  -0.203346
