 24
Energy: -13526.77024415.7 eV PBE+vdW (tier 2 basis)
N   -0.781703   -0.888852   1.459254
C    0.599430   -0.482397   1.771227
C    1.385973   -0.356883   0.444455
O    0.577698   -0.249246  -0.629813
H   -0.811192   -1.902426   1.323705
H   -0.337541   -0.344853  -0.237779
H    0.537913    0.556237   2.143101
C    1.354400   -1.307716   2.821850
C    0.897728   -1.053510   4.276741
C    0.098130   -2.171531   4.963697
C   -1.261172   -2.540025   4.365501
N   -2.140684   -1.366160   4.213302
H    2.418572   -1.060390   2.715459
H    1.270919   -2.377475   2.564233
H    0.318912   -0.117532   4.316017
H    1.786725   -0.871960   4.897552
H   -0.054627   -1.884441   6.018420
H    0.706695   -3.089536   4.994710
H   -1.705748   -3.332849   4.994678
H   -1.123667   -2.985212   3.367061
H   -3.092645   -1.664147   3.997069
H   -2.198428   -0.853953   5.095547
O    2.593997   -0.314620   0.368714
H   -1.395689   -0.698522   2.262298
