 24
Energy: -13526.64060015.7 eV PBE+vdW (tier 2 basis)
N   -0.132570    1.005368   2.337249
C    0.567136   -0.070598   1.632804
C    1.516500    0.586622   0.641778
O    1.229235    1.528718  -0.067304
H   -0.936027    0.628122   2.840385
H   -0.487875    1.676501   1.652829
H    1.172821   -0.634003   2.358729
C   -0.357761   -1.064905   0.883259
C    0.343423   -2.245627   0.206724
C   -0.643762   -3.264610  -0.371451
C    0.020160   -4.413485  -1.132409
N    0.840817   -5.250417  -0.245060
H   -0.947515   -0.497014   0.145435
H   -1.073402   -1.448409   1.629409
H    1.001553   -2.737837   0.941332
H    1.000027   -1.880371  -0.600400
H   -1.335737   -2.748762  -1.057422
H   -1.254370   -3.688467   0.441772
H    0.581375   -3.996358  -1.993913
H   -0.765318   -5.057248  -1.554340
H    1.133095   -6.099034  -0.728769
H    1.698481   -4.765067   0.019276
O    2.733083   -0.020760   0.604143
H    3.245633    0.449644  -0.083054
