 24
Energy: -13526.69231915.7 eV PBE+vdW (tier 2 basis)
N    0.031734    0.014674  -0.025642
C   -0.229776   -0.325896   1.366783
C    0.991168   -0.169225   2.274380
O    2.148425   -0.213395   1.911247
H    0.882787   -0.460454  -0.334879
H    0.220942    1.013030  -0.115801
H   -1.008255    0.350943   1.749568
C   -0.739039   -1.781097   1.487773
C   -2.050177   -2.046370   0.734933
C   -3.252832   -1.207796   1.185383
C   -3.635077   -1.374058   2.655903
N   -4.822196   -0.569523   2.971769
H   -0.846773   -2.028358   2.553796
H    0.044624   -2.449288   1.095242
H   -2.289228   -3.116737   0.844704
H   -1.882059   -1.870994  -0.336339
H   -4.118613   -1.488533   0.562327
H   -3.080868   -0.139562   0.982434
H   -2.819097   -1.013241   3.300938
H   -3.752286   -2.455542   2.876628
H   -5.631923   -0.914322   2.453694
H   -5.057298   -0.647261   3.961163
O    0.635746    0.006049   3.580212
H    1.471772    0.055119   4.083980
