 24
Energy: -13526.67585115.7 eV PBE+vdW (tier 2 basis)
N    0.337421   -0.549008  -0.299317
C   -0.010970   -0.114097   1.053866
C    1.179972   -0.179966   2.013257
O    1.949754   -1.114828   2.104619
H    1.033035    0.078056  -0.705610
H    0.775572   -1.472053  -0.254437
H   -0.347875    0.930242   0.998544
C   -1.152515   -0.998396   1.591943
C   -1.701678   -0.625180   2.976054
C   -2.294788    0.785228   3.104408
C   -3.470490    1.063757   2.168198
N   -4.005193    2.410691   2.404000
H   -0.786575   -2.037084   1.620272
H   -1.945991   -0.971221   0.831720
H   -0.910347   -0.745003   3.732732
H   -2.473186   -1.366591   3.238912
H   -1.523830    1.553317   2.943624
H   -2.634832    0.920692   4.144965
H   -4.221400    0.254467   2.282619
H   -3.133956    1.027407   1.120783
H   -4.760614    2.617445   1.750738
H   -4.407091    2.473631   3.340677
O    1.296530    0.943868   2.776762
H    2.066485    0.795422   3.361291
