 24
Energy: -13526.74552015.7 eV PBE+vdW (tier 2 basis)
N   -0.110607    0.909631   0.905930
C    0.393933   -0.204851   1.733203
C    1.482906   -0.977676   0.956766
O    1.769409   -0.444191  -0.240605
H   -1.074349    0.747714   0.614416
H    1.152041    0.343833  -0.286449
H    0.924459    0.215732   2.601548
C   -0.694214   -1.163900   2.234201
C   -1.519404   -0.635015   3.412959
C   -0.747152   -0.354443   4.712545
C    0.045176   -1.542063   5.310548
N    1.404669   -1.797947   4.837441
H   -0.216685   -2.117013   2.496041
H   -1.363194   -1.396081   1.387425
H   -2.308184   -1.373408   3.628368
H   -2.051856    0.283085   3.110889
H   -1.482033   -0.015717   5.461082
H   -0.056151    0.496409   4.581825
H   -0.536528   -2.468959   5.176321
H    0.109273   -1.391879   6.399280
H    1.460343   -2.048921   3.850146
H    2.007590   -0.988516   4.979877
O    2.037124   -1.959163   1.406800
H   -0.084569    1.799337   1.398443
