 24
Energy: -13526.72736315.7 eV PBE+vdW (tier 2 basis)
N   -2.271100   -0.524254   1.650421
C   -0.799103   -0.443566   1.722236
C   -0.237182   -0.471847   0.283285
O    0.885745   -0.121908  -0.005942
H   -2.696894    0.400814   1.602514
H   -2.657987   -0.999717   2.465023
H   -0.443465    0.492136   2.183037
C   -0.252923   -1.636455   2.531620
C    1.252400   -1.593160   2.808851
C    1.777518   -2.829680   3.550159
C    1.223996   -3.045019   4.971147
N    1.478401   -1.989068   5.956485
H   -0.808031   -1.654208   3.485061
H   -0.512007   -2.570851   2.005905
H    1.489133   -0.682527   3.384725
H    1.793995   -1.483556   1.860064
H    2.876059   -2.760343   3.609109
H    1.563450   -3.731922   2.951588
H    1.643541   -3.979696   5.372750
H    0.134846   -3.205260   4.934872
H    1.064560   -1.104950   5.658894
H    2.481584   -1.818914   6.045279
O   -1.112920   -0.959662  -0.617639
H   -1.947615   -1.086388  -0.083444
