 24
Energy: -13526.84531915.7 eV PBE+vdW (tier 2 basis)
N   -0.460878    0.263887   1.823149
C    0.988691   -0.003675   1.736401
C    1.297149   -0.599931   0.335755
O    2.421342   -0.836589  -0.053856
H   -0.533690   -0.505632   0.252404
H   -0.665532    1.259888   1.775896
H    1.573625    0.929465   1.793990
C    1.508794   -0.969031   2.815510
C    1.836682   -0.344809   4.183154
C    0.738217    0.409909   4.949046
C   -0.404524   -0.430411   5.527752
N   -1.287593   -1.014908   4.493760
H    2.434698   -1.411752   2.423307
H    0.795685   -1.803811   2.907852
H    2.677816    0.350796   4.031705
H    2.230923   -1.144012   4.833765
H    0.312230    1.210339   4.324315
H    1.220441    0.919186   5.798917
H   -1.026214    0.225127   6.153759
H    0.013883   -1.199701   6.202942
H   -2.226554   -1.150812   4.866481
H   -0.959578   -1.941147   4.219822
O    0.187634   -0.829560  -0.381176
H   -0.880247   -0.108814   2.688348
