 24
Energy: -13526.56368415.7 eV PBE+vdW (tier 2 basis)
N    0.093394    0.290885   0.228615
C    0.230543   -0.147046   1.619392
C    1.521852   -0.916507   1.849525
O    2.048547   -1.064214   2.932859
H    0.205794   -0.494411  -0.412063
H   -0.844634    0.666012   0.083026
H    0.331371    0.752670   2.245706
C   -0.958027   -0.960793   2.204061
C   -1.189527   -2.328838   1.555980
C   -2.434007   -3.077989   2.061299
C   -3.774280   -2.650980   1.454817
N   -4.159443   -1.280530   1.830044
H   -1.861574   -0.344999   2.090643
H   -0.787178   -1.087552   3.284878
H   -0.307222   -2.964721   1.732270
H   -1.267396   -2.216436   0.461436
H   -2.490559   -3.006747   3.161862
H   -2.312219   -4.150374   1.843087
H   -4.534319   -3.408712   1.730215
H   -3.692206   -2.678643   0.356416
H   -4.336217   -1.230710   2.835121
H   -5.034921   -1.022587   1.374003
O    2.015986   -1.489533   0.714607
H    2.815627   -1.976010   0.994437
