 24
Energy: -13526.70272415.7 eV PBE+vdW (tier 2 basis)
N   -0.201577    1.129172   1.310887
C    0.962696    0.267994   1.479238
C    1.935233    0.320269   0.295291
O    1.681697    0.755574  -0.808718
H   -0.592309    0.999219   0.375685
H    0.082539    2.108299   1.350260
H    1.519647    0.614597   2.362778
C    0.545805   -1.196076   1.753664
C   -0.197598   -1.879369   0.603441
C   -0.575957   -3.327739   0.922091
C   -1.323953   -4.050287  -0.211816
N   -0.600743   -4.262707  -1.469112
H   -0.092465   -1.176170   2.649234
H    1.446081   -1.775374   2.007848
H    0.427083   -1.853537  -0.305129
H   -1.115189   -1.316430   0.365214
H   -1.208372   -3.348671   1.826139
H    0.334309   -3.900067   1.173373
H   -2.245187   -3.495217  -0.451816
H   -1.651722   -5.036364   0.151221
H    0.269350   -4.770318  -1.301924
H   -0.342098   -3.374085  -1.898166
O    3.152003   -0.207408   0.614610
H    3.691726   -0.153304  -0.198293
