 24
Energy: -13526.77418815.7 eV PBE+vdW (tier 2 basis)
N   -0.424562    0.823963   1.668552
C    0.795402    0.012173   1.843054
C    1.611513    0.033616   0.532035
O    0.922503    0.528899  -0.513487
H   -1.218490    0.412243   2.158098
H    0.050459    0.797033  -0.101308
H    1.458478    0.422311   2.620891
C    0.459455   -1.450957   2.183186
C   -0.235416   -1.660852   3.533871
C    0.621476   -1.333805   4.759497
C   -0.167443   -1.373367   6.071450
N   -1.165937   -0.292720   6.114453
H    1.401131   -2.016931   2.146169
H   -0.175798   -1.852340   1.376473
H   -0.551594   -2.714650   3.592224
H   -1.166485   -1.074447   3.596311
H    1.072625   -0.331791   4.658426
H    1.467090   -2.036633   4.823807
H    0.541391   -1.352821   6.920703
H   -0.710742   -2.328748   6.140738
H   -1.817500   -0.435237   6.885467
H   -0.707416    0.602814   6.288430
O    2.747770   -0.377933   0.450953
H   -0.303910    1.766183   2.037007
