 24
Energy: -13526.69235015.7 eV PBE+vdW (tier 2 basis)
N   -0.061664    0.975415   3.450386
C    0.670238   -0.271777   3.149340
C    1.995631    0.075162   2.430062
O    2.081902    1.366410   2.062288
H   -1.054443    0.899766   3.234711
H    1.231777    1.758821   2.415037
H    0.961608   -0.796584   4.069945
C   -0.140334   -1.214865   2.240924
C   -1.413888   -1.832398   2.842820
C   -1.227013   -3.092787   3.702380
C   -0.499144   -2.920931   5.048725
N   -1.060240   -1.951051   5.995591
H    0.540131   -2.010218   1.905889
H   -0.407613   -0.642986   1.336466
H   -2.079363   -2.097813   2.008214
H   -1.977701   -1.074916   3.416705
H   -0.686552   -3.851236   3.111244
H   -2.224886   -3.517999   3.902160
H    0.555529   -2.657618   4.879997
H   -0.474420   -3.896428   5.556727
H   -1.130680   -1.025063   5.571699
H   -2.011161   -2.216358   6.256987
O    2.857544   -0.745569   2.206820
H    0.025743    1.247023   4.427882
