 24
Energy: -13526.68524315.7 eV PBE+vdW (tier 2 basis)
N    0.481280   -0.052187  -0.362100
C    0.234884   -0.084598   1.074817
C    1.400126    0.465423   1.899738
O    2.561622    0.483094   1.548223
H    1.414250   -0.426835  -0.549634
H    0.494906    0.911437  -0.696628
H   -0.647728    0.536587   1.292069
C   -0.062566   -1.526039   1.548324
C   -1.358966   -2.086274   0.956120
C   -1.585199   -3.575573   1.239890
C   -1.775990   -3.922614   2.716856
N   -2.045105   -5.356956   2.878165
H   -0.100979   -1.533033   2.647173
H    0.789504   -2.164488   1.258929
H   -1.340525   -1.922023  -0.130083
H   -2.212093   -1.502780   1.343314
H   -0.747729   -4.170877   0.842732
H   -2.480433   -3.904656   0.685486
H   -2.565632   -3.266141   3.138482
H   -0.854937   -3.700501   3.276939
H   -2.131064   -5.598880   3.865220
H   -2.935340   -5.601453   2.441516
O    0.992618    0.923617   3.118352
H    1.802487    1.210303   3.584437
