 24
Energy: -13526.73454215.7 eV PBE+vdW (tier 2 basis)
N    0.605225   -0.313618   0.611011
C    0.346148   -0.115090   2.053926
C    1.715967   -0.090878   2.779836
O    2.748094    0.126173   1.947771
H    0.573510   -1.307316   0.375746
H    2.314960    0.128123   1.044617
H   -0.053761    0.907849   2.163945
C   -0.631974   -1.109894   2.699021
C   -1.317254   -0.583261   3.973986
C   -1.897297   -1.698587   4.861993
C   -0.912947   -2.252112   5.899854
N    0.304434   -2.812397   5.294275
H   -0.103258   -2.048281   2.922423
H   -1.407798   -1.354810   1.956080
H   -2.116178    0.114680   3.677030
H   -0.598505    0.006118   4.562480
H   -2.265575   -2.524090   4.231142
H   -2.769689   -1.311646   5.411033
H   -1.413515   -3.058595   6.456246
H   -0.698906   -1.449452   6.634830
H    0.806426   -3.371910   5.982964
H    0.941875   -2.058939   5.023029
O    1.857936   -0.233476   3.977248
H   -0.099191    0.151207   0.040738
