 24
Energy: -13526.66852315.7 eV PBE+vdW (tier 2 basis)
N   -0.235481    1.277876   1.783429
C    0.874707    0.359783   1.560058
C    1.721436    0.716765   0.332856
O    1.395297    1.478493  -0.553577
H   -0.719229    1.452708   0.900533
H    0.120915    2.186871   2.079276
H    1.543907    0.414112   2.432047
C    0.388273   -1.105155   1.456518
C   -0.535925   -1.385618   0.267124
C   -1.045373   -2.831392   0.206170
C    0.036402   -3.873365  -0.081617
N   -0.555484   -5.213272  -0.179341
H   -0.142113   -1.327444   2.394319
H    1.272552   -1.756642   1.419006
H   -0.019420   -1.142170  -0.676996
H   -1.406998   -0.715264   0.321185
H   -1.812435   -2.899598  -0.583416
H   -1.552902   -3.097979   1.146581
H    0.763848   -3.899522   0.743530
H    0.599290   -3.562241  -0.986171
H    0.168483   -5.917281  -0.322170
H   -1.176532   -5.268338  -0.988171
O    2.914770    0.055327   0.329802
H    3.370009    0.324347  -0.491977
