 24
Energy: -13526.61794115.7 eV PBE+vdW (tier 2 basis)
N    1.223039   -0.447581  -0.447359
C    0.486084    0.018227   0.727621
C    1.331602    0.602268   1.858020
O    1.072515    1.615257   2.475433
H    1.886729   -1.176278  -0.180765
H    1.765987    0.310473  -0.860778
H   -0.156936    0.852057   0.411913
C   -0.397836   -1.109206   1.299431
C   -1.555369   -1.511054   0.372426
C   -2.652675   -0.457530   0.151001
C   -3.596423   -0.186296   1.326914
N   -2.911639    0.433555   2.471446
H   -0.800698   -0.790971   2.269894
H    0.246727   -1.984821   1.480657
H   -2.020424   -2.421658   0.783884
H   -1.137647   -1.791696  -0.605720
H   -3.275458   -0.786511  -0.695445
H   -2.207414    0.496880  -0.180138
H   -4.018271   -1.143156   1.675483
H   -4.449943    0.411907   0.949443
H   -2.517372    1.338309   2.207441
H   -3.571043    0.615352   3.227850
O    2.435845   -0.156584   2.130427
H    2.882499    0.285815   2.877715
