 24
Energy: -13526.71890815.7 eV PBE+vdW (tier 2 basis)
N   -0.849349   -0.611503  -0.189546
C   -0.568689   -0.592634   1.263904
C   -0.167982    0.852363   1.661460
O    0.301864    1.155203   2.736199
H   -1.618226   -1.241079  -0.412258
H   -0.033344   -0.938483  -0.709391
H   -1.524661   -0.776945   1.781548
C    0.453284   -1.645143   1.731223
C    0.407124   -1.970605   3.226485
C    1.454724   -3.007031   3.638410
C    1.323522   -3.464017   5.093865
N    0.074367   -4.211788   5.304217
H    0.256007   -2.567888   1.159868
H    1.465791   -1.310714   1.447409
H   -0.592462   -2.352028   3.487292
H    0.555334   -1.046551   3.802352
H    2.465994   -2.594992   3.489245
H    1.388789   -3.892901   2.980710
H    1.292982   -2.578693   5.747631
H    2.231171   -4.032248   5.375409
H   -0.090683   -4.363760   6.298671
H    0.140456   -5.137080   4.877672
O   -0.419110    1.753251   0.692512
H   -0.771903    1.189265  -0.055890
