 24
Energy: -13526.78042115.7 eV PBE+vdW (tier 2 basis)
N    0.076962    0.824635   2.216876
C    1.054867   -0.254798   2.003862
C    1.697302   -0.083564   0.615093
O    0.957540    0.680137  -0.217909
H   -0.555506    0.605859   2.994609
H    0.196854    0.981115   0.354071
H    1.883748   -0.240685   2.731397
C    0.381560   -1.645390   2.029379
C   -0.491615   -1.920530   3.258514
C    0.205666   -1.800482   4.625571
C   -0.702276   -1.168045   5.683573
N   -0.974657    0.242391   5.343477
H    1.184472   -2.391115   1.941578
H   -0.242671   -1.749998   1.128221
H   -0.921167   -2.927791   3.152775
H   -1.353306   -1.235508   3.243749
H    1.117297   -1.185881   4.545893
H    0.545849   -2.786180   4.974831
H   -0.254883   -1.292088   6.686213
H   -1.666726   -1.698194   5.700993
H   -1.782485    0.589669   5.859430
H   -0.184843    0.826079   5.623175
O    2.736491   -0.609375   0.284475
H    0.558530    1.684738   2.483155
