 24
Energy: -13526.45525815.7 eV PBE+vdW (tier 2 basis)
N    2.116928   -0.707763   1.361915
C    1.059214   -0.748587   2.369497
C    0.384784    0.623177   2.575991
O   -0.962594    0.617171   2.803692
H    1.726855   -0.443040   0.455995
H   -1.283390   -0.304693   2.801601
H    0.307337   -1.475818   2.021563
C    1.665022   -1.234902   3.702974
C    0.726763   -1.461000   4.898134
C   -0.203664   -2.686380   4.828766
C   -1.549454   -2.481097   4.128876
N   -2.390950   -3.669536   4.272661
H    2.428371   -0.494183   3.990982
H    2.206615   -2.164760   3.473327
H    0.137741   -0.552723   5.107933
H    1.373505   -1.587052   5.778438
H   -0.435589   -3.023073   5.849802
H    0.331553   -3.523789   4.348556
H   -1.383443   -2.201289   3.062737
H   -2.077040   -1.640160   4.606501
H   -3.315445   -3.517384   3.870717
H   -1.981130   -4.464409   3.780557
O    0.987542    1.670536   2.553490
H    2.772471    0.038755   1.607296
