 24
Energy: -13526.58954015.7 eV PBE+vdW (tier 2 basis)
N   -1.068962   -0.791799  -0.579079
C   -0.385229   -0.306239   0.615754
C    1.113132   -0.335575   0.365465
O    1.667629   -0.915895  -0.544372
H   -1.936514   -1.265595  -0.333811
H   -0.470195   -1.453002  -1.075846
H   -0.646482    0.754294   0.779743
C   -0.709763   -1.051443   1.936437
C   -0.252109   -2.514958   1.984495
C   -0.405609   -3.167917   3.370596
C    0.803138   -3.006799   4.298672
N    1.077201   -1.606206   4.658161
H   -1.802412   -1.004365   2.075907
H   -0.283232   -0.484463   2.774461
H    0.802242   -2.594662   1.666375
H   -0.820470   -3.093072   1.240784
H   -0.571350   -4.248816   3.243169
H   -1.301666   -2.770603   3.873849
H    1.671148   -3.515503   3.831383
H    0.594284   -3.546716   5.233956
H    1.740217   -1.568643   5.432102
H    1.521509   -1.110899   3.883652
O    1.802163    0.357168   1.318431
H    2.744122    0.272030   1.074650
