 24
Energy: -13526.72099115.7 eV PBE+vdW (tier 2 basis)
N    0.620937    0.022966   0.043318
C   -0.159776    0.311786   1.263366
C    0.702165   -0.016853   2.509551
O    0.276307    0.021236   3.642171
H    0.504961    0.748707  -0.660765
H    0.328535   -0.859119  -0.378326
H   -0.287247    1.404314   1.320930
C   -1.564857   -0.316938   1.333362
C   -1.665291   -1.809883   0.987835
C   -0.895922   -2.762900   1.908491
C   -1.056280   -4.237749   1.531782
N   -2.447176   -4.692982   1.667126
H   -2.223156    0.245465   0.653751
H   -1.941110   -0.148008   2.352436
H   -1.358255   -1.983151  -0.061448
H   -2.735460   -2.067235   1.015676
H   -1.229303   -2.617644   2.946653
H    0.180795   -2.531385   1.891511
H   -0.446211   -4.839606   2.220112
H   -0.634725   -4.399768   0.517469
H   -2.491728   -5.711028   1.645002
H   -3.018136   -4.366439   0.887654
O    1.983966   -0.299581   2.207745
H    1.996967   -0.242205   1.208599
