 24
Energy: -13526.74022515.7 eV PBE+vdW (tier 2 basis)
N   -0.596656    0.572636   0.251419
C   -0.285656    0.351960   1.677464
C    1.142158    0.873000   1.953812
O    1.884550    1.002756   0.836541
H   -1.228839   -0.142858  -0.105960
H    1.237059    0.798138   0.103900
H   -0.958834    0.904315   2.352687
C   -0.382147   -1.151791   2.000291
C   -0.170949   -1.519546   3.469553
C   -0.329234   -3.021364   3.725095
C   -0.166162   -3.414433   5.194601
N    1.209287   -3.197535   5.661018
H    0.340327   -1.696163   1.369604
H   -1.386221   -1.486899   1.685563
H   -0.891759   -0.962728   4.092034
H    0.826637   -1.181757   3.782548
H    0.412115   -3.579186   3.130755
H   -1.326400   -3.348580   3.385813
H   -0.381388   -4.488048   5.298893
H   -0.931944   -2.880004   5.794835
H    1.418580   -2.201123   5.729119
H    1.332076   -3.580008   6.598049
O    1.565205    1.114811   3.062836
H   -1.038803    1.478402   0.098531
