 24
Energy: -13526.73705415.7 eV PBE+vdW (tier 2 basis)
N    0.877313   -0.253077   1.114395
C   -0.207563   -0.126007   2.107825
C    0.411843    0.150253   3.501110
O   -0.243068    0.216084   4.518734
H    1.953405    0.242315   2.488159
H    0.667463    0.251880   0.256163
H   -0.755916    0.802338   1.883194
C   -1.239753   -1.271890   2.129436
C   -0.676444   -2.701860   2.125375
C    0.137333   -3.144122   3.351341
C   -0.644841   -3.189676   4.668827
N   -1.788833   -4.116707   4.583092
H   -1.890060   -1.154782   1.249194
H   -1.876964   -1.110604   3.010849
H   -0.066368   -2.861650   1.218827
H   -1.522674   -3.394421   1.996290
H    1.016406   -2.494585   3.490975
H    0.526249   -4.153805   3.149015
H   -0.925293   -2.167393   4.975300
H    0.029787   -3.570579   5.448568
H   -2.580513   -3.666840   4.121946
H   -2.114785   -4.351159   5.520315
O    1.739954    0.357133   3.460517
H    1.032828   -1.229975   0.864148
