 24
Energy: -13526.55730015.7 eV PBE+vdW (tier 2 basis)
N    0.274878    0.202495  -0.053866
C    0.044598    0.168915   1.399282
C    1.412661    0.174213   2.070165
O    1.820569    1.007217   2.849886
H   -0.617335    0.315908  -0.536705
H    0.669460   -0.687098  -0.364354
H   -0.409621    1.128689   1.683558
C   -0.871671   -0.981025   1.881255
C   -1.313172   -0.957734   3.353197
C   -0.267968   -1.375357   4.400973
C    0.296367   -2.789244   4.234934
N   -0.771547   -3.799073   4.249407
H   -0.401671   -1.944863   1.631725
H   -1.774776   -0.918582   1.253113
H   -2.177828   -1.629522   3.446603
H   -1.676656    0.052138   3.603674
H   -0.738103   -1.299442   5.396413
H    0.571608   -0.666130   4.424994
H    1.068484   -2.944917   5.013959
H    0.816230   -2.873182   3.268750
H   -0.389792   -4.728101   4.074266
H   -1.211117   -3.836253   5.170608
O    2.163561   -0.902190   1.689437
H    3.023974   -0.798847   2.139544
