 24
Energy: -13526.74893615.7 eV PBE+vdW (tier 2 basis)
N   -1.598594   -0.083004   2.380621
C   -0.335339   -0.298951   1.644584
C   -0.659631   -0.583907   0.155846
O    0.172076   -0.936797  -0.650135
H   -1.521794    0.669975   3.060806
H   -1.875008   -0.925079   2.887289
H    0.207900    0.660850   1.633412
C    0.586082   -1.378151   2.223389
C    1.205028   -0.999797   3.571452
C    2.169792   -2.050074   4.137860
C    1.533789   -3.402540   4.511378
N    0.486496   -3.390668   5.537439
H    0.009006   -2.315591   2.303969
H    1.375770   -1.574576   1.484288
H    0.411686   -0.797519   4.312161
H    1.748145   -0.047709   3.455290
H    2.659495   -1.634857   5.034328
H    2.975931   -2.234222   3.407671
H    2.330318   -4.076894   4.859892
H    1.112080   -3.883974   3.615993
H   -0.319617   -2.843658   5.234556
H    0.827280   -2.953938   6.395421
O   -1.950940   -0.370043  -0.155994
H   -2.354947   -0.100877   0.718483
