 24
Energy: -13526.63991315.7 eV PBE+vdW (tier 2 basis)
N    0.092317   -0.084078   0.244406
C   -0.239363   -0.668218   1.539901
C    0.879318   -0.721330   2.582619
O    0.713569   -0.661404   3.783467
H    0.871470   -0.585887  -0.183741
H    0.389907    0.885429   0.349074
H   -1.020142   -0.047109   2.002802
C   -0.792035   -2.100773   1.366401
C   -2.074352   -2.178961   0.525539
C   -3.269174   -1.383727   1.066363
C   -3.717969   -1.779595   2.473063
N   -4.901072   -1.005985   2.870152
H   -0.957157   -2.529364   2.365546
H   -0.010835   -2.717901   0.893010
H   -2.351827   -3.242140   0.438646
H   -1.853427   -1.829699  -0.492441
H   -4.115561   -1.524629   0.373301
H   -3.056638   -0.303830   1.052593
H   -2.924002   -1.552028   3.200665
H   -3.866795   -2.879160   2.507127
H   -5.700599   -1.254287   2.285399
H   -5.166337   -1.221873   3.830941
O    2.115603   -0.880935   2.022023
H    2.738222   -0.940545   2.772307
