 24
Energy: -13526.67671515.7 eV PBE+vdW (tier 2 basis)
N   -0.772227    0.252154   0.477736
C    0.101523    0.176808   1.640011
C    1.593234    0.313583   1.298430
O    2.057937    0.423717   0.184474
H   -0.500649   -0.454113  -0.208326
H   -0.645592    1.147249   0.004407
H   -0.134985    1.033231   2.293061
C   -0.154181   -1.104018   2.461081
C    0.256882   -2.398266   1.751068
C    0.124788   -3.660239   2.616346
C    0.965667   -3.658541   3.897808
N    2.394608   -3.470756   3.607630
H   -1.228110   -1.126885   2.697038
H    0.382071   -1.006974   3.415003
H    1.298020   -2.319772   1.396020
H   -0.355528   -2.536838   0.846894
H    0.418758   -4.529411   2.009070
H   -0.931446   -3.807020   2.895928
H    0.852687   -4.637835   4.385145
H    0.558658   -2.913342   4.609892
H    2.583635   -2.501183   3.348652
H    2.950279   -3.653530   4.442758
O    2.378665    0.309208   2.419101
H    3.295119    0.421686   2.098784
