 24
Energy: -13526.74516215.7 eV PBE+vdW (tier 2 basis)
N    2.115945   -0.369616   1.860033
C    1.052588   -0.610147   2.864085
C    0.538252    0.752345   3.363782
O    1.337475    1.782442   3.026490
H    2.887724   -1.025891   1.973628
H    2.034382    1.340468   2.456364
H    0.195463   -1.153722   2.437180
C    1.621628   -1.459953   4.017832
C    0.703942   -1.771961   5.208053
C   -0.397948   -2.827049   5.011595
C   -1.604503   -2.449696   4.138777
N   -1.363207   -2.718964   2.707290
H    2.521885   -0.947882   4.398474
H    1.964292   -2.409319   3.570569
H    0.248637   -0.840847   5.574980
H    1.355852   -2.130588   6.019985
H   -0.782714   -3.074582   6.012914
H    0.044253   -3.764184   4.628002
H   -1.807787   -1.374217   4.244315
H   -2.492452   -2.987410   4.520100
H   -1.283063   -3.725362   2.551615
H   -2.164293   -2.408926   2.155751
O   -0.482767    0.893905   4.006694
H    1.760416   -0.480845   0.911494
