 24
Energy: -13526.59213115.7 eV PBE+vdW (tier 2 basis)
N    0.436016   -0.563579   0.028115
C    0.008342   -0.517679   1.426177
C    1.201264   -0.494358   2.368958
O    1.225669    0.070665   3.442127
H    0.917246   -1.440925  -0.174286
H   -0.374770   -0.512131  -0.588088
H   -0.495354    0.445780   1.587763
C   -0.936378   -1.657133   1.902377
C   -2.271961   -1.724466   1.148398
C   -3.143650   -0.463163   1.219666
C   -3.544120   -0.047091   2.635630
N   -4.434331    1.118601   2.592738
H   -1.115460   -1.530616   2.980994
H   -0.407777   -2.616653   1.784730
H   -2.839480   -2.580844   1.546649
H   -2.083290   -1.967649   0.090384
H   -4.059517   -0.643940   0.632553
H   -2.648232    0.392376   0.733993
H   -2.651469    0.247105   3.207804
H   -3.975015   -0.925687   3.159460
H   -4.629668    1.457760   3.534295
H   -5.334207    0.866552   2.181422
O    2.240717   -1.248875   1.912010
H    2.930119   -1.196023   2.601840
