 24
Energy: -13526.62695215.7 eV PBE+vdW (tier 2 basis)
N   -0.445451    0.432684   0.528040
C    0.500010   -0.311724   1.355710
C    1.532122   -1.086320   0.537230
O    1.412909   -1.410711  -0.627522
H    0.055560    1.129953  -0.025057
H   -0.867739   -0.198831  -0.157431
H    1.047554    0.400048   1.993042
C   -0.253108   -1.307365   2.284730
C    0.354787   -1.468143   3.687965
C   -0.194958   -0.487713   4.738506
C   -0.085587    1.006066   4.418902
N    1.304185    1.411447   4.159126
H   -0.321141   -2.286949   1.787448
H   -1.285197   -0.931937   2.360151
H    1.448803   -1.381307   3.626027
H    0.155231   -2.487130   4.051679
H    0.310544   -0.684494   5.699829
H   -1.260765   -0.708185   4.913004
H   -0.559148    1.565678   5.248722
H   -0.672089    1.238706   3.516067
H    1.358684    2.417971   4.003620
H    1.892407    1.211049   4.969598
O    2.633472   -1.414027   1.274180
H    3.205178   -1.937545   0.678731
