 24
Energy: -13526.68197015.7 eV PBE+vdW (tier 2 basis)
N    0.845855    0.785519   1.536200
C    1.682828    0.275636   2.618618
C    2.612576   -0.858406   2.176561
O    3.587289   -1.103942   3.098001
H    0.506892    0.002757   0.972864
H    4.108123   -1.852853   2.747494
H    2.325180    1.095318   2.973624
C    0.820148   -0.178908   3.819744
C   -0.103814   -1.362048   3.517950
C   -1.091668   -1.690893   4.646667
C   -2.075162   -0.566454   4.989913
N   -2.866940   -0.168272   3.817976
H    0.232812    0.702915   4.112508
H    1.479798   -0.422711   4.665923
H    0.499689   -2.258749   3.306270
H   -0.675820   -1.166878   2.597449
H   -0.535471   -1.957113   5.560723
H   -1.670575   -2.579503   4.353454
H   -1.529028    0.274923   5.461629
H   -2.774875   -0.940210   5.751657
H   -2.291737    0.353362   3.154506
H   -3.619029    0.461027   4.097005
O    2.509904   -1.493158   1.147622
H    1.409025    1.349640   0.899637
