 24
Energy: -13526.58528815.7 eV PBE+vdW (tier 2 basis)
N   -1.291245    0.705819   1.155057
C   -0.340363   -0.159747   1.853824
C    1.045414   -0.324744   1.221463
O    2.044633   -0.659458   1.823260
H   -1.394795    0.421280   0.181479
H   -0.940884    1.663694   1.133108
H   -0.141458    0.307080   2.829775
C   -0.921749   -1.564016   2.159823
C   -0.978462   -2.591463   1.019095
C   -1.899832   -2.287163  -0.172949
C   -3.367375   -2.024383   0.179530
N   -3.948540   -3.159469   0.909708
H   -1.923431   -1.401374   2.581687
H   -0.308431   -1.996738   2.962785
H   -1.304333   -3.540376   1.468160
H    0.039236   -2.773180   0.637498
H   -1.850869   -3.144531  -0.866379
H   -1.518263   -1.433598  -0.755557
H   -3.908166   -1.770108  -0.753545
H   -3.439643   -1.140021   0.829269
H   -4.892553   -2.938210   1.224422
H   -4.029636   -3.973671   0.298639
O    1.052631   -0.082273  -0.123795
H    1.970204   -0.252719  -0.413122
