 24
Energy: -13526.51294215.7 eV PBE+vdW (tier 2 basis)
N    0.127369    0.262877   0.865743
C    0.248638    0.292819   2.322123
C    1.696156    0.060791   2.800739
O    2.178927    0.924199   3.745962
H    0.517401   -0.617889   0.521249
H    1.485019    1.568388   3.970760
H   -0.097943    1.285631   2.660619
C   -0.657843   -0.784899   2.938681
C   -0.660850   -0.814581   4.469227
C   -1.559178   -1.903213   5.070434
C   -1.152384   -3.351206   4.729258
N    0.201936   -3.773130   5.090253
H   -0.325541   -1.755878   2.538202
H   -1.673491   -0.615456   2.551705
H   -0.987969    0.166195   4.853272
H    0.366050   -0.956324   4.844947
H   -2.601491   -1.747371   4.743310
H   -1.563127   -1.788699   6.166978
H   -1.275312   -3.533677   3.650959
H   -1.860908   -4.032503   5.225037
H    0.392368   -3.591279   6.076555
H    0.907363   -3.266710   4.554511
O    2.397928   -0.832855   2.388669
H    0.690885    1.003771   0.445807
