 24
Energy: -13526.74974215.7 eV PBE+vdW (tier 2 basis)
N   -0.840075   -0.680773   0.826266
C    0.283576   -0.374427   1.740906
C    1.477620    0.141473   0.910146
O    2.549928    0.449153   1.388285
H    0.245768   -0.042421  -0.453442
H   -1.714607   -0.301104   1.184748
H   -0.027089    0.462089   2.383077
C    0.628816   -1.562590   2.655934
C    1.702322   -1.342721   3.731240
C    1.471940   -0.192519   4.723410
C    0.163190   -0.232698   5.522522
N   -0.968047    0.340328   4.763620
H    0.939097   -2.411939   2.022924
H   -0.317521   -1.853814   3.137369
H    2.672986   -1.181378   3.244678
H    1.788053   -2.283626   4.300279
H    1.551014    0.775351   4.201326
H    2.309870   -0.203550   5.436978
H    0.319307    0.273886   6.493275
H   -0.092836   -1.278054   5.758161
H   -0.864308    1.355835   4.718439
H   -1.843576    0.173237   5.261026
O    1.204923    0.247924  -0.404145
H   -0.967350   -1.689666   0.735979
