 24
Energy: -13526.59914515.7 eV PBE+vdW (tier 2 basis)
N    0.474000    0.176706  -0.318376
C    0.185657   -0.057593   1.092714
C    1.315165    0.175074   2.093147
O    1.189310    0.128727   3.301510
H    1.289715   -0.359859  -0.616757
H    0.697567    1.157199  -0.482853
H   -0.610664    0.643344   1.406104
C   -0.376814   -1.479396   1.303048
C   -1.740769   -1.735767   0.641904
C   -2.996906   -1.387214   1.463127
C   -3.484221    0.064853   1.468832
N   -2.603946    0.965886   2.227615
H   -0.434549   -1.676116   2.383119
H    0.358843   -2.193902   0.896589
H   -1.796124   -2.810427   0.411268
H   -1.768220   -1.219728  -0.330713
H   -2.862303   -1.725378   2.506476
H   -3.831430   -1.988764   1.069618
H   -4.525907    0.068599   1.844979
H   -3.524122    0.435358   0.432053
H   -2.997138    1.906339   2.263265
H   -2.515585    0.648723   3.194649
O    2.517889    0.459389   1.505376
H    3.139820    0.586708   2.248135
