 24
Energy: -13526.42324815.7 eV PBE+vdW (tier 2 basis)
N   -0.197657    1.054854   2.811671
C    0.920324    0.362465   2.151572
C    1.219023    1.000975   0.782127
O    0.560015    0.487838  -0.303494
H    0.001921    2.053678   2.878561
H    0.080769   -0.317174  -0.033610
H    1.819659    0.567670   2.748243
C    0.674083   -1.151805   2.109632
C    0.519046   -1.817554   3.484269
C    1.768552   -1.737551   4.365749
C    1.654560   -2.533356   5.668382
N    0.551193   -2.037411   6.501530
H    1.500546   -1.626042   1.554907
H   -0.250093   -1.360725   1.534605
H    0.264950   -2.877657   3.323568
H   -0.330922   -1.373248   4.016685
H    1.987887   -0.685883   4.616301
H    2.647101   -2.106881   3.810784
H    2.639427   -2.519090   6.175597
H    1.439891   -3.587697   5.430889
H    0.743167   -1.083785   6.812683
H    0.454287   -2.603809   7.343728
O    1.934407    1.966308   0.646514
H   -1.056136    0.959877   2.265104
