 24
Energy: -13526.58940115.7 eV PBE+vdW (tier 2 basis)
N    1.058940   -0.328583   0.714522
C    0.009448   -0.176149   1.715643
C    0.454662    0.088311   3.163159
O   -0.293564    0.220560   4.112660
H    1.621101   -1.157794   0.906322
H    1.701220    0.462418   0.740801
H   -0.546629    0.744686   1.465447
C   -1.025882   -1.320001   1.629983
C   -0.473914   -2.751016   1.736654
C    0.136336   -3.179807   3.082680
C   -0.861534   -3.608972   4.164615
N   -1.863009   -2.579627   4.462693
H   -1.510541   -1.214648   0.648972
H   -1.793607   -1.162621   2.396428
H    0.268857   -2.909807   0.938290
H   -1.301841   -3.437061   1.496751
H    0.793665   -2.391143   3.483591
H    0.803121   -4.038760   2.908065
H   -0.278222   -3.936083   5.049816
H   -1.402876   -4.499915   3.805299
H   -2.478863   -2.887762   5.214108
H   -1.419195   -1.712129   4.771072
O    1.807086    0.224746   3.291931
H    1.956916    0.429759   4.235586
