 24
Energy: -13526.73563515.7 eV PBE+vdW (tier 2 basis)
N    0.239681   -0.996600   0.594613
C    0.285493   -0.064995   1.741885
C    1.701791    0.559589   1.832597
O    2.487178    0.248645   0.785492
H    0.302357   -1.966410   0.905169
H    1.899916   -0.343666   0.232002
H   -0.375331    0.783695   1.506325
C   -0.152285   -0.652068   3.092728
C    0.710225   -1.822739   3.580089
C    0.309052   -2.359657   4.959796
C   -1.059099   -3.041998   5.003025
N   -1.323526   -3.575380   6.343508
H   -1.207872   -0.952247   3.007252
H   -0.108231    0.157101   3.835731
H    1.759957   -1.495116   3.621663
H    0.677370   -2.658551   2.857743
H    0.325473   -1.546168   5.701247
H    1.071239   -3.086093   5.287330
H   -1.102444   -3.805151   4.197057
H   -1.851901   -2.311197   4.782688
H   -0.662543   -4.320646   6.567743
H   -2.254965   -3.987450   6.392570
O    2.054666    1.275670   2.743408
H   -0.624198   -0.900566   0.065338
