 24
Energy: -13526.53858715.7 eV PBE+vdW (tier 2 basis)
N   -0.177029   -1.067973  -1.015535
C   -0.544866   -0.470250   0.273937
C    0.711998    0.060118   0.951935
O    0.853199    1.169659   1.419026
H   -1.022046   -1.343413  -1.517340
H    0.372232   -1.916212  -0.866770
H   -1.155668    0.415845   0.059827
C   -1.314232   -1.417845   1.229407
C   -1.752099   -0.868036   2.596912
C   -2.868343    0.192223   2.577120
C   -2.402084    1.644821   2.458549
N   -3.560435    2.548528   2.470473
H   -0.683594   -2.307741   1.385290
H   -2.205600   -1.762270   0.679154
H   -0.879047   -0.477326   3.145921
H   -2.102028   -1.730096   3.183823
H   -3.447544    0.105096   3.511722
H   -3.582447   -0.020212   1.765155
H   -1.867685    1.809307   1.513328
H   -1.662977    1.847201   3.258725
H   -4.025523    2.517129   3.379479
H   -3.258684    3.513493   2.335627
O    1.686315   -0.893220   1.019806
H    2.444477   -0.469952   1.466665
