 24
Energy: -13526.63157615.7 eV PBE+vdW (tier 2 basis)
N    2.717334   -2.105707   3.568768
C    1.424723   -1.741971   2.945467
C    1.616879   -1.708481   1.405936
O    2.809609   -2.191164   1.013206
H    3.192439   -1.277194   3.929496
H    3.256694   -2.423096   1.879282
H    0.723481   -2.572385   3.129364
C    0.808109   -0.442646   3.498698
C   -0.682512   -0.243484   3.191451
C   -1.282089    1.048657   3.776789
C   -1.904559    0.927230   5.178917
N   -1.038753    0.548831   6.301625
H    1.377493    0.417386   3.107194
H    0.967981   -0.448921   4.588332
H   -1.248843   -1.114006   3.568500
H   -0.807575   -0.254609   2.102054
H   -2.074637    1.410056   3.102185
H   -0.516769    1.844079   3.784631
H   -2.724590    0.192171   5.143077
H   -2.375110    1.888906   5.437039
H   -0.677126   -0.397125   6.183194
H   -0.230841    1.170131   6.362189
O    0.777578   -1.309523   0.628327
H    2.592084   -2.746135   4.350277
