 24
Energy: -13526.59299715.7 eV PBE+vdW (tier 2 basis)
N   -0.335333    0.722662   2.319090
C    0.570276   -0.152785   1.578107
C    1.622228    0.725686   0.911618
O    1.809698    1.897258   1.168946
H    0.163059    1.561096   2.620468
H   -0.703298    0.250527   3.142539
H    1.159541   -0.829158   2.236302
C   -0.227206   -1.045117   0.596469
C    0.438876   -2.362250   0.193648
C   -0.454182   -3.226431  -0.699865
C    0.168836   -4.573852  -1.104082
N    0.427510   -5.545217  -0.036407
H   -0.494021   -0.452838  -0.292391
H   -1.180790   -1.264986   1.100831
H    0.696151   -2.919456   1.111621
H    1.389309   -2.166504  -0.324092
H   -0.697503   -2.666847  -1.619340
H   -1.418043   -3.414102  -0.194572
H    1.124272   -4.392371  -1.622366
H   -0.486694   -5.062215  -1.841151
H    1.091440   -5.173489   0.643002
H   -0.431018   -5.750214   0.477130
O    2.377716    0.053639   0.000870
H    3.024178    0.704964  -0.334379
