 24
Energy: -13526.63915515.7 eV PBE+vdW (tier 2 basis)
N    0.822288    1.038835   0.410597
C    0.717577   -0.012852   1.411117
C    1.797218   -1.098249   1.292970
O    2.523116   -1.290661   0.339163
H    0.829946    0.634394  -0.527067
H    1.713873    1.525336   0.505799
H    0.888589    0.446086   2.397848
C   -0.713347   -0.611248   1.462036
C   -1.346508   -1.010037   0.117863
C   -0.630710   -2.076187  -0.723636
C   -0.488168   -3.443171  -0.055501
N    0.236235   -4.362541  -0.943583
H   -1.352599    0.160703   1.913562
H   -0.709310   -1.459650   2.160488
H   -1.468575   -0.102926  -0.493113
H   -2.371505   -1.352970   0.334719
H    0.371869   -1.722934  -1.013947
H   -1.180343   -2.213985  -1.666850
H   -1.489681   -3.865988   0.124965
H   -0.015360   -3.330757   0.939287
H    0.321562   -5.284283  -0.514990
H    1.188326   -4.021293  -1.089706
O    1.882466   -1.841917   2.434873
H    2.586039   -2.500704   2.275104
