 24
Energy: -13526.52372215.7 eV PBE+vdW (tier 2 basis)
N    1.303651    0.272958   2.700805
C    1.804861   -0.748398   1.779937
C    1.133812   -0.651255   0.411535
O    0.661011    0.601376   0.150804
H    1.343569    1.198689   2.276850
H    0.304554    0.564122  -0.757872
H    2.881984   -0.614019   1.527500
C    1.668456   -2.168892   2.353641
C    0.244640   -2.616019   2.727949
C   -0.202604   -2.251778   4.146913
C   -1.591717   -2.789147   4.483980
N   -1.976786   -2.425260   5.854927
H    2.326733   -2.243119   3.234891
H    2.084314   -2.852053   1.601475
H    0.188870   -3.709750   2.608579
H   -0.473111   -2.204574   1.999877
H   -0.200601   -1.161690   4.278355
H    0.525337   -2.662132   4.870319
H   -1.615911   -3.881272   4.288815
H   -2.328610   -2.335495   3.802438
H   -2.924390   -2.744579   6.056722
H   -1.367301   -2.893840   6.527346
O    1.071574   -1.549054  -0.401215
H    1.880664    0.293177   3.541430
