 24
Energy: -13526.65829615.7 eV PBE+vdW (tier 2 basis)
N    3.133906   -2.349424   3.114800
C    1.726705   -1.948162   2.973812
C    1.344266   -1.712947   1.511948
O    1.963003   -0.609690   0.987006
H    3.322697   -3.192434   2.571056
H    1.694409   -0.578668   0.048751
H    1.106707   -2.795595   3.298587
C    1.430126   -0.734080   3.860275
C   -0.035619   -0.296939   3.846146
C   -0.301841    0.918336   4.737533
C   -1.776679    1.321297   4.813949
N   -2.581354    0.273137   5.457823
H    2.076963    0.102374   3.547805
H    1.738734   -1.005129   4.881409
H   -0.680224   -1.127413   4.170350
H   -0.345864   -0.054066   2.815555
H    0.279626    1.781939   4.375571
H    0.066288    0.715074   5.758903
H   -2.168052    1.456633   3.793268
H   -1.851667    2.307617   5.312319
H   -3.575891    0.483435   5.381152
H   -2.370527    0.227797   6.455839
O    0.620680   -2.425014   0.846657
H    3.747609   -1.617078   2.753484
