 24
Energy: -13526.49631215.7 eV PBE+vdW (tier 2 basis)
N    0.174811    0.318165   0.803924
C    0.281500    0.391313   2.259417
C    1.745918    0.387479   2.745191
O    2.028494    1.147345   3.847595
H    0.712017   -0.490503   0.480226
H    1.212405    1.577183   4.158034
H   -0.200447    1.333116   2.577629
C   -0.489092   -0.785893   2.888759
C   -0.626477   -0.740768   4.412945
C   -1.582856   -1.801942   4.975406
C   -1.137233   -3.252803   4.760331
N    0.185880   -3.492441   5.347892
H    0.013627   -1.716457   2.581710
H   -1.482444   -0.788022   2.414574
H   -1.002466    0.252248   4.715761
H    0.357308   -0.873134   4.886022
H   -2.584482   -1.676968   4.532723
H   -1.706821   -1.627930   6.057498
H   -1.062397   -3.463634   3.682872
H   -1.930648   -3.920472   5.149685
H    0.537669   -4.413504   5.090329
H    0.136487   -3.471915   6.367338
O    2.626229   -0.241809   2.208532
H    0.627018    1.130345   0.380611
