 24
Energy: -13526.74973915.7 eV PBE+vdW (tier 2 basis)
N   -0.313978    0.841864   1.276081
C    0.755984   -0.119407   1.614406
C    1.785049   -0.163196   0.457861
O    1.578602    0.788198  -0.471873
H   -1.150679    0.358580   0.946703
H    0.761799    1.258840  -0.137230
H    1.316882    0.294984   2.467160
C    0.275160   -1.533709   1.966822
C   -0.603513   -1.624737   3.219974
C    0.092009   -1.212004   4.519963
C   -0.781529   -1.424743   5.755550
N   -0.063276   -1.040250   6.976036
H    1.165861   -2.167902   2.076822
H   -0.276526   -1.935716   1.100004
H   -0.950206   -2.666148   3.314441
H   -1.518941   -1.022662   3.085268
H    0.382599   -0.147408   4.476167
H    1.028572   -1.776714   4.647274
H   -1.029406   -2.494350   5.840489
H   -1.744458   -0.891759   5.613130
H    0.099376   -0.032363   6.993511
H   -0.617857   -1.257490   7.803821
O    2.697501   -0.957526   0.408066
H   -0.587022    1.406615   2.077552
