 24
Energy: -13526.58970615.7 eV PBE+vdW (tier 2 basis)
N    0.873451   -0.664710   2.279598
C    1.742290   -0.444388   1.126444
C    1.119602    0.637687   0.254434
O    0.160344    1.316195   0.559391
H    0.389338    0.200367   2.521195
H    1.412173   -0.974352   3.085710
H    2.730809   -0.018623   1.404881
C    2.035331   -1.743057   0.341034
C    0.835753   -2.404681  -0.356753
C   -0.053903   -3.269572   0.541704
C   -1.217704   -3.902477  -0.216217
N   -2.007557   -4.767040   0.672128
H    2.494801   -2.455406   1.044979
H    2.808270   -1.507178  -0.403545
H    1.224804   -3.029887  -1.177016
H    0.221584   -1.630154  -0.847037
H   -0.436477   -2.654730   1.369564
H    0.545541   -4.072909   0.999831
H   -0.828170   -4.533260  -1.031979
H   -1.811163   -3.098506  -0.698198
H   -2.426625   -4.208997   1.417970
H   -2.782266   -5.191730   0.161958
O    1.791363    0.804148  -0.917627
H    1.336410    1.533260  -1.381453
