 24
Energy: -13526.37313315.7 eV PBE+vdW (tier 2 basis)
N   -0.760253   -1.254068   1.088933
C   -0.160640   -0.133359   1.830513
C    0.139383    1.039886   0.877530
O   -0.675758    1.885566   0.592467
H   -1.591127   -0.933894   0.589254
H   -0.111660   -1.613467   0.385426
H   -0.937387    0.250848   2.507445
C    1.039557   -0.579141   2.676753
C    0.712497   -1.575359   3.804502
C    0.709085   -3.050752   3.393510
C    0.433111   -3.988123   4.567708
N    0.454314   -5.390268   4.131934
H    1.819686   -1.030897   2.031643
H    1.488386    0.325854   3.114364
H   -0.265790   -1.310654   4.238490
H    1.448316   -1.433335   4.611986
H    1.692483   -3.303925   2.957300
H   -0.039321   -3.225954   2.609898
H   -0.572974   -3.780767   4.965105
H    1.145798   -3.763504   5.388329
H    0.198320   -6.008685   4.901541
H    1.397933   -5.659115   3.848852
O    1.366380    1.047553   0.266650
H    1.919660    0.342560   0.649866
