 24
Energy: -13526.70821415.7 eV PBE+vdW (tier 2 basis)
N    0.110381    1.802878   2.192667
C    0.468555    0.372319   2.265472
C    0.358523   -0.217569   0.843695
O   -0.475614    0.478908   0.045811
H   -0.702128    1.282437   0.593391
H    0.918439    2.381476   1.963688
H    1.506608    0.200586   2.591739
C   -0.478872   -0.324210   3.267585
C   -0.300064   -1.841629   3.430182
C   -1.175664   -2.686244   2.494598
C   -0.749511   -4.153754   2.414172
N    0.649509   -4.267245   1.984861
H   -1.519291   -0.088251   2.986218
H   -0.301806    0.170367   4.236641
H   -0.533471   -2.112934   4.471165
H    0.753130   -2.115024   3.275468
H   -1.155551   -2.269510   1.476325
H   -2.226464   -2.638431   2.822450
H   -1.465915   -4.682066   1.754464
H   -0.836700   -4.621471   3.409662
H    0.805370   -3.731440   1.128547
H    0.891443   -5.237004   1.786979
O    0.942139   -1.214032   0.475608
H   -0.263044    2.134844   3.081611
