 24
Energy: -13526.64363015.7 eV PBE+vdW (tier 2 basis)
N    0.674744    0.247689   0.839997
C    0.214302    0.316454   2.240409
C    1.448833    0.210365   3.157905
O    2.489359   -0.423304   2.575652
H   -0.057189   -0.112504   0.227911
H    2.193404   -0.537664   1.630472
H   -0.276215    1.270779   2.490978
C   -0.786308   -0.832725   2.485645
C   -1.310689   -0.991552   3.926278
C   -0.540125   -1.983094   4.810284
C   -0.748592   -3.448819   4.431729
N   -0.014012   -4.322912   5.355177
H   -0.322776   -1.770944   2.140516
H   -1.634509   -0.644365   1.807784
H   -2.362804   -1.313523   3.875913
H   -1.319810   -0.008038   4.417659
H   -0.853992   -1.853371   5.856348
H    0.535572   -1.748549   4.793313
H   -0.477200   -3.605361   3.367512
H   -1.819175   -3.696529   4.517698
H   -0.136249   -5.302480   5.098330
H    0.987616   -4.131152   5.297927
O    1.482120    0.628481   4.293513
H    0.944695    1.166117   0.488049
