 24
Energy: -13526.75397215.7 eV PBE+vdW (tier 2 basis)
N    2.223894    1.447982   2.514360
C    1.534778    0.146235   2.407417
C    1.704763   -0.384392   0.969165
O    2.039694    0.576291   0.084477
H    1.749803    2.063551   3.174544
H    2.180164    1.379730   0.661461
H    1.967957   -0.614789   3.074699
C    0.041288    0.337226   2.744376
C   -0.856523   -0.902110   2.658755
C   -0.444495   -2.087799   3.544011
C   -0.267164   -1.775996   5.032108
N   -1.469787   -1.149002   5.599701
H   -0.360312    1.115277   2.075119
H   -0.011330    0.749906   3.765608
H   -0.907779   -1.252131   1.618482
H   -1.869913   -0.578458   2.935298
H    0.487032   -2.533003   3.163592
H   -1.208683   -2.875770   3.435765
H    0.566048   -1.068200   5.173167
H    0.035908   -2.708628   5.546691
H   -2.264317   -1.787328   5.530550
H   -1.340439   -0.958755   6.593268
O    1.529058   -1.541658   0.655835
H    3.187357    1.340823   2.829551
