 24
Energy: -13526.65901015.7 eV PBE+vdW (tier 2 basis)
N   -0.140045   -1.756291   0.409227
C   -0.842411   -1.000502   1.463577
C   -0.011281    0.256756   1.824558
O   -0.231541    0.953045   2.790366
H   -0.791786   -2.180943  -0.247765
H    0.422294   -2.508946   0.807799
H   -1.742551   -0.571374   0.992617
C   -1.323076   -1.794885   2.692141
C   -0.326688   -2.728269   3.400229
C    0.858537   -2.068919   4.131893
C    2.173337   -1.979916   3.333980
N    2.840937   -3.246779   3.009907
H   -1.708376   -1.061519   3.415289
H   -2.184472   -2.401056   2.371023
H    0.044474   -3.497484   2.696724
H   -0.918417   -3.302930   4.127457
H    1.071532   -2.641681   5.048966
H    0.571222   -1.059303   4.462505
H    2.888898   -1.371071   3.905486
H    2.026980   -1.433060   2.391140
H    2.229964   -3.860627   2.469036
H    3.065266   -3.756677   3.866118
O    0.945110    0.534598   0.918044
H    0.885094   -0.230165   0.277681
