 24
Energy: -13526.68629015.7 eV PBE+vdW (tier 2 basis)
N   -0.402764    1.007416   2.158493
C    0.428978   -0.074390   1.628364
C    1.597166    0.448947   0.788880
O    1.507331    1.285398  -0.086923
H   -0.695345    1.615245   1.389831
H    0.138802    1.592566   2.796105
H    0.844514   -0.634905   2.477945
C   -0.435625   -1.020909   0.777724
C    0.302078   -2.234763   0.209216
C   -0.630249   -3.191315  -0.540519
C    0.087465   -4.364903  -1.208835
N    0.709479   -5.257169  -0.219516
H   -0.879020   -0.435872  -0.045093
H   -1.267968   -1.344597   1.419811
H    0.801050   -2.769320   1.034088
H    1.101743   -1.903372  -0.475204
H   -1.173650   -2.629710  -1.318125
H   -1.385965   -3.589853   0.154773
H    0.801721   -3.967998  -1.959582
H   -0.651512   -4.959539  -1.765418
H    1.038599   -6.110681  -0.669907
H    1.532895   -4.819675   0.194820
O    2.784579   -0.128245   1.133294
H    3.455697    0.259645   0.536776
