 24
Energy: -13526.74609515.7 eV PBE+vdW (tier 2 basis)
N    0.012888   -0.639387  -0.713235
C    0.133371   -0.466752   0.748005
C    1.617924   -0.212164   1.089664
O    2.461128   -0.608129   0.115080
H   -0.752189   -1.270183  -0.950148
H    1.846910   -0.882933  -0.623390
H   -0.431583    0.400866   1.124945
C   -0.371330   -1.736222   1.461067
C   -0.396291   -1.663303   2.988613
C   -0.970671   -2.934068   3.621816
C   -0.931895   -2.931823   5.151225
N   -1.782118   -1.872516   5.714697
H    0.241591   -2.592871   1.134040
H   -1.395463   -1.927365   1.095527
H   -0.998319   -0.791233   3.290020
H    0.619985   -1.481236   3.368581
H   -0.401619   -3.808161   3.263762
H   -2.014391   -3.074570   3.296933
H    0.124752   -2.874420   5.482503
H   -1.322482   -3.893426   5.514742
H   -1.342944   -0.958898   5.597332
H   -1.890499   -2.005247   6.719822
O    1.993611    0.266039   2.137200
H   -0.163941    0.248010  -1.182951
