 24
Energy: -13526.64731715.7 eV PBE+vdW (tier 2 basis)
N    0.813645   -0.802417   0.029420
C    0.191580   -0.215268   1.213423
C    1.286758    0.329984   2.118270
O    2.463653    0.400149   1.826703
H    1.739266   -0.394126  -0.107241
H    0.258132   -0.632751  -0.805377
H   -0.435868    0.670705   0.976402
C   -0.711204   -1.232057   1.942824
C   -1.890119   -1.689585   1.083732
C   -2.786425   -2.704830   1.796963
C   -3.965797   -3.199829   0.956233
N   -3.505528   -3.909975  -0.245440
H   -1.078098   -0.782254   2.876965
H   -0.089007   -2.099310   2.215117
H   -1.524607   -2.134737   0.148056
H   -2.496830   -0.811281   0.798878
H   -3.183020   -2.267905   2.728073
H   -2.179127   -3.573155   2.108654
H   -4.559305   -2.334634   0.619768
H   -4.631516   -3.804905   1.602894
H   -3.039841   -4.780649   0.015618
H   -4.296276   -4.170376  -0.834090
O    0.803387    0.773539   3.310931
H    1.577247    1.119779   3.795776
