 24
Energy: -13526.42259915.7 eV PBE+vdW (tier 2 basis)
N   -1.128149   -0.974542   0.215240
C   -0.601135   -0.565369   1.528074
C    0.175907    0.759036   1.415589
O   -0.314539    1.845833   1.614234
H   -1.677784   -0.217466  -0.194013
H   -0.368411   -1.173739  -0.438575
H   -1.468051   -0.329236   2.161825
C    0.180523   -1.713648   2.169262
C    0.657794   -1.411726   3.594922
C    1.484617   -2.521666   4.262333
C    0.703306   -3.733358   4.780570
N    0.120344   -4.536478   3.694940
H   -0.458510   -2.605557   2.164291
H    1.050540   -1.987135   1.536084
H   -0.220884   -1.191543   4.223893
H    1.259199   -0.488159   3.594226
H    2.017728   -2.088168   5.122504
H    2.274339   -2.866031   3.570666
H   -0.128536   -3.377266   5.408737
H    1.370509   -4.314805   5.447109
H   -0.462431   -5.281459   4.076620
H    0.859524   -4.996234   3.160655
O    1.473265    0.671782   0.976038
H    1.729837   -0.268070   0.933777
