 24
Energy: -13526.68896815.7 eV PBE+vdW (tier 2 basis)
N    0.044145    0.897072   3.542861
C    0.764481   -0.298264   3.063818
C    2.029305    0.145473   2.293794
O    2.043255    1.461128   2.005935
H   -0.966052    0.774070   3.489355
H    1.206197    1.796864   2.437903
H    1.121605   -0.931396   3.891154
C   -0.100396   -1.145938   2.115830
C   -1.361549   -1.783409   2.719324
C   -1.131356   -2.764582   3.882371
C   -1.214207   -2.135630   5.275788
N   -0.980148   -3.146861   6.310366
H    0.550208   -1.934132   1.712286
H   -0.390627   -0.515890   1.258554
H   -1.867518   -2.309901   1.897170
H   -2.080471   -1.006194   3.035326
H   -0.158661   -3.269298   3.775225
H   -1.890440   -3.562065   3.830974
H   -2.189302   -1.612452   5.366673
H   -0.438421   -1.364052   5.393749
H   -1.001768   -2.728567   7.240060
H   -1.716482   -3.854106   6.291383
O    2.904846   -0.621709   1.961519
H    0.271358    1.111839   4.512582
