 24
Energy: -13526.64858515.7 eV PBE+vdW (tier 2 basis)
N    1.694629    1.520254   3.069271
C    2.162303    0.144759   3.207137
C    1.878855   -0.734501   1.985339
O    2.659566   -1.852488   1.979604
H    0.703621    1.532945   2.824673
H    2.384428   -2.370502   1.197947
H    3.256575    0.183235   3.317928
C    1.607915   -0.537507   4.487933
C    0.217746   -1.183546   4.404409
C   -0.957301   -0.245567   4.107102
C   -2.317934   -0.945650   4.139702
N   -2.392013   -1.996248   3.114792
H    1.628849    0.236737   5.269566
H    2.323380   -1.316068   4.788239
H    0.028486   -1.679152   5.371073
H    0.220427   -1.995374   3.662172
H   -0.839583    0.208259   3.108521
H   -0.969711    0.586951   4.828626
H   -3.111622   -0.177937   4.049739
H   -2.457079   -1.428404   5.120611
H   -2.310388   -1.585016   2.183181
H   -3.294683   -2.469025   3.147809
O    1.059478   -0.505342   1.119512
H    2.175057    1.972186   2.290111
