 24
Energy: -13526.62197815.7 eV PBE+vdW (tier 2 basis)
N    1.289388    0.278358   0.862493
C    0.423198    0.318791   2.034596
C    1.062290    0.687792   3.381170
O    0.438068    1.015243   4.369690
H    1.983174   -0.464297   0.950150
H    1.810607    1.149242   0.766639
H   -0.327473    1.107582   1.868907
C   -0.349920   -1.008736   2.196052
C    0.512509   -2.210916   2.596281
C   -0.275636   -3.526718   2.659890
C   -0.641686   -4.117322   1.293412
N    0.565618   -4.471663   0.534106
H   -0.845294   -1.191016   1.231644
H   -1.137923   -0.857622   2.948265
H    0.965411   -2.019795   3.581646
H    1.342521   -2.350359   1.887221
H   -1.199933   -3.383754   3.243194
H    0.316160   -4.274989   3.213213
H   -1.196286   -3.374826   0.699982
H   -1.334146   -4.966857   1.451006
H    1.018936   -5.287810   0.947450
H    0.328739   -4.724265  -0.424514
O    2.425059    0.607425   3.373327
H    2.703056    0.847206   4.279023
