 24
Energy: -13526.44313115.7 eV PBE+vdW (tier 2 basis)
N   -1.598888   -0.710417   0.332332
C   -0.800954   -0.402296   1.530446
C    0.145875    0.783824   1.268929
O   -0.138844    1.931897   1.516200
H   -2.104440    0.121592   0.024433
H   -0.999025   -0.994170  -0.444959
H   -1.500391   -0.037994   2.296401
C   -0.114496   -1.667069   2.051360
C    0.623804   -1.470719   3.380667
C    1.413238   -2.698028   3.850665
C    0.554303   -3.917134   4.189850
N    1.397537   -5.017481   4.670524
H   -0.897353   -2.433291   2.141676
H    0.585539   -2.068854   1.290279
H   -0.107750   -1.182044   4.153474
H    1.318779   -0.620459   3.296763
H    1.993009   -2.418329   4.745814
H    2.154976   -2.990441   3.090074
H    0.036143   -4.275700   3.287615
H   -0.237100   -3.608625   4.904118
H    0.838117   -5.853113   4.839883
H    1.829154   -4.771837   5.562794
O    1.329386    0.499819   0.636968
H    1.436382   -0.467130   0.573694
