 24
Energy: -13526.77199515.7 eV PBE+vdW (tier 2 basis)
N   -0.570835    0.280506   1.006647
C    0.506532   -0.413287   1.744545
C    1.769360   -0.477323   0.848734
O    1.662051    0.261660  -0.271052
H   -1.235535   -0.389955   0.618174
H    0.735573    0.635572  -0.205441
H    0.794577    0.229135   2.593141
C    0.146292   -1.800843   2.285743
C   -0.918592   -1.776103   3.384064
C   -1.277904   -3.164619   3.930128
C   -0.162338   -3.849358   4.728540
N    0.215590   -3.048328   5.900363
H    1.077241   -2.252139   2.653847
H   -0.187098   -2.433283   1.442978
H   -1.837895   -1.301513   3.003862
H   -0.562093   -1.151750   4.218251
H   -1.574085   -3.830051   3.102477
H   -2.167137   -3.075284   4.576566
H    0.734721   -3.958080   4.101072
H   -0.491061   -4.877114   4.976941
H    1.055870   -3.423299   6.338597
H   -0.520633   -3.078926   6.607002
O    2.761519   -1.108563   1.138408
H   -1.096116    0.912943   1.606415
