 24
Energy: -13526.55128015.7 eV PBE+vdW (tier 2 basis)
N    0.005372    0.949639   3.555528
C    0.862375    0.276280   2.583681
C    1.140906    1.119325   1.329005
O    2.297104    0.822319   0.658635
H    0.424218    1.841952   3.822414
H    2.790000    0.143253   1.152794
H    1.820446    0.068042   3.092776
C    0.230120   -1.063346   2.145281
C    0.029022   -2.086272   3.270691
C    1.329604   -2.649030   3.893455
C    1.580071   -2.241284   5.346940
N    1.835550   -0.801010   5.479080
H    0.850856   -1.511872   1.353021
H   -0.740304   -0.836374   1.673943
H   -0.563231   -2.913297   2.853787
H   -0.599269   -1.635960   4.053726
H    2.202257   -2.345117   3.291531
H    1.303718   -3.747884   3.855154
H    2.471157   -2.773167   5.713287
H    0.727375   -2.597023   5.961536
H    2.080797   -0.574567   6.442626
H    0.989817   -0.265464   5.255922
O    0.407063    1.982431   0.909672
H   -0.884025    1.188427   3.110517
