 24
Energy: -13526.72157915.7 eV PBE+vdW (tier 2 basis)
N   -1.374428   -1.792436   1.221448
C   -1.034022   -0.526767   1.910207
C    0.017070    0.237044   1.071907
O    0.347519    1.378999   1.302588
H   -2.262134   -1.717921   0.727624
H   -1.451623   -2.569485   1.874974
H   -1.911202    0.135460   1.969629
C   -0.507082   -0.724985   3.346894
C    0.889707   -1.338382   3.516051
C    1.061502   -2.803743   3.099920
C    2.394373   -3.402258   3.563819
N    2.461303   -3.478976   5.029857
H   -0.498856    0.270408   3.811553
H   -1.254017   -1.317808   3.902180
H    1.159557   -1.260646   4.579256
H    1.624329   -0.721537   2.973335
H    0.999691   -2.912817   2.006850
H    0.239994   -3.413396   3.520963
H    3.214752   -2.749298   3.227925
H    2.543877   -4.377097   3.061181
H    3.410750   -3.683370   5.338724
H    1.873231   -4.238595   5.374914
O    0.542844   -0.503780   0.077605
H    0.029868   -1.361618   0.145594
