 24
Energy: -13526.75885015.7 eV PBE+vdW (tier 2 basis)
N    0.750212   -1.285720   0.804353
C   -0.018373   -0.264805   1.546904
C   -0.151932    1.006616   0.670870
O   -0.636046    2.041718   1.072857
H    0.341540   -2.213252   0.893340
H    1.709932   -1.341782   1.147193
H   -1.050086   -0.637685   1.658664
C    0.529895    0.083146   2.935326
C    0.371758   -1.043943   3.958487
C    0.979891   -0.743338   5.336129
C    0.399485    0.479251   6.054781
N   -1.043246    0.330939   6.295718
H    0.014134    0.994700   3.267231
H    1.594507    0.360900   2.833928
H    0.836137   -1.966314   3.572806
H   -0.699298   -1.281074   4.074384
H    2.067725   -0.597078   5.230066
H    0.837112   -1.623456   5.980983
H    0.662560    1.399938   5.498007
H    0.889697    0.564408   7.035310
H   -1.365679    1.045053   6.948174
H   -1.571178    0.481489   5.435160
O    0.297927    0.835309  -0.584639
H    0.625325   -0.111019  -0.579030
