 24
Energy: -13526.68917415.7 eV PBE+vdW (tier 2 basis)
N    3.115654    0.024847   1.712911
C    2.017959   -0.956933   1.621472
C    0.704221   -0.190181   1.365937
O    0.749280    1.093024   1.778673
H    3.506350    0.239188   0.795606
H    1.703129    1.220085   2.041144
H    2.132460   -1.657615   0.778878
C    1.970777   -1.771170   2.932472
C    0.792620   -2.748521   3.088768
C   -0.408434   -2.167399   3.842080
C   -1.612868   -3.105248   3.845665
N   -2.715757   -2.527388   4.625515
H    1.984796   -1.065093   3.779419
H    2.920967   -2.327234   2.976919
H    1.148839   -3.640458   3.626685
H    0.471092   -3.099069   2.095782
H   -0.711959   -1.211747   3.387453
H   -0.127811   -1.944948   4.883838
H   -1.333974   -4.059951   4.320509
H   -1.881224   -3.338823   2.796085
H   -3.054959   -1.678475   4.169502
H   -3.506814   -3.170920   4.653580
O   -0.279155   -0.688954   0.864166
H    3.875810   -0.323019   2.296943
