 24
Energy: -13526.72724315.7 eV PBE+vdW (tier 2 basis)
N    2.426595   -2.479002   3.456409
C    1.308482   -1.845844   2.728024
C    1.826199   -1.373155   1.353735
O    3.169858   -1.265588   1.302379
H    2.325736   -2.349822   4.462721
H    3.461263   -1.627845   2.187435
H    0.476466   -2.542029   2.534332
C    0.777541   -0.648947   3.541813
C   -0.502742   -0.017171   2.987470
C   -1.008234    1.202915   3.772027
C   -1.675945    0.923781   5.122094
N   -0.723332    0.444734   6.139177
H    1.571607    0.114284   3.607713
H    0.590444   -0.991660   4.570757
H   -1.299029   -0.780147   2.957593
H   -0.335100    0.276985   1.942033
H   -1.747492    1.729109   3.148672
H   -0.182274    1.922182   3.916280
H   -2.436786    0.138067   4.989086
H   -2.220388    1.836383   5.434517
H   -0.048508    1.180834   6.355353
H   -1.212163    0.243233   7.011902
O    1.104269   -1.090652   0.422194
H    2.471534   -3.481646   3.277285
