 24
Energy: -13526.74715515.7 eV PBE+vdW (tier 2 basis)
N    0.081820   -1.057896   0.021931
C   -0.177219   -0.375705   1.305383
C    0.089977    1.133171   1.125288
O   -0.316759    1.980752   1.889628
H   -0.763716   -1.131616  -0.542658
H    0.437370   -2.002282   0.167543
H   -1.223650   -0.473742   1.631433
C    0.752505   -0.963882   2.388071
C    0.655076   -0.349570   3.788814
C   -0.715990   -0.482108   4.455847
C   -0.746993    0.005924   5.915514
N    0.061964   -0.727138   6.893919
H    1.789756   -0.882906   2.023876
H    0.524214   -2.042246   2.451811
H    0.934273    0.713839   3.749181
H    1.416332   -0.849400   4.409642
H   -1.049056   -1.535482   4.423189
H   -1.458086    0.102712   3.889935
H   -1.788756   -0.010567   6.269994
H   -0.433197    1.060951   5.949921
H   -0.173919   -1.720572   6.886617
H    1.056006   -0.659542   6.676291
O    0.849986    1.413806   0.048244
H    0.951062    0.526500  -0.399414
