 24
Energy: -13526.58733315.7 eV PBE+vdW (tier 2 basis)
N    0.434022    0.688156  -0.126397
C    0.309290    0.148242   1.227664
C    1.465938    0.610222   2.102029
O    1.385264    0.868889   3.283964
H   -0.367952    0.411466  -0.691794
H    1.270843    0.323451  -0.583402
H   -0.588175    0.591830   1.683822
C    0.202377   -1.396494   1.361641
C   -1.066577   -1.968683   0.724529
C   -1.153598   -3.499897   0.758167
C   -1.252894   -4.100880   2.161003
N   -1.398378   -5.559369   2.083064
H    0.233464   -1.647908   2.432689
H    1.093778   -1.853373   0.900002
H   -1.125000   -1.646973  -0.327732
H   -1.949477   -1.537012   1.226593
H   -0.285287   -3.942612   0.245206
H   -2.039798   -3.812828   0.180659
H   -2.073452   -3.594187   2.710208
H   -0.329771   -3.896110   2.723394
H   -1.396585   -5.971449   3.015881
H   -2.294339   -5.805516   1.659419
O    2.647658    0.638444   1.422117
H    3.323176    0.909383   2.073390
