 24
Energy: -13526.60124615.7 eV PBE+vdW (tier 2 basis)
N    1.567890   -0.227388   1.157196
C    0.848860    0.157280   2.365774
C    1.609521    0.068090   3.700696
O    1.124173    0.277829   4.794052
H    2.436579    0.298992   1.073296
H    1.834560   -1.211341   1.192921
H    0.634792    1.237750   2.283713
C   -0.526702   -0.539090   2.450902
C   -0.513720   -2.072920   2.344802
C    0.207542   -2.838864   3.462859
C   -0.481756   -2.764229   4.825881
N    0.328256   -3.447142   5.846994
H   -1.129341   -0.142139   1.622274
H   -1.011219   -0.217408   3.382336
H   -0.085380   -2.361820   1.372323
H   -1.562532   -2.409493   2.302786
H    1.246333   -2.480893   3.566486
H    0.298310   -3.898481   3.180553
H   -1.449790   -3.285825   4.762755
H   -0.699811   -1.711170   5.078925
H   -0.189774   -3.503957   6.724323
H    1.158131   -2.886858   6.051078
O    2.936426   -0.214291   3.539748
H    3.317059   -0.192509   4.439272
