 24
Energy: -13526.55839315.7 eV PBE+vdW (tier 2 basis)
N    0.350216   -1.187282  -0.176109
C   -0.340582   -0.462300   0.898247
C    0.608562    0.595888   1.443980
O    0.361167    1.777135   1.559069
H    1.131672   -1.721688   0.206928
H   -0.289877   -1.857954  -0.603284
H   -1.162810    0.106625   0.441479
C   -0.928242   -1.362759   2.015465
C   -1.782931   -0.665641   3.087308
C   -1.000622   -0.032501   4.242688
C   -1.911497    0.580031   5.304932
N   -1.118197    1.156105   6.398881
H   -0.107082   -1.925086   2.488768
H   -1.549253   -2.106597   1.491406
H   -2.478303   -1.410354   3.506839
H   -2.417887    0.097530   2.606355
H   -0.330017    0.754870   3.865978
H   -0.358193   -0.787859   4.721734
H   -2.549544   -0.207805   5.736224
H   -2.593879    1.305615   4.817462
H   -0.581125    1.955394   6.058379
H   -1.729168    1.514260   7.133021
O    1.800000    0.052809   1.826238
H    2.341961    0.795134   2.155999
