 24
Energy: -13526.64376015.7 eV PBE+vdW (tier 2 basis)
N    0.454714    0.355156  -0.064864
C    0.034455    0.127912   1.319668
C    1.241200   -0.414175   2.071798
O    1.992013   -1.267025   1.644453
H    0.950889   -0.473185  -0.401079
H   -0.363803    0.482170  -0.660748
H   -0.239234    1.093867   1.770509
C   -1.157436   -0.851100   1.483312
C   -1.665989   -1.044476   2.913299
C   -2.925838   -1.911652   2.980503
C   -3.406186   -2.200354   4.405127
N   -2.416806   -2.992726   5.149439
H   -0.864355   -1.820802   1.048630
H   -1.971772   -0.457984   0.850965
H   -1.878026   -0.060968   3.366002
H   -0.889421   -1.504783   3.540399
H   -2.740787   -2.870945   2.465168
H   -3.746094   -1.427117   2.425862
H   -4.406610   -2.673026   4.354465
H   -3.537362   -1.248005   4.942929
H   -2.687337   -3.078553   6.128616
H   -2.371778   -3.942520   4.777078
O    1.376017    0.138406   3.305710
H    2.138726   -0.311383   3.720505
