 24
Energy: -13526.63316415.7 eV PBE+vdW (tier 2 basis)
N    2.312462   -2.743295   2.567656
C    1.415533   -1.600605   2.375991
C    2.195341   -0.551578   1.596726
O    1.462260    0.011427   0.599141
H    3.202780   -2.408788   2.942654
H    2.039691    0.687633   0.192149
H    0.563657   -1.920814   1.757859
C    0.869230   -0.976997   3.686252
C   -0.164228    0.136325   3.499434
C   -0.679831    0.733077   4.816860
C   -1.386580   -0.248919   5.756923
N   -2.498511   -0.931493   5.081544
H    1.725926   -0.615597   4.279281
H    0.416428   -1.807187   4.250555
H   -1.013816   -0.256430   2.921364
H    0.268247    0.952377   2.900775
H   -1.373618    1.557835   4.580915
H    0.154801    1.194223   5.369711
H   -1.687401    0.302905   6.668990
H   -0.678628   -1.023809   6.089041
H   -3.224586   -0.259752   4.826904
H   -2.937337   -1.607343   5.706290
O    3.337049   -0.219246   1.841225
H    1.914132   -3.383951   3.254760
