 24
Energy: -13526.75892215.7 eV PBE+vdW (tier 2 basis)
N    0.535767    1.046677   1.705903
C    0.662176   -0.418667   1.843651
C    1.297367   -1.001315   0.557928
O    1.727782   -0.056296  -0.297195
H   -0.427385    1.314194   1.499633
H    1.481062    0.796109   0.165652
H    1.405424   -0.617124   2.632121
C   -0.640922   -1.152956   2.185157
C   -1.216889   -0.831445   3.570460
C   -0.315648   -1.182841   4.765170
C    0.134298   -2.645523   4.836605
N   -1.012722   -3.556177   4.962994
H   -0.445963   -2.228872   2.076222
H   -1.388638   -0.908164   1.411614
H   -2.177692   -1.358242   3.676212
H   -1.471940    0.239512   3.629594
H   -0.859602   -0.940658   5.690417
H    0.585116   -0.546160   4.761202
H    0.753482   -2.770724   5.736591
H    0.791003   -2.879174   3.975345
H   -1.506191   -3.642344   4.073661
H   -0.690915   -4.495503   5.195154
O    1.415901   -2.189839   0.355633
H    0.810129    1.535531   2.555278
