 24
Energy: -13526.57564015.7 eV PBE+vdW (tier 2 basis)
N    0.218850   -0.617250  -0.358281
C    0.116230   -0.106774   1.008041
C    1.515027    0.204069   1.520645
O    2.522707    0.205125   0.842292
H    0.979426   -0.144871  -0.848728
H   -0.646092   -0.444456  -0.867281
H   -0.394970    0.879460   1.053524
C   -0.703377   -1.047456   1.925747
C   -0.044419   -2.304157   2.518442
C    0.395688   -3.428887   1.568112
C    1.775527   -3.251683   0.921241
N    2.823757   -3.018327   1.926714
H   -1.596877   -1.335226   1.347064
H   -1.071042   -0.440954   2.766614
H   -0.781419   -2.722065   3.221736
H    0.820769   -2.014987   3.132842
H   -0.345468   -3.569268   0.765224
H    0.403573   -4.370735   2.143002
H    1.749498   -2.384499   0.251687
H    1.971891   -4.133635   0.281159
H    3.108654   -3.891834   2.370350
H    3.652825   -2.620273   1.488590
O    1.512029    0.547233   2.834342
H    2.445080    0.718275   3.066038
