 24
Energy: -13526.71582115.7 eV PBE+vdW (tier 2 basis)
N    0.043779    1.234653   0.578901
C    0.045636    0.126696   1.556856
C    1.220695   -0.821183   1.217238
O    1.582321   -1.731850   1.935758
H    0.469555    2.077930   0.960045
H   -0.903423    1.469533   0.285683
H    0.202471    0.488085   2.585559
C   -1.270609   -0.674425   1.493243
C   -1.516038   -1.578552   2.714252
C   -2.471395   -2.749268   2.420414
C   -1.767943   -4.026419   1.942617
N   -0.950000   -3.814323   0.736751
H   -1.280553   -1.279480   0.574515
H   -2.102303    0.045244   1.407466
H   -1.915004   -0.960366   3.533007
H   -0.555408   -1.974907   3.075354
H   -3.219497   -2.442057   1.671492
H   -3.031421   -3.004423   3.333272
H   -2.535797   -4.775699   1.699917
H   -1.183104   -4.438888   2.788596
H   -0.035163   -3.435267   0.990499
H   -0.762745   -4.707325   0.282619
O    1.772431   -0.570338   0.019652
H    1.264511    0.236627  -0.294705
