 24
Energy: -13526.40804715.7 eV PBE+vdW (tier 2 basis)
N    2.473843   -2.437271   3.663234
C    1.413929   -1.816347   2.876014
C    1.761861   -1.466135   1.414596
O    3.083410   -1.248740   1.159329
H    2.934208   -3.231967   3.227620
H    3.569380   -1.457557   1.983678
H    0.575506   -2.526673   2.806489
C    0.921244   -0.554251   3.616942
C   -0.390171    0.045250   3.098166
C   -0.857738    1.292684   3.871015
C   -1.786917    1.030905   5.070281
N   -1.276750    0.245545   6.198379
H    1.713648    0.214130   3.576176
H    0.823698   -0.841184   4.674102
H   -1.180125   -0.724457   3.129218
H   -0.270686    0.294915   2.035750
H   -1.402981    1.955242   3.179880
H    0.018489    1.873545   4.208041
H   -2.697570    0.525418   4.711007
H   -2.120645    2.001910   5.468993
H   -1.082718   -0.716464   5.922139
H   -0.401885    0.636625   6.550084
O    0.936436   -1.357838   0.538257
H    3.146538   -1.790284   4.068611
