 24
Energy: -13526.47678615.7 eV PBE+vdW (tier 2 basis)
N   -0.045055   -0.312995  -0.268303
C   -0.099705   -0.130516   1.178363
C    1.238458   -0.104523   1.933590
O    1.383281    0.315581   3.062912
H    0.515233    0.422726  -0.698244
H    0.414805   -1.192162  -0.506351
H   -0.534751    0.862468   1.370878
C   -1.034100   -1.156302   1.860051
C   -0.618430   -2.635240   1.696644
C   -1.278244   -3.377713   0.514534
C   -2.587150   -4.090731   0.864314
N   -3.650462   -3.159965   1.274145
H   -2.037958   -1.001135   1.442195
H   -1.074866   -0.891280   2.925408
H   -0.850139   -3.177739   2.627669
H    0.477322   -2.700840   1.605104
H   -0.584301   -4.143041   0.133285
H   -1.467483   -2.675313  -0.310750
H   -2.371232   -4.871456   1.623016
H   -2.946322   -4.618219  -0.031732
H   -3.468952   -2.792504   2.209141
H   -4.541148   -3.652989   1.336368
O    2.277524   -0.618881   1.210029
H    3.055328   -0.562861   1.799153
