 24
Energy: -13526.59716115.7 eV PBE+vdW (tier 2 basis)
N   -0.522804    0.214681   0.047801
C    0.257932   -0.024056   1.260999
C    1.703531   -0.382400   0.944822
O    2.622163   -0.271927   1.729539
H   -1.502867    0.362844   0.289873
H   -0.481224   -0.587256  -0.580485
H    0.323896    0.928531   1.808460
C   -0.306892   -1.073730   2.260653
C   -0.382051   -2.506981   1.732948
C   -1.036760   -3.470201   2.725754
C   -1.100043   -4.908821   2.216502
N   -1.777947   -5.776314   3.188430
H   -1.313622   -0.730056   2.550427
H    0.308282   -1.041783   3.173212
H    0.631965   -2.865971   1.490772
H   -0.946883   -2.526981   0.785791
H   -2.059331   -3.137149   2.963552
H   -0.478076   -3.447929   3.677670
H   -0.075652   -5.243615   1.954199
H   -1.684809   -4.937129   1.283387
H   -1.866557   -6.724124   2.822142
H   -1.224369   -5.849479   4.043542
O    1.865590   -0.903431  -0.303758
H    2.815225   -1.121216  -0.376467
