 24
Energy: -13526.64789515.7 eV PBE+vdW (tier 2 basis)
N    0.394039    0.271624   0.107890
C    0.237579   -0.137712   1.516109
C    1.608767   -0.149040   2.192022
O    2.487720   -0.964238   1.995195
H    1.035404   -0.370222  -0.364066
H    0.815765    1.200222   0.051218
H   -0.386918    0.620225   2.010361
C   -0.456259   -1.503505   1.586376
C   -1.066093   -1.877888   2.942344
C   -0.074385   -2.090122   4.091843
C   -0.713666   -2.720728   5.332846
N   -1.176490   -4.087665   5.053577
H    0.260346   -2.278401   1.268304
H   -1.252307   -1.475614   0.828344
H   -1.639651   -2.807300   2.815538
H   -1.798652   -1.106279   3.236434
H    0.384288   -1.136026   4.395229
H    0.757595   -2.730743   3.752246
H   -1.594109   -2.128504   5.629541
H    0.004181   -2.658866   6.173796
H   -0.378130   -4.711591   4.927636
H   -1.711402   -4.455517   5.839562
O    1.786625    0.933695   3.007907
H    2.703884    0.869621   3.340345
