 24
Energy: -13526.71783015.7 eV PBE+vdW (tier 2 basis)
N    0.244644   -0.394094   2.481300
C    0.991278   -0.139091   1.254119
C    0.973024    1.331520   0.832553
O    0.103742    2.130180   1.114853
H   -0.661250    0.077404   2.423824
H    0.724875    0.022893   3.279032
H    2.041375   -0.425699   1.418013
C    0.434829   -0.989015   0.088943
C    0.603322   -2.492382   0.311893
C   -0.041586   -3.337988  -0.787956
C    0.102636   -4.856005  -0.579504
N   -0.562343   -5.441032   0.588507
H    0.932125   -0.686421  -0.845117
H   -0.634064   -0.744301  -0.031941
H    0.174116   -2.745456   1.292552
H    1.679435   -2.731255   0.371518
H    0.401560   -3.076467  -1.764610
H   -1.114587   -3.088630  -0.863948
H    1.172147   -5.114205  -0.513934
H   -0.279163   -5.375866  -1.471460
H   -0.202789   -5.035652   1.452983
H   -1.562864   -5.237507   0.568694
O    2.050107    1.656106   0.061835
H    1.929432    2.591966  -0.193145
