 24
Energy: -13526.44198915.7 eV PBE+vdW (tier 2 basis)
N    1.446379   -0.145743   0.890006
C    0.729517    0.003370   2.153389
C    1.504061    1.021327   2.998968
O    0.760338    1.892341   3.737354
H    2.450675   -0.123673   1.082481
H   -0.182568    1.753309   3.539796
H   -0.277835    0.409291   1.939313
C    0.554770   -1.314214   2.952756
C   -0.301640   -1.213398   4.220255
C   -0.520411   -2.548085   4.946665
C   -1.391561   -3.554671   4.194621
N   -1.636212   -4.739441   5.027882
H    1.557760   -1.694989   3.203853
H    0.107479   -2.038806   2.254261
H   -1.285297   -0.777826   3.966880
H    0.170767   -0.513731   4.926321
H   -0.991528   -2.360216   5.922754
H    0.460401   -3.005641   5.164426
H   -0.934469   -3.792985   3.214030
H   -2.368774   -3.092657   3.980152
H   -2.245673   -5.398483   4.543378
H   -0.760374   -5.234716   5.203595
O    2.710158    1.051713   3.059172
H    1.233038   -1.047077   0.462695
