 24
Energy: -13526.59488215.7 eV PBE+vdW (tier 2 basis)
N    0.087906   -0.492446   0.002931
C   -0.067856   -0.205486   1.436794
C    1.278321    0.029183   2.126684
O    1.614139    1.037198   2.715696
H    0.619118    0.250518  -0.454113
H    0.622019   -1.353930  -0.126438
H   -0.609719    0.747108   1.524382
C   -0.893096   -1.324294   2.106826
C   -1.730227   -0.901841   3.326373
C   -0.986941   -0.268775   4.510270
C    0.058666   -1.165047   5.172632
N    0.754158   -0.423547   6.232757
H   -0.230588   -2.166414   2.356967
H   -1.578719   -1.690619   1.328450
H   -2.279891   -1.791012   3.676157
H   -2.501009   -0.192191   2.985654
H   -1.719072    0.028073   5.275987
H   -0.498984    0.665292   4.189260
H    0.742892   -1.578159   4.405844
H   -0.441887   -2.030602   5.635820
H    1.442660   -1.017497   6.695090
H    1.271892    0.355984   5.821956
O    2.124943   -1.035204   1.974494
H    2.954855   -0.778512   2.419816
