 24
Energy: -13526.43034715.7 eV PBE+vdW (tier 2 basis)
N   -1.496094   -0.078249   0.126916
C   -0.852691   -0.630209   1.333893
C    0.150551    0.386515   1.905202
O   -0.127522    1.178549   2.775806
H   -1.903391    0.834837   0.335941
H   -0.810985    0.072021  -0.616714
H   -1.635176   -0.715780   2.101456
C   -0.308535   -2.033146   1.035927
C    0.037478   -2.891547   2.260478
C    1.248333   -2.447698   3.086596
C    1.581372   -3.397608   4.252078
N    0.603116   -3.498009   5.337318
H   -1.091436   -2.535975   0.449565
H    0.565054   -1.981063   0.355082
H    0.210566   -3.922963   1.912014
H   -0.854940   -2.938430   2.906625
H    1.092875   -1.438193   3.499356
H    2.134595   -2.378433   2.431735
H    2.537696   -3.085309   4.697705
H    1.746755   -4.414193   3.859247
H   -0.289424   -3.858601   5.000697
H    0.416164   -2.579010   5.740938
O    1.379520    0.447156   1.302046
H    1.477121   -0.311658   0.698095
