 24
Energy: -13526.54595215.7 eV PBE+vdW (tier 2 basis)
N   -0.585446    0.606239   0.197527
C   -0.480417   -0.037760   1.507427
C    0.965810   -0.157669   1.965396
O    1.305667   -0.447821   3.096333
H   -1.556147    0.585526  -0.116396
H   -0.032005    0.111817  -0.501711
H   -0.923383    0.650443   2.246590
C   -1.242181   -1.383646   1.689100
C   -0.860064   -2.534332   0.745761
C    0.475802   -3.254913   0.999285
C    0.518665   -4.216091   2.192064
N    0.261634   -3.550528   3.474924
H   -2.305477   -1.142527   1.527864
H   -1.148385   -1.710707   2.732591
H   -0.866939   -2.164811  -0.293603
H   -1.667304   -3.283140   0.791448
H    1.300921   -2.531325   1.087593
H    0.717428   -3.849218   0.103912
H    1.490812   -4.748876   2.155788
H   -0.260128   -4.984951   2.055225
H    0.379455   -4.205150   4.247387
H    0.919398   -2.783068   3.627558
O    1.871595    0.074113   0.975826
H    2.748096   -0.036832   1.393119
