 24
Energy: -13526.57159015.7 eV PBE+vdW (tier 2 basis)
N   -0.391672    0.625730   0.311864
C   -0.721091    0.666735   1.736302
C    0.497080    0.960010   2.606365
O    0.526624    0.844813   3.813746
H   -1.248894    0.594156  -0.239786
H    0.125795    1.456795   0.029946
H   -1.397770    1.508715   2.003701
C   -1.450231   -0.619796   2.183203
C   -0.831543   -1.945977   1.726618
C    0.590174   -2.217076   2.225737
C    1.077813   -3.635571   1.919238
N    0.287371   -4.639213   2.648216
H   -2.480864   -0.561422   1.798504
H   -1.528892   -0.587367   3.279299
H   -0.830514   -1.990699   0.626790
H   -1.484383   -2.760775   2.071870
H    0.648789   -2.044873   3.314207
H    1.294859   -1.508569   1.762944
H    2.163993   -3.691639   2.128250
H    0.955393   -3.837122   0.843117
H    0.479760   -4.577898   3.649284
H    0.549242   -5.581702   2.360598
O    1.551733    1.456525   1.896996
H    2.239116    1.657619   2.561207
