 24
Energy: -13526.61822715.7 eV PBE+vdW (tier 2 basis)
N   -1.606342    1.350171   0.946339
C   -0.577091    0.555454   1.620311
C    0.795483    0.759248   0.984469
O    1.707309   -0.043225   1.006974
H   -1.325367    2.326862   0.872431
H   -2.470785    1.319420   1.486620
H   -0.405476    0.871448   2.675089
C   -0.943793   -0.934370   1.649783
C   -1.151484   -1.562021   0.266161
C   -1.158716   -3.096500   0.271625
C    0.148300   -3.743851   0.747734
N    1.298320   -3.281564  -0.039666
H   -1.853660   -1.053210   2.260600
H   -0.143628   -1.453928   2.194238
H   -0.359744   -1.219872  -0.418001
H   -2.089743   -1.191946  -0.168448
H   -1.363369   -3.443633  -0.752475
H   -1.982226   -3.467380   0.905133
H    0.062724   -4.832152   0.612183
H    0.268078   -3.581873   1.838395
H    1.563625   -2.333518   0.235887
H    2.110312   -3.868598   0.148143
O    0.932857    1.996017   0.433319
H    1.848635    2.038098   0.095639
