 24
Energy: -13526.72445615.7 eV PBE+vdW (tier 2 basis)
N    1.536888    0.309029   2.710378
C    1.993399   -0.797730   1.839312
C    1.083408   -0.867998   0.590193
O   -0.007153   -0.084615   0.683992
H    1.519904    0.037975   3.691640
H    0.126746    0.377083   1.563245
H    3.007784   -0.600817   1.460719
C    2.023344   -2.172711   2.538213
C    0.674422   -2.836033   2.855368
C   -0.206630   -2.154864   3.909239
C   -1.433766   -3.000582   4.286614
N   -2.352853   -2.425950   5.270867
H    2.625597   -2.073130   3.457074
H    2.583667   -2.844571   1.873876
H    0.892875   -3.861750   3.194835
H    0.102077   -2.953067   1.921224
H   -0.558226   -1.176117   3.546325
H    0.382998   -1.960369   4.824002
H   -1.097203   -3.976692   4.671595
H   -2.014153   -3.219929   3.376634
H   -2.738108   -1.543873   4.930887
H   -1.863128   -2.213366   6.141093
O    1.321968   -1.574455  -0.364003
H    2.145146    1.121530   2.626677
