 24
Energy: -13526.64673415.7 eV PBE+vdW (tier 2 basis)
N   -0.509802   -0.252396   0.162968
C   -0.150431    0.114795   1.528191
C    1.289738   -0.262417   1.892087
O    1.925278   -1.170009   1.396403
H    0.096162    0.232273  -0.500344
H   -0.329309   -1.249390   0.024821
H   -0.237411    1.208223   1.625799
C   -1.092320   -0.529707   2.570951
C   -2.554607   -0.062849   2.522390
C   -3.427579   -0.711807   1.442935
C   -4.908591   -0.344880   1.559232
N   -5.491497   -0.847260   2.813702
H   -0.680656   -0.306613   3.566048
H   -1.039584   -1.626139   2.456913
H   -2.579702    1.033501   2.399441
H   -3.014678   -0.266925   3.500111
H   -3.327677   -1.810674   1.507679
H   -3.060743   -0.433645   0.446015
H   -5.435258   -0.702664   0.653183
H   -5.011195    0.752158   1.565795
H   -6.443595   -0.501989   2.931839
H   -5.555425   -1.866166   2.787455
O    1.795074    0.537833   2.874878
H    2.691393    0.198267   3.066068
