 24
Energy: -13526.61949715.7 eV PBE+vdW (tier 2 basis)
N    1.775923   -0.595189   2.442957
C    2.030304   -0.332482   1.030991
C    0.975757    0.560295   0.368258
O   -0.116199    0.825317   0.823484
H    0.824859   -0.944949   2.568346
H    1.814763    0.279692   2.967275
H    2.983113    0.215776   0.967271
C    2.222173   -1.635874   0.213015
C    0.961986   -2.400667  -0.219708
C    0.084871   -2.966845   0.905721
C   -0.922263   -4.012923   0.423958
N   -1.927157   -3.428835  -0.475140
H    2.863012   -2.284988   0.827949
H    2.793041   -1.381799  -0.691306
H    1.299843   -3.238313  -0.854036
H    0.352655   -1.756387  -0.874770
H   -0.478093   -2.155785   1.393621
H    0.727509   -3.432141   1.670231
H   -1.459009   -4.415196   1.295568
H   -0.364346   -4.862396  -0.023089
H   -1.510207   -3.181798  -1.373063
H   -2.659005   -4.108925  -0.679008
O    1.404409    1.036765  -0.837863
H    0.667059    1.571643  -1.191661
