 24
Energy: -13526.40293215.7 eV PBE+vdW (tier 2 basis)
N    0.749919    1.786492   1.797882
C   -0.215652    0.743867   2.136326
C    0.592008   -0.506869   2.501179
O    0.160534   -1.216413   3.581670
H    1.508060    1.364133   1.256752
H   -0.592393   -0.751309   3.986357
H   -0.785840    1.072504   3.026336
C   -1.239236    0.437265   1.010690
C   -2.364531   -0.557637   1.342393
C   -2.038999   -2.029046   1.063052
C   -3.213446   -2.958015   1.366130
N   -2.855399   -4.355320   1.099266
H   -0.679488    0.099161   0.124327
H   -1.683747    1.409907   0.747313
H   -3.255180   -0.280833   0.756685
H   -2.669249   -0.434831   2.398019
H   -1.168739   -2.370506   1.640201
H   -1.761112   -2.132950  -0.000003
H   -4.104816   -2.606208   0.805986
H   -3.469443   -2.881153   2.435269
H   -3.627868   -4.977198   1.337112
H   -2.669320   -4.491403   0.104530
O    1.550908   -0.883194   1.870614
H    0.314031    2.500560   1.213916
