 24
Energy: -13526.74899615.7 eV PBE+vdW (tier 2 basis)
N   -1.196965    1.650577   0.201189
C   -0.731099    0.981399   1.434919
C    0.812965    0.847284   1.388262
O    1.368665    1.475917   0.336387
H    0.575580    1.858646  -0.140301
H   -1.899028    2.360132   0.399056
H   -0.925085    1.662209   2.278079
C   -1.395722   -0.368432   1.746737
C   -1.178908   -1.447574   0.681360
C   -1.884020   -2.763726   1.025264
C   -1.749648   -3.843236  -0.049952
N   -0.365452   -4.316115  -0.173154
H   -2.474164   -0.198716   1.897898
H   -0.990444   -0.723639   2.704694
H   -0.096656   -1.619003   0.570181
H   -1.546536   -1.105438  -0.303811
H   -2.956579   -2.566212   1.187837
H   -1.482041   -3.157491   1.971778
H   -2.178591   -3.458631  -0.999531
H   -2.364673   -4.707414   0.240826
H    0.233558   -3.599195  -0.582992
H   -0.316399   -5.121366  -0.796363
O    1.453344    0.254062   2.227597
H   -1.612102    0.980965  -0.446958
