 24
Energy: -13526.63349915.7 eV PBE+vdW (tier 2 basis)
N    0.514364    1.688911   1.297675
C    0.614363    0.221282   1.207618
C    1.825305   -0.173834   0.364057
O    2.879216   -0.592741   0.800071
H    0.374091    2.089646   0.368184
H    1.383104    2.082784   1.662293
H    0.830572   -0.153404   2.218399
C   -0.723057   -0.359108   0.728468
C   -0.906138   -1.870693   0.921150
C   -0.032136   -2.777310   0.046896
C   -0.403328   -4.262454   0.175607
N    0.391373   -5.208730  -0.612041
H   -0.877696   -0.093164  -0.329496
H   -1.496204    0.173195   1.301866
H   -1.964251   -2.105099   0.719918
H   -0.744013   -2.121440   1.983266
H    1.031136   -2.663037   0.311807
H   -0.123385   -2.472046  -1.009494
H   -1.460463   -4.399605  -0.104325
H   -0.330782   -4.566521   1.232223
H    0.338988   -4.976868  -1.605169
H    1.377541   -5.144669  -0.354846
O    1.636561    0.076511  -0.967491
H    2.484838   -0.140608  -1.399635
