 24
Energy: -13526.69049515.7 eV PBE+vdW (tier 2 basis)
N    3.347806   -1.969638   3.149000
C    1.924108   -1.687175   2.948072
C    1.611028   -1.313475   1.497206
O    0.579617   -2.042292   0.983338
H    3.631049   -2.779178   2.595068
H    0.453610   -1.723275   0.067388
H    1.356511   -2.594929   3.197003
C    1.485633   -0.547113   3.881992
C   -0.005357   -0.211347   3.829334
C   -0.393791    0.899966   4.807730
C   -1.893188    1.205811   4.838746
N   -2.660781    0.056119   5.339543
H    2.083399    0.346538   3.635291
H    1.775496   -0.849598   4.899394
H   -0.604183   -1.107979   4.048088
H   -0.286669    0.102809   2.810122
H    0.147459    1.826064   4.554604
H   -0.063395    0.627802   5.825918
H   -2.241562    1.413629   3.814619
H   -2.055401    2.134532   5.419980
H   -3.661945    0.221044   5.240156
H   -2.487287   -0.076475   6.337065
O    2.204701   -0.474175   0.849863
H    3.899142   -1.179666   2.805481
