 24
Energy: -13526.50726015.7 eV PBE+vdW (tier 2 basis)
N   -0.324487   -0.941941   0.069260
C   -0.107439   -0.279143   1.349238
C    0.414773    1.170316   1.293140
O    0.240702    1.977193   2.176908
H    0.505835   -1.348442  -0.355525
H   -0.880198   -0.424437  -0.605935
H   -1.076214   -0.210619   1.865762
C    0.844211   -1.156086   2.194452
C    1.105913   -0.706699   3.635937
C   -0.137118   -0.650926   4.529200
C    0.200872   -0.346254   5.996305
N   -0.930409   -0.242903   6.922004
H    1.806768   -1.228485   1.658633
H    0.408208   -2.167251   2.191441
H    1.597801    0.277594   3.640192
H    1.832223   -1.412438   4.071162
H   -0.680343   -1.611060   4.475701
H   -0.826250    0.125512   4.161512
H    0.760858    0.600669   6.048780
H    0.880964   -1.121895   6.384669
H   -1.559733    0.506127   6.629523
H   -1.481706   -1.102419   6.909018
O    1.125297    1.499454   0.177887
H    1.076472    0.729134  -0.425263
