 24
Energy: -13526.43463615.7 eV PBE+vdW (tier 2 basis)
N   -1.597874   -0.087714   0.122724
C   -0.905551   -0.571266   1.332825
C    0.078429    0.500333   1.831878
O   -0.202482    1.327414   2.668622
H   -2.027118    0.820717   0.306797
H   -0.936885    0.052838  -0.644338
H   -1.663723   -0.651924   2.124636
C   -0.320839   -1.966044   1.075578
C    0.073008   -2.768542   2.322250
C    1.275456   -2.247416   3.115670
C    1.614888   -3.109928   4.334592
N    0.519859   -3.088017   5.314130
H   -1.097551   -2.515082   0.523470
H    0.536082   -1.909281   0.372770
H    0.286905   -3.802145   2.005283
H   -0.793912   -2.837403   2.995875
H    1.096745   -1.217608   3.465449
H    2.164962   -2.194925   2.465993
H    2.587150   -2.774704   4.744948
H    1.752260   -4.155310   4.014746
H    0.446120   -2.162790   5.740236
H    0.702685   -3.743065   6.073535
O    1.292874    0.564096   1.198928
H    1.395510   -0.221231   0.630402
