 24
Energy: -13526.67346415.7 eV PBE+vdW (tier 2 basis)
N    3.245548   -1.200765   2.918027
C    1.835384   -1.622479   2.874168
C    1.136467   -0.957407   1.685741
O    1.224540   -1.718633   0.557352
H    3.302435   -0.185120   3.017165
H    0.825344   -1.187474  -0.159893
H    1.823672   -2.710290   2.709497
C    1.133884   -1.273059   4.182604
C   -0.298138   -1.823984   4.280197
C   -1.175541   -1.101920   5.317619
C   -1.891803    0.148843   4.793625
N   -0.972245    1.220932   4.387619
H    1.125748   -0.179789   4.299044
H    1.748071   -1.669056   5.003826
H   -0.248513   -2.898056   4.516652
H   -0.798675   -1.761153   3.298099
H   -0.567108   -0.830374   6.195170
H   -1.953110   -1.794360   5.676065
H   -2.523952    0.545069   5.602376
H   -2.582679   -0.164476   3.982984
H   -1.488433    2.091360   4.264203
H   -0.543238    1.013445   3.482535
O    0.619827    0.145088   1.681472
H    3.728516   -1.449345   2.053856
