 24
Energy: -13526.52963015.7 eV PBE+vdW (tier 2 basis)
N   -0.041142    0.650327   0.333540
C   -0.088955    0.062052   1.667858
C    1.285492   -0.493846   2.007969
O    2.291929   -0.329120   1.350214
H    0.861624    1.098555   0.176157
H   -0.774006    1.347880   0.221008
H   -0.263331    0.816843   2.466007
C   -1.228475   -0.973540   1.814208
C   -1.080858   -2.356136   1.156662
C   -1.104343   -2.441829  -0.380293
C    0.265401   -2.361538  -1.054112
N    0.135699   -2.569058  -2.503228
H   -2.142330   -0.487497   1.435369
H   -1.391513   -1.126579   2.891039
H   -1.914863   -2.958770   1.547209
H   -0.171682   -2.850477   1.538638
H   -1.750965   -1.658379  -0.802822
H   -1.564238   -3.403964  -0.663307
H    0.947314   -3.084861  -0.560512
H    0.686517   -1.360710  -0.898369
H    1.025797   -2.393086  -2.968611
H   -0.110425   -3.539262  -2.706402
O    1.283490   -1.172752   3.188539
H    2.207314   -1.455056   3.332139
