 24
Energy: -13526.66588615.7 eV PBE+vdW (tier 2 basis)
N    1.016205   -0.745770   0.174461
C    0.420080   -0.255035   1.419023
C    1.480297    0.154380   2.444632
O    2.429867   -0.526404   2.775483
H    1.678426   -1.494657   0.390249
H    1.556462   -0.006402  -0.276953
H   -0.184449    0.632050   1.181598
C   -0.491728   -1.339777   2.016747
C   -1.244325   -0.916139   3.281619
C   -2.147120   -2.009814   3.866110
C   -3.331523   -2.398957   2.980361
N   -4.166750   -3.401016   3.653611
H    0.123938   -2.228802   2.232892
H   -1.188600   -1.624203   1.216107
H   -1.846020   -0.016563   3.067035
H   -0.521918   -0.615737   4.056411
H   -2.538364   -1.659036   4.835888
H   -1.557836   -2.913915   4.085804
H   -2.969417   -2.853119   2.045963
H   -3.878640   -1.477772   2.690336
H   -4.605678   -2.998361   4.483093
H   -4.925124   -3.706337   3.043995
O    1.254087    1.398069   2.957650
H    1.972368    1.559093   3.601779
