 24
Energy: -13526.39599915.7 eV PBE+vdW (tier 2 basis)
N    2.450490   -0.470798   1.799883
C    1.304246   -0.673298   2.701594
C    0.485512    0.623165   2.839949
O    0.940266    1.545690   3.745708
H    2.129841   -0.117617   0.897164
H    1.665556    1.154246   4.266288
H    0.630666   -1.380952   2.199922
C    1.789518   -1.278305   4.022542
C    0.716323   -1.637154   5.062936
C   -0.271305   -2.746042   4.651005
C   -1.572647   -2.247114   4.018994
N   -2.466933   -3.378656   3.737469
H    2.531260   -0.597537   4.486936
H    2.368868   -2.176371   3.759950
H    0.151948   -0.736645   5.358498
H    1.247944   -1.957671   5.970284
H   -0.545927   -3.343451   5.532249
H    0.229410   -3.447018   3.960141
H   -1.361157   -1.620821   3.132789
H   -2.085403   -1.591670   4.740279
H   -3.364686   -3.041059   3.389915
H   -2.075847   -3.960922   2.994825
O   -0.466169    0.889244   2.143438
H    3.096227    0.225756   2.177239
