 24
Energy: -13526.65903515.7 eV PBE+vdW (tier 2 basis)
N   -0.071147    0.542044   0.709536
C    0.134922   -0.184326   1.958552
C    1.550386   -0.732567   2.223775
O    1.834239   -1.561042   3.067651
H    0.085245   -0.071269  -0.090824
H    0.600088    1.303999   0.620582
H   -0.024993    0.535594   2.781511
C   -0.889418   -1.315890   2.133573
C   -0.775100   -2.423335   1.077029
C   -1.492255   -3.727676   1.451971
C   -0.951182   -4.413947   2.713508
N    0.493147   -4.666100   2.617413
H   -1.892897   -0.868242   2.109094
H   -0.747009   -1.736124   3.137542
H    0.286033   -2.661496   0.893830
H   -1.177134   -2.066015   0.116552
H   -1.397854   -4.428354   0.608687
H   -2.569326   -3.536356   1.591191
H   -1.457710   -5.384508   2.817938
H   -1.233815   -3.825368   3.608857
H    1.020021   -3.814618   2.823259
H    0.776300   -5.348317   3.319730
O    2.497293   -0.159705   1.429746
H    3.347081   -0.553684   1.708632
