 24
Energy: -13526.69528015.7 eV PBE+vdW (tier 2 basis)
N    0.751433    0.059961   2.571342
C    1.368067   -0.299231   1.299296
C    1.764951    0.915408   0.458305
O    1.239329    2.008028   0.514910
H    1.445069    0.469558   3.197198
H    0.054237    0.790526   2.409156
H    2.282962   -0.876026   1.504143
C    0.417285   -1.184447   0.460393
C    0.147311   -2.542896   1.114332
C   -0.960996   -3.358506   0.435388
C   -0.644700   -3.813816  -0.998062
N   -1.648758   -4.663446  -1.647076
H    0.848570   -1.311918  -0.542831
H   -0.530824   -0.635510   0.328532
H   -0.117828   -2.370528   2.166788
H    1.081499   -3.130757   1.121986
H   -1.897550   -2.773886   0.429749
H   -1.166252   -4.253514   1.046165
H    0.310802   -4.363901  -0.999852
H   -0.489473   -2.940152  -1.649177
H   -2.540219   -4.169723  -1.713904
H   -1.826808   -5.495528  -1.081929
O    2.779777    0.629404  -0.406282
H    2.931114    1.442900  -0.926573
