 24
Energy: -13526.63585815.7 eV PBE+vdW (tier 2 basis)
N   -0.460768    0.859771   0.939136
C   -0.356274   -0.200630   1.931686
C    1.042310   -0.678683   2.332927
O    1.260475   -1.468139   3.232262
H    0.000268    0.588555   0.069876
H   -0.000213    1.709790   1.261400
H   -0.784684    0.175431   2.875792
C   -1.182118   -1.433858   1.504103
C   -2.697559   -1.205387   1.482176
C   -3.346275   -0.769374   2.805993
C   -3.098412   -1.666154   4.029948
N   -1.851358   -1.338890   4.742213
H   -0.929546   -2.270854   2.169970
H   -0.847840   -1.740437   0.498451
H   -3.167284   -2.144931   1.148079
H   -2.934722   -0.452512   0.716458
H   -4.432344   -0.718944   2.630190
H   -3.036975    0.253966   3.069624
H   -3.169558   -2.730222   3.724151
H   -3.917743   -1.499164   4.743734
H   -1.877354   -1.718182   5.687812
H   -1.026281   -1.744694   4.297646
O    2.043744   -0.136026   1.584759
H    2.870335   -0.519529   1.938106
