 24
Energy: -13526.66999515.7 eV PBE+vdW (tier 2 basis)
N    1.625263   -0.335748   2.557484
C    1.952407   -0.385768   1.137553
C    1.550045    0.881585   0.373751
O    0.794635    1.741043   0.777618
H    2.196847    0.371683   3.020019
H    0.660390   -0.021116   2.676288
H    3.045307   -0.476053   1.042734
C    1.336650   -1.633231   0.461984
C   -0.195528   -1.652321   0.433714
C   -0.786076   -2.854257  -0.314844
C   -0.516901   -4.208185   0.343204
N   -1.174363   -5.283129  -0.410775
H    1.721176   -2.499628   1.017678
H    1.724177   -1.704886  -0.565380
H   -0.566163   -0.730337  -0.041845
H   -0.586443   -1.642950   1.464407
H   -0.408594   -2.882700  -1.349294
H   -1.877606   -2.716097  -0.392813
H   -0.820513   -4.154022   1.409004
H    0.562506   -4.421204   0.338111
H   -0.954936   -6.192791  -0.005109
H   -2.189311   -5.181524  -0.360184
O    2.139028    0.940247  -0.855182
H    1.811001    1.760388  -1.273126
