 24
Energy: -13526.61872615.7 eV PBE+vdW (tier 2 basis)
N    0.744037   -1.129151   0.150202
C    0.204481   -0.366850   1.272303
C    1.357083    0.034414   2.181357
O    2.534641   -0.102076   1.917827
H    0.217792   -0.958244  -0.703101
H    1.717246   -0.865163  -0.007495
H   -0.246924    0.601502   0.963228
C   -0.885734   -1.158379   2.022719
C   -2.122817   -1.413925   1.157461
C   -3.230859   -2.187954   1.884892
C   -2.950873   -3.684807   2.063511
N   -2.902400   -4.366884   0.763326
H   -1.176219   -0.602690   2.926184
H   -0.437750   -2.110035   2.346534
H   -1.842417   -1.977661   0.255477
H   -2.524088   -0.443262   0.820815
H   -4.175816   -2.078653   1.326589
H   -3.414040   -1.740934   2.875941
H   -3.703488   -4.104915   2.758927
H   -1.972412   -3.827238   2.546470
H   -2.546857   -5.316637   0.864154
H   -3.839641   -4.445269   0.366482
O    0.931452    0.612612   3.338112
H    1.743158    0.855361   3.823905
