 24
Energy: -13526.57146015.7 eV PBE+vdW (tier 2 basis)
N    1.508754   -0.278748   0.227949
C    0.527157   -0.165670   1.298987
C    1.148880    0.223683   2.644411
O    2.293020    0.002857   2.982746
H    2.000155    0.607130   0.101825
H    2.223967   -0.957945   0.495206
H   -0.192419    0.625499   1.035364
C   -0.250353   -1.490581   1.491172
C   -1.422326   -1.765168   0.535576
C   -1.108986   -2.033091  -0.946347
C   -1.041549   -0.789655  -1.833874
N   -0.866269   -1.176091  -3.240309
H   -0.653094   -1.504544   2.514872
H    0.480036   -2.315134   1.440163
H   -2.148789   -0.937838   0.614102
H   -1.943064   -2.646246   0.940891
H   -1.896775   -2.692688  -1.348151
H   -0.165003   -2.589414  -1.047424
H   -0.168114   -0.191150  -1.543320
H   -1.946507   -0.173003  -1.650571
H   -1.713582   -1.618900  -3.599479
H   -0.700383   -0.354304  -3.820568
O    0.248289    0.848750   3.457560
H    0.716389    1.020917   4.298023
