 24
Energy: -13526.53672415.7 eV PBE+vdW (tier 2 basis)
N    0.719473    0.352196   0.912229
C   -0.040754    0.150816   2.146341
C    0.800542    0.431695   3.382442
O    0.348113    0.746743   4.463108
H    0.159367    0.058144   0.111938
H    1.568230   -0.211369   0.906877
H   -0.830387    0.917292   2.172434
C   -0.764819   -1.216688   2.339457
C    0.084022   -2.444173   2.696452
C    1.084209   -2.922858   1.638472
C    1.670256   -4.295834   1.965585
N    2.670303   -4.689014   0.965226
H   -1.327766   -1.408955   1.410888
H   -1.515293   -1.073927   3.131633
H   -0.616310   -3.268090   2.912742
H    0.615826   -2.260618   3.644883
H    1.921369   -2.218149   1.534492
H    0.587367   -2.966723   0.653184
H    0.840059   -5.022427   2.081478
H    2.179141   -4.247421   2.941261
H    3.111156   -5.571096   1.225613
H    2.223952   -4.846799   0.060351
O    2.132179    0.229375   3.176441
H    2.562451    0.403735   4.036011
