 24
Energy: -13526.61860315.7 eV PBE+vdW (tier 2 basis)
N   -0.076217   -0.846315   0.204806
C    0.161117   -0.279722   1.533247
C    1.643703   -0.024509   1.756940
O    2.104247    0.902470   2.388920
H   -1.075296   -0.995761   0.064418
H    0.379948   -1.755616   0.118427
H   -0.307649    0.715178   1.562211
C   -0.371021   -1.095202   2.744115
C   -1.893656   -1.229859   2.755283
C   -2.417085   -2.026885   3.952911
C   -3.930970   -2.253884   3.929037
N   -4.326361   -3.081414   2.779595
H   -0.034164   -0.602979   3.671007
H    0.096353   -2.094114   2.726364
H   -2.245505   -1.721109   1.835700
H   -2.347939   -0.223981   2.764400
H   -2.152703   -1.513212   4.891221
H   -1.909327   -3.006837   3.993264
H   -4.441170   -1.283055   3.827156
H   -4.244212   -2.672090   4.905322
H   -4.018355   -4.045420   2.915901
H   -5.341554   -3.112990   2.691521
O    2.424530   -1.006276   1.220335
H    3.343840   -0.767507   1.447606
