 24
Energy: -13526.61584715.7 eV PBE+vdW (tier 2 basis)
N    0.549753    0.033874  -0.198305
C    0.061728    0.123049   1.179723
C    1.260127   -0.075963   2.095182
O    2.133753   -0.899609   1.918251
H    1.133674   -0.800164  -0.291779
H   -0.236521   -0.070641  -0.840087
H   -0.328800    1.137011   1.347344
C   -1.035552   -0.916632   1.537701
C   -1.649736   -0.828452   2.943406
C   -2.329217    0.501899   3.299004
C   -3.485102    0.889270   2.376820
N   -4.113478    2.132869   2.837926
H   -0.605103   -1.919353   1.389857
H   -1.825072   -0.807086   0.776899
H   -0.875580   -1.039751   3.696781
H   -2.384029   -1.645049   3.037684
H   -1.599206    1.324166   3.318708
H   -2.715361    0.423513   4.329222
H   -4.185910    0.031914   2.297539
H   -3.108439    1.076227   1.359115
H   -4.859769    2.417278   2.203684
H   -4.546908    1.993479   3.751961
O    1.234201    0.751137   3.174406
H    2.015835    0.515208   3.712416
