 24
Energy: -13526.62104115.7 eV PBE+vdW (tier 2 basis)
N   -0.194951   -0.556571  -0.143920
C   -0.047959   -0.246630   1.277471
C    1.387119   -0.174833   1.803797
O    1.794540    0.624562   2.620726
H    0.253427    0.157668  -0.717347
H    0.266735   -1.440855  -0.361693
H   -0.464044    0.756756   1.451886
C   -0.837013   -1.254986   2.138780
C   -2.351551   -1.164086   1.925609
C   -3.168856   -2.155290   2.763795
C   -3.023871   -3.618387   2.344262
N   -3.925252   -4.469787   3.133858
H   -0.600569   -1.072461   3.198877
H   -0.467765   -2.266771   1.906228
H   -2.574821   -1.301653   0.857140
H   -2.675600   -0.140815   2.174037
H   -4.235894   -1.894133   2.701605
H   -2.892328   -2.054253   3.828616
H   -1.961538   -3.926089   2.407352
H   -3.315298   -3.716757   1.286478
H   -3.853839   -5.441894   2.832751
H   -3.651717   -4.454201   4.117889
O    2.187139   -1.146488   1.269087
H    3.060025   -1.032012   1.691944
