 24
Energy: -13526.69368915.7 eV PBE+vdW (tier 2 basis)
N   -0.088178    0.398355  -0.614491
C    0.620863    0.227638   0.652848
C    1.838077   -0.688645   0.509914
O    2.095824   -1.304496  -0.512724
H    0.295310   -0.274319  -1.284051
H    0.088459    1.322353  -1.002779
H    0.988788    1.197538   1.023811
C   -0.309040   -0.332827   1.769029
C   -0.967726   -1.698255   1.508068
C   -0.064207   -2.944519   1.400505
C    0.829949   -3.254801   2.620471
N    2.254800   -3.413282   2.224613
H   -1.116709    0.402940   1.893464
H    0.257013   -0.342496   2.711338
H   -1.551259   -1.625557   0.577669
H   -1.705008   -1.864157   2.310589
H    0.571634   -2.858289   0.509219
H   -0.715993   -3.808926   1.207017
H    0.455464   -4.149818   3.143600
H    0.793685   -2.427379   3.343004
H    2.803926   -3.781709   3.002839
H    2.336770   -4.087993   1.461865
O    2.514460   -0.826165   1.662102
H    2.740946   -1.819332   1.768360
