 24
Energy: -13526.85160115.7 eV PBE+vdW (tier 2 basis)
N   -0.192227    0.694230   3.362750
C    0.633477   -0.386698   2.797058
C    1.730619    0.227807   1.899360
O    1.873443    1.554488   2.087945
H   -0.980035    0.902050   2.744982
H    1.156501    1.762885   2.756693
H    1.192792   -0.814811   3.643052
C   -0.122971   -1.510975   2.068673
C   -1.274303   -2.159644   2.849959
C   -0.919280   -3.113388   4.003237
C   -0.213889   -2.532705   5.235645
N   -0.866108   -1.305360   5.733122
H    0.608534   -2.268164   1.751333
H   -0.532765   -1.089210   1.135652
H   -1.870865   -2.740442   2.130100
H   -1.953706   -1.376767   3.222534
H   -0.293866   -3.936234   3.621567
H   -1.857163   -3.587894   4.339079
H    0.827747   -2.277112   4.994572
H   -0.161480   -3.330943   5.999463
H   -0.414997   -0.998280   6.595766
H   -1.838110   -1.503279   5.979977
O    2.416773   -0.412844   1.133168
H   -0.582121    0.372288   4.257313
