 24
Energy: -13526.71800815.7 eV PBE+vdW (tier 2 basis)
N   -0.157262    1.252666   2.686252
C    0.901859    0.458069   2.024744
C    0.879844    0.769202   0.502536
O    0.010126    1.738614   0.174923
H    0.191188    1.760982   3.495433
H   -0.405386    1.969634   1.059197
H    1.881269    0.828171   2.369788
C    0.836266   -1.057782   2.261963
C    1.431324   -1.564381   3.581713
C    0.747084   -1.104844   4.872647
C    1.272139   -1.807105   6.140431
N    1.033068   -3.245536   6.264722
H    1.370462   -1.533060   1.427975
H   -0.217113   -1.378821   2.172171
H    2.498960   -1.288390   3.620890
H    1.409300   -2.665913   3.542581
H   -0.342410   -1.274523   4.800071
H    0.881653   -0.019261   5.011133
H    0.828219   -1.321051   7.022517
H    2.358970   -1.644065   6.220908
H    1.499616   -3.767210   5.523200
H    0.036934   -3.457226   6.194912
O    1.593189    0.206413  -0.298655
H   -0.917300    0.654415   3.007947
