 24
Energy: -13526.69087015.7 eV PBE+vdW (tier 2 basis)
N   -0.710581   -0.874622  -0.802296
C   -0.405077   -0.341534   0.525307
C    1.058235   -0.551822   0.920137
O    1.685398   -1.578819   0.759341
H   -0.164679   -0.388682  -1.515064
H   -0.426207   -1.856060  -0.844662
H   -0.601253    0.739426   0.510155
C   -1.320461   -1.017558   1.566731
C   -1.171004   -0.546281   3.016505
C   -1.502204    0.931523   3.248640
C   -1.555407    1.319574   4.728995
N   -2.646131    0.621876   5.425171
H   -1.135394   -2.102568   1.515708
H   -2.351657   -0.858070   1.217295
H   -0.148504   -0.748449   3.377920
H   -1.835192   -1.153463   3.647514
H   -2.475427    1.168010   2.781976
H   -0.761155    1.576905   2.753010
H   -1.613910    2.422703   4.806491
H   -0.611833    1.022520   5.213713
H   -3.550077    0.988169   5.123054
H   -2.591373    0.779438   6.430853
O    1.608701    0.560681   1.489270
H    2.526225    0.316394   1.723573
