 24
Energy: -13526.61354315.7 eV PBE+vdW (tier 2 basis)
N    0.461703    0.931547   0.747569
C   -0.126593    0.458538   1.995824
C    0.767209   -0.371315   2.929415
O    0.514670   -0.605771   4.093112
H    0.828516    0.152058   0.201700
H    1.254919    1.543930   0.935342
H   -0.395129    1.343296   2.593100
C   -1.437241   -0.320150   1.743705
C   -1.269745   -1.612422   0.937048
C   -2.585744   -2.361920   0.690133
C   -3.224320   -2.951027   1.948797
N   -4.442423   -3.694972   1.604589
H   -2.116849    0.361609   1.211315
H   -1.887136   -0.535461   2.722508
H   -0.561280   -2.285375   1.449786
H   -0.820465   -1.378868  -0.040537
H   -2.393774   -3.183764  -0.020008
H   -3.315910   -1.700081   0.198389
H   -3.520049   -2.143564   2.634887
H   -2.463922   -3.554583   2.486020
H   -4.209764   -4.517606   1.045940
H   -4.903071   -4.038935   2.446982
O    1.891567   -0.846540   2.317099
H    2.358576   -1.366678   3.000014
