 24
Energy: -13526.45129015.7 eV PBE+vdW (tier 2 basis)
N   -1.104276   -0.039356  -0.068262
C   -0.775745   -0.561510   1.254903
C    0.322374    0.203569   2.017968
O    0.340446    0.337271   3.219932
H   -1.216263    0.969990  -0.118809
H   -0.509822   -0.382365  -0.820086
H   -1.666781   -0.474035   1.894945
C   -0.440909   -2.063679   1.111603
C   -0.158292   -2.827601   2.413846
C    1.315391   -2.838385   2.841213
C    1.538207   -3.342120   4.268952
N    0.789633   -2.526834   5.232717
H   -1.307711   -2.501689   0.596002
H    0.414136   -2.169723   0.418979
H   -0.493260   -3.868613   2.287670
H   -0.764206   -2.413242   3.231876
H    1.744573   -1.827218   2.766129
H    1.899380   -3.466459   2.149162
H    2.629859   -3.371227   4.456767
H    1.177357   -4.380840   4.355541
H    1.022122   -1.537899   5.122739
H    1.023678   -2.788484   6.189323
O    1.319502    0.730153   1.249559
H    1.070608    0.585296   0.314333
