 24
Energy: -13526.58100515.7 eV PBE+vdW (tier 2 basis)
N   -0.110002    0.248371  -0.066359
C   -0.403763   -0.082762   1.324790
C    0.645449    0.445111   2.288474
O    0.461497    0.568071   3.484637
H   -0.884943   -0.038936  -0.663305
H    0.723890   -0.241172  -0.393811
H   -1.324990    0.450728   1.604950
C   -0.605526   -1.589748   1.652276
C   -1.848456   -2.219308   1.013124
C   -3.204642   -1.587290   1.369688
C   -3.542555   -1.484820   2.866628
N   -3.019884   -0.258837   3.490030
H   -0.644655   -1.711136   2.745459
H    0.291573   -2.137214   1.318793
H   -1.865807   -3.282699   1.301460
H   -1.739250   -2.218851  -0.084251
H   -3.982572   -2.193406   0.879614
H   -3.293035   -0.576815   0.940220
H   -3.224590   -2.417427   3.376529
H   -4.636635   -1.442312   2.964288
H   -3.508821   -0.071016   4.364115
H   -2.029270   -0.327466   3.727555
O    1.842151    0.709840   1.702120
H    2.430794    1.002325   2.425165
