 24
Energy: -13526.60948015.7 eV PBE+vdW (tier 2 basis)
N    0.946949   -0.569759  -0.112358
C    0.204818   -0.110947   1.073224
C    1.151106    0.001599   2.270052
O    1.600744   -0.930989   2.905385
H    1.674366    0.100421  -0.364842
H    1.413778   -1.455660   0.093714
H   -0.185006    0.888807   0.840954
C   -0.943037   -1.082273   1.362467
C   -1.864202   -0.743771   2.543718
C   -2.721543    0.527206   2.398099
C   -2.087283    1.808822   2.943490
N   -3.004069    2.943304   2.775469
H   -0.500084   -2.075552   1.537992
H   -1.531486   -1.157226   0.435954
H   -1.276831   -0.693558   3.475845
H   -2.534764   -1.605300   2.674666
H   -3.672065    0.373993   2.935834
H   -2.998246    0.687011   1.343933
H   -1.166648    2.052563   2.394980
H   -1.781032    1.629696   3.994661
H   -3.841173    2.810683   3.345475
H   -2.568864    3.807674   3.097396
O    1.513194    1.295970   2.516832
H    2.158018    1.259111   3.251025
