 24
Energy: -13526.64695315.7 eV PBE+vdW (tier 2 basis)
N   -0.027346    0.868036   0.259217
C    0.727707    0.202958   1.310536
C    2.122149   -0.267641   0.867036
O    2.613004   -0.089599  -0.228043
H   -0.184538    0.224945  -0.519044
H    0.525158    1.631321  -0.132541
H    0.939880    0.953187   2.092510
C   -0.112277   -0.897941   1.998871
C   -0.737769   -1.951297   1.074577
C    0.250642   -2.839416   0.310820
C   -0.426492   -3.958242  -0.483798
N   -1.276185   -3.420140  -1.556625
H   -0.922775   -0.380717   2.531430
H    0.510984   -1.388288   2.759785
H   -1.415092   -1.446984   0.367090
H   -1.384039   -2.592816   1.697232
H    0.959184   -3.293405   1.022797
H    0.844848   -2.239616  -0.395241
H   -0.969060   -4.623198   0.219535
H    0.350712   -4.573316  -0.959876
H   -1.552975   -4.163169  -2.197344
H   -2.141335   -3.036062  -1.176242
O    2.805641   -0.872228   1.882912
H    3.684971   -1.090374   1.517406
