 24
Energy: -13526.58165315.7 eV PBE+vdW (tier 2 basis)
N    2.145002   -2.838640   2.950414
C    1.423943   -1.667690   2.453584
C    2.368842   -0.897403   1.540184
O    1.921860    0.352885   1.239652
H    1.497533   -3.598617   3.150979
H    2.588932    0.728105   0.632510
H    0.567288   -1.931067   1.793771
C    0.855920   -0.842203   3.631681
C   -0.387606   -0.011468   3.308488
C   -0.907608    0.808824   4.496984
C   -1.317178    0.000043   5.732346
N   -2.324645   -1.016617   5.397884
H    1.655471   -0.212162   4.052607
H    0.609014   -1.577474   4.410624
H   -1.183560   -0.690625   2.965192
H   -0.176463    0.676386   2.478560
H   -1.773580    1.404622   4.161333
H   -0.144398    1.541426   4.806854
H   -1.643131    0.709599   6.517948
H   -0.441800   -0.527469   6.140743
H   -3.193624   -0.569321   5.101029
H   -2.554444   -1.576315   6.218643
O    3.404540   -1.338671   1.084623
H    2.812695   -3.158148   2.247366
