 24
Energy: -13526.58313315.7 eV PBE+vdW (tier 2 basis)
N    0.062535    0.391690   0.260806
C    0.418066   -0.200533   1.548064
C    1.678900   -1.071930   1.556241
O    2.507248   -1.096683   2.442735
H   -0.108375   -0.337966  -0.432606
H    0.828005    0.963556  -0.096242
H    0.641836    0.619430   2.246774
C   -0.740415   -1.027644   2.145447
C   -2.006586   -0.224439   2.487851
C   -2.992062   -0.022736   1.332642
C   -4.261482    0.708784   1.764060
N   -5.181708    0.874427   0.630681
H   -0.356518   -1.504392   3.059376
H   -0.988363   -1.848743   1.451858
H   -1.710989    0.756687   2.895608
H   -2.526463   -0.745159   3.308491
H   -3.269562   -1.010409   0.922055
H   -2.513816    0.535199   0.517266
H   -3.993917    1.715685   2.122030
H   -4.710244    0.178352   2.629616
H   -5.519123   -0.036390   0.314995
H   -6.006699    1.403312   0.913962
O    1.774169   -1.860741   0.443776
H    2.586805   -2.389150   0.563551
