 24
Energy: -13526.75725115.7 eV PBE+vdW (tier 2 basis)
N   -0.347303    0.911120   1.001583
C    0.546110    0.038798   1.790696
C    1.838303   -0.235531   0.983249
O    1.928180    0.498505  -0.140709
H   -1.101776    0.373148   0.573514
H    1.076716    1.023708  -0.137268
H    0.885869    0.615690   2.665608
C   -0.083674   -1.276339   2.267679
C   -1.236870   -1.112022   3.266448
C   -0.877709   -0.409211   4.583647
C    0.230513   -1.083954   5.415144
N   -0.010389   -2.458698   5.857875
H    0.723107   -1.890579   2.690517
H   -0.442714   -1.828991   1.382925
H   -1.641103   -2.112439   3.487962
H   -2.068678   -0.566412   2.791559
H   -1.789381   -0.339199   5.199817
H   -0.576217    0.635307   4.389915
H    0.411975   -0.470465   6.310977
H    1.179644   -1.081404   4.857807
H   -0.905427   -2.535276   6.343020
H   -0.045589   -3.102837   5.068093
O    2.692480   -1.015331   1.342407
H   -0.778066    1.634412   1.573532
