 24
Energy: -13526.66201515.7 eV PBE+vdW (tier 2 basis)
N   -0.286836    0.119518  -0.415678
C    0.203785    0.204039   0.955945
C    1.725971    0.294160   1.054212
O    2.512088   -0.190057   0.265699
H    0.207600   -0.632042  -0.901949
H   -0.065427    0.975542  -0.925075
H   -0.205563    1.116931   1.413686
C   -0.257781   -1.017969   1.781469
C   -1.782873   -1.120066   1.929926
C   -2.469197   -0.023892   2.759960
C   -2.265612   -0.080408   4.277008
N   -0.876057    0.199032   4.672222
H    0.209312   -0.977512   2.773800
H    0.118110   -1.921655   1.273981
H   -2.015472   -2.098928   2.380191
H   -2.228063   -1.126453   0.924573
H   -3.553129   -0.085833   2.575960
H   -2.177305    0.975732   2.392879
H   -2.510083   -1.094328   4.633161
H   -3.000524    0.602029   4.748934
H   -0.613550    1.148141   4.400623
H   -0.777514    0.152333   5.686369
O    2.126842    0.978508   2.164891
H    3.103306    0.937591   2.168086
