 24
Energy: -13526.64081315.7 eV PBE+vdW (tier 2 basis)
N   -0.712714   -0.925723   1.058640
C    0.487930   -0.529953   1.825760
C    1.412842    0.310307   0.906770
O    0.990704    0.363564  -0.367427
H   -0.922138   -1.915946   1.163926
H    0.145328   -0.176063  -0.342295
H    0.223264    0.138627   2.660865
C    1.275560   -1.730885   2.378866
C    0.853242   -2.291774   3.745281
C   -0.563641   -2.876474   3.884077
C   -1.671704   -1.882423   4.289513
N   -1.570540   -1.282090   5.620563
H    2.324553   -1.414735   2.458250
H    1.255648   -2.531404   1.618148
H    1.004642   -1.511400   4.510574
H    1.581755   -3.076831   3.996813
H   -0.545246   -3.671003   4.647726
H   -0.855582   -3.385371   2.948127
H   -2.642060   -2.399473   4.233555
H   -1.733728   -1.055488   3.567172
H   -0.722801   -0.721842   5.711036
H   -1.521528   -2.004490   6.340381
O    2.417963    0.855016   1.307234
H   -1.540752   -0.402145   1.335443
