 24
Energy: -13526.64787815.7 eV PBE+vdW (tier 2 basis)
N    0.143267   -0.313969  -0.473680
C    0.107573   -0.041927   0.959657
C    1.448191   -0.258303   1.668403
O    2.377792   -0.914736   1.245919
H    0.504536   -1.253067  -0.645668
H    0.800536    0.320323  -0.929520
H   -0.142628    1.022791   1.082069
C   -1.006762   -0.848140   1.681888
C   -0.674929   -2.280738   2.122697
C   -0.340308   -3.280352   1.010188
C   -0.106368   -4.703720   1.521841
N    1.040845   -4.748748   2.439222
H   -1.868253   -0.842999   0.997295
H   -1.303778   -0.281278   2.575575
H   -1.546681   -2.662346   2.679769
H    0.149237   -2.272280   2.851189
H    0.571718   -2.964890   0.475774
H   -1.149024   -3.300285   0.262275
H   -0.007145   -5.379916   0.649860
H   -0.993250   -5.041334   2.082270
H    1.187185   -5.695783   2.787293
H    1.895373   -4.481739   1.947109
O    1.484306    0.372342   2.876888
H    2.348309    0.146884   3.274022
