 24
Energy: -13526.52909215.7 eV PBE+vdW (tier 2 basis)
N   -0.087917   -0.599777  -0.063060
C   -0.185550   -0.281468   1.362979
C    1.135030   -0.364765   2.131181
O    1.542448    0.465692   2.918061
H    0.236822   -1.560219  -0.186429
H    0.599160    0.001130  -0.519535
H   -0.495327    0.769826   1.454768
C   -1.274212   -1.162421   2.008269
C   -1.560608   -0.860725   3.493450
C   -0.788315   -1.723507   4.511732
C   -1.489007   -3.024350   4.911933
N   -1.644433   -3.961279   3.786811
H   -0.992047   -2.218896   1.881715
H   -2.173831   -0.997393   1.398581
H   -2.640325   -0.979479   3.680543
H   -1.349824    0.202023   3.685797
H   -0.630851   -1.139181   5.430711
H    0.212583   -1.967880   4.125979
H   -2.449996   -2.769718   5.404547
H   -0.874949   -3.530358   5.671541
H   -1.948457   -4.871853   4.131580
H   -2.379677   -3.644499   3.153329
O    1.837232   -1.499353   1.837056
H    2.643423   -1.463062   2.386826
