 24
Energy: -13526.69746015.7 eV PBE+vdW (tier 2 basis)
N   -0.421111    0.449913   0.659992
C    0.371919   -0.482620   1.486787
C    1.618103   -0.943305   0.691765
O    1.761024   -0.311485  -0.486109
H   -1.268957    0.003257   0.309709
H    0.966905    0.297701  -0.512259
H    0.782984    0.084516   2.337246
C   -0.405773   -1.693490   2.018521
C   -1.432014   -1.359381   3.111914
C   -0.846158   -0.930076   4.469489
C   -0.519769   -2.075359   5.448270
N    0.500860   -3.055091   5.073923
H    0.331567   -2.421716   2.377828
H   -0.915244   -2.172064   1.164233
H   -2.080048   -2.237992   3.264775
H   -2.103961   -0.568693   2.739391
H   -1.565944   -0.266428   4.975787
H    0.060607   -0.318392   4.321623
H   -1.445372   -2.634423   5.660933
H   -0.213905   -1.627440   6.407070
H    1.373476   -2.599461   4.803848
H    0.204638   -3.619048   4.278569
O    2.397041   -1.774060   1.105596
H   -0.703874    1.279137   1.177100
