 24
Energy: -13526.66457515.7 eV PBE+vdW (tier 2 basis)
N    0.442579    1.240766   0.514185
C    0.952010    0.291131   1.492311
C    2.194635   -0.477717   1.018609
O    2.717974   -0.376675  -0.071874
H    0.190886    0.754006  -0.347581
H    1.179975    1.893559   0.247062
H    1.304869    0.868526   2.363894
C   -0.173221   -0.628430   2.022790
C   -0.960290   -1.426625   0.974293
C   -0.175513   -2.507099   0.221804
C   -1.068286   -3.364695  -0.688108
N   -0.401366   -4.415205  -1.461813
H   -0.874064    0.027406   2.558296
H    0.257862   -1.313720   2.766471
H   -1.425791   -0.734170   0.253606
H   -1.805432   -1.903909   1.497023
H    0.337996   -3.163436   0.945316
H    0.615007   -2.053618  -0.397232
H   -1.596564   -2.711069  -1.400953
H   -1.854116   -3.843743  -0.081933
H    0.081384   -5.064032  -0.838352
H    0.316501   -4.010900  -2.065133
O    2.700236   -1.280005   1.999579
H    3.496731   -1.698346   1.618741
