 24
Energy: -13526.65900715.7 eV PBE+vdW (tier 2 basis)
N   -0.189195    0.654065   0.466721
C    0.070244    0.082711   1.784285
C    1.535177   -0.313252   1.840723
O    2.199141   -0.668749   0.888978
H    0.274268    0.085521  -0.244725
H   -1.187980    0.663432   0.266172
H   -0.096652    0.856824   2.550978
C   -0.774061   -1.162290   2.176657
C   -2.270394   -0.868082   2.289893
C   -3.091356   -2.102645   2.672702
C   -4.585675   -1.823882   2.853950
N   -4.823353   -0.902468   3.974190
H   -0.407965   -1.544678   3.143103
H   -0.592802   -1.952958   1.429417
H   -2.655793   -0.479703   1.331343
H   -2.442143   -0.076339   3.034439
H   -2.691743   -2.535309   3.606878
H   -2.971298   -2.884377   1.905158
H   -5.117698   -2.790250   2.952449
H   -4.977620   -1.343512   1.943396
H   -5.803330   -0.623655   4.009499
H   -4.622219   -1.365442   4.861827
O    2.026086   -0.277820   3.110220
H    2.945972   -0.601652   3.049832
