 24
Energy: -13526.51050115.7 eV PBE+vdW (tier 2 basis)
N    0.238214    0.534285   0.924719
C    0.243195    0.424394   2.389588
C    1.638764    0.017292   2.904291
O    2.400466    1.011088   3.452592
H    0.509749   -0.363976   0.518643
H    1.869657    1.825091   3.504176
H   -0.026079    1.417537   2.792218
C   -0.790462   -0.601782   2.850527
C   -0.918066   -0.691214   4.375806
C   -1.619208   -1.959919   4.878713
C   -0.887757   -3.265500   4.537316
N    0.495171   -3.256623   5.030488
H   -0.486321   -1.575570   2.436244
H   -1.754492   -0.346504   2.387995
H   -1.457414    0.193362   4.749945
H    0.080043   -0.651430   4.842070
H   -2.641767   -2.012066   4.469297
H   -1.713815   -1.892163   5.972827
H   -0.965689   -3.462730   3.449362
H   -1.417250   -4.092549   5.032237
H    1.102223   -2.721167   4.406394
H    0.870506   -4.203975   5.042986
O    2.099636   -1.096946   2.793319
H    0.924692    1.219065   0.604247
