 24
Energy: -13526.64057215.7 eV PBE+vdW (tier 2 basis)
N    0.163130   -0.591239  -0.197340
C   -0.058089   -0.058272   1.160647
C    1.045746   -0.602276   2.101781
O    0.998328   -0.529355   3.309036
H   -0.108818    0.080508  -0.912851
H   -0.386789   -1.437281  -0.352428
H    0.174644    1.018943   1.111357
C   -1.479984   -0.177031   1.739952
C   -2.205859   -1.529232   1.642801
C   -1.653400   -2.693849   2.489193
C   -0.620136   -3.593886   1.808117
N   -1.233942   -4.401198   0.740463
H   -2.102280    0.575724   1.231391
H   -1.420643    0.127367   2.795082
H   -2.304929   -1.832042   0.584155
H   -3.242069   -1.336656   1.956852
H   -2.492057   -3.340931   2.786614
H   -1.216233   -2.290756   3.414093
H   -0.226846   -4.294868   2.558541
H    0.251052   -3.003213   1.469947
H   -1.615782   -3.809842   0.000955
H   -0.534998   -4.997721   0.297647
O    2.104900   -1.103894   1.434800
H    1.819055   -1.053998   0.479199
