 24
Energy: -13526.66753515.7 eV PBE+vdW (tier 2 basis)
N    0.563598    0.536059  -0.364129
C   -0.384166    0.467189   0.751453
C    0.121856    1.106500   2.045352
O   -0.444996    1.979523   2.670889
H    0.814986    1.504148  -0.566328
H    1.428041    0.047950  -0.124510
H   -1.267957    1.056603   0.471842
C   -0.797749   -0.996396   0.989736
C   -1.779263   -1.231506   2.142568
C   -3.130148   -0.523783   1.991952
C   -4.163284   -0.959625   3.034481
N   -4.514237   -2.379181   2.877946
H    0.115915   -1.586631   1.164639
H   -1.226072   -1.356562   0.041951
H   -1.318601   -0.924580   3.097132
H   -1.960367   -2.311984   2.230789
H   -3.537324   -0.717028   0.983021
H   -3.005590    0.566979   2.068939
H   -5.034726   -0.279059   2.978823
H   -3.734150   -0.834498   4.041142
H   -5.093617   -2.694422   3.655302
H   -5.068206   -2.514479   2.030930
O    1.322497    0.587140   2.443348
H    1.555871    1.057860   3.266382
