 24
Energy: -13526.69530515.7 eV PBE+vdW (tier 2 basis)
N   -0.255313    0.487576   0.359395
C    0.039011   -0.190197   1.617804
C    1.492768   -0.652823   1.723788
O    2.208878   -0.934418   0.784397
H    0.134349   -0.059717  -0.411825
H    0.216917    1.391344   0.326867
H   -0.150705    0.509629   2.445755
C   -0.878979   -1.419393   1.807557
C   -2.351396   -1.034425   1.963699
C   -3.313054   -2.228604   1.923546
C   -3.114494   -3.276086   3.024200
N   -3.213497   -2.672977   4.360386
H   -0.536650   -1.980705   2.688912
H   -0.745487   -2.081628   0.934546
H   -2.617172   -0.332291   1.161183
H   -2.477940   -0.499299   2.916952
H   -3.234329   -2.737625   0.948762
H   -4.347991   -1.849792   1.978863
H   -2.111360   -3.721652   2.938769
H   -3.833419   -4.101191   2.852154
H   -4.160719   -2.327672   4.523725
H   -3.030610   -3.368376   5.083252
O    1.908812   -0.746617   3.018985
H    2.823510   -1.089390   2.984936
