 24
Energy: -13526.77771115.7 eV PBE+vdW (tier 2 basis)
N   -0.118572   -0.092394  -0.481954
C   -0.461797    0.286831   0.905025
C    0.838386    0.652059   1.667288
O    1.923131    0.699479   0.873696
H    1.555218    0.453955  -0.024653
H   -0.767454    0.309828  -1.154835
H   -1.031204    1.228207   0.860967
C   -1.291156   -0.739707   1.691408
C   -0.609772   -2.098889   1.876518
C   -1.444541   -3.074066   2.709973
C   -0.773967   -4.439416   2.943778
N    0.459465   -4.458207   3.733360
H   -2.262530   -0.866930   1.187070
H   -1.498658   -0.305737   2.679829
H    0.367496   -1.941577   2.360677
H   -0.400502   -2.569913   0.898707
H   -2.417050   -3.240665   2.215223
H   -1.672639   -2.613919   3.686584
H   -0.551342   -4.908307   1.971161
H   -1.494955   -5.106238   3.440769
H    0.306761   -4.035663   4.650198
H    1.195522   -3.914375   3.282907
O    0.867654    0.891090   2.854523
H   -0.139312   -1.105105  -0.603645
