 24
Energy: -13526.70798815.7 eV PBE+vdW (tier 2 basis)
N    1.059185    1.103027   2.361185
C    0.284221   -0.122927   2.074673
C   -0.108681   -0.124623   0.585216
O    0.471940    0.857162  -0.124951
H    0.998352    1.349536   0.573406
H    1.865878    0.907975   2.950718
H    0.967277   -0.987806   2.155729
C   -0.927541   -0.383016   3.002810
C   -0.915371   -1.722888   3.758271
C   -1.234841   -2.978258   2.913893
C   -0.048479   -3.892090   2.599798
N    0.942886   -3.232541   1.737790
H   -1.859706   -0.308957   2.424214
H   -0.955324    0.430558   3.744649
H   -1.657958   -1.646215   4.566374
H    0.059383   -1.848742   4.258361
H   -1.709567   -2.675484   1.967408
H   -1.979054   -3.589716   3.445319
H   -0.443182   -4.831231   2.165827
H    0.456217   -4.170028   3.539567
H    0.514063   -3.000697   0.838739
H    1.722265   -3.860600   1.542915
O   -0.836088   -0.961339   0.086961
H    0.489125    1.797900   2.844128
