 24
Energy: -13526.60668015.7 eV PBE+vdW (tier 2 basis)
N    0.711250   -0.526096  -0.075166
C    0.045395   -0.231409   1.194385
C    1.033844    0.331807   2.204999
O    0.777148    1.181786   3.030762
H    0.033422   -0.866096  -0.756713
H    1.412584   -1.257570   0.048584
H   -0.673254    0.581931   1.014448
C   -0.715161   -1.402739   1.874559
C   -1.903275   -1.910823   1.056339
C   -2.651287   -3.059020   1.738104
C   -3.848932   -3.560081   0.932864
N   -4.495106   -4.691252   1.610406
H   -1.070240   -1.061822   2.860326
H   -0.004015   -2.224845   2.059229
H   -1.557818   -2.250732   0.065226
H   -2.598249   -1.074208   0.870106
H   -2.996921   -2.728710   2.733075
H   -1.969766   -3.905350   1.916440
H   -3.500904   -3.917947  -0.049110
H   -4.530455   -2.708227   0.732105
H   -4.911452   -4.385533   2.491398
H   -5.259439   -5.059256   1.044096
O    2.250650   -0.279693   2.132803
H    2.793861    0.124239   2.836823
