 24
Energy: -13526.62515815.7 eV PBE+vdW (tier 2 basis)
N   -0.220546   -0.423921  -0.755769
C   -0.050331   -0.230042   0.680160
C    1.352506   -0.453594   1.265081
O    1.705188   -0.072729   2.362277
H    0.050605   -1.369719  -1.025021
H    0.389694    0.205348  -1.276646
H   -0.271587    0.825056   0.903351
C   -1.057457   -1.079737   1.485319
C   -0.927812   -2.593332   1.279013
C   -1.776675   -3.407763   2.265806
C   -1.190639   -3.482017   3.680730
N    0.094575   -4.194679   3.678521
H   -2.065833   -0.749340   1.194548
H   -0.923952   -0.826189   2.546660
H    0.120328   -2.910977   1.393877
H   -1.229300   -2.849749   0.252109
H   -1.893374   -4.435714   1.884162
H   -2.795626   -2.990959   2.323451
H   -1.946449   -3.929135   4.355056
H   -1.000661   -2.467005   4.061418
H    0.567844   -4.090264   4.575011
H   -0.052080   -5.195191   3.538679
O    2.182650   -1.143050   0.429717
H    3.017949   -1.250515   0.925335
