 24
Energy: -13526.45986715.7 eV PBE+vdW (tier 2 basis)
N   -1.094536   -0.371077  -0.462340
C   -0.969385   -0.642078   0.980339
C   -0.718375    0.665899   1.753496
O   -1.605315    1.351499   2.205347
H   -1.826540    0.322374  -0.624205
H   -0.228905    0.025695  -0.833904
H   -1.952932   -0.989307   1.327500
C    0.057792   -1.750420   1.222049
C    0.166796   -2.206512   2.678928
C    1.147450   -3.365897   2.871398
C    1.365114   -3.747228   4.338521
N    2.020168   -2.657070   5.074430
H   -0.227354   -2.592290   0.572689
H    1.054866   -1.437729   0.849050
H   -0.831263   -2.515131   3.032124
H    0.475300   -1.374677   3.329972
H    2.123446   -3.104005   2.424979
H    0.794116   -4.253298   2.321762
H    1.915451   -4.706937   4.381604
H    0.388071   -3.926727   4.813775
H    3.007922   -2.599579   4.823516
H    1.985066   -2.824057   6.079161
O    0.579389    1.100797   1.826198
H    1.170658    0.401755   1.491613
