 24
Energy: -13526.70448815.7 eV PBE+vdW (tier 2 basis)
N   -0.114167    1.132798   1.533350
C    1.021239    0.235318   1.709269
C    2.137507    0.457516   0.682206
O    2.030491    1.079831  -0.353833
H   -0.377986    1.162495   0.546563
H    0.159295    2.087538   1.767064
H    1.459982    0.429008   2.699839
C    0.576484   -1.246092   1.695464
C   -0.019070   -1.727768   0.370287
C   -0.443378   -3.198666   0.413490
C   -1.049109   -3.695693  -0.907257
N   -1.478280   -5.096510  -0.947544
H   -0.168463   -1.354941   2.497383
H    1.439293   -1.873689   1.964135
H    0.710251   -1.584850  -0.444904
H   -0.894488   -1.110610   0.110593
H   -1.177010   -3.347670   1.224425
H    0.427298   -3.827187   0.669080
H   -0.321768   -3.546581  -1.721408
H   -1.920361   -3.072867  -1.166078
H   -2.179339   -5.274960  -0.226846
H   -0.692696   -5.715694  -0.742053
O    3.299882   -0.150608   1.056903
H    3.939393    0.023880   0.338872
