 24
Energy: -13526.75779415.7 eV PBE+vdW (tier 2 basis)
N   -0.520658    0.112017   0.675975
C    0.677459   -0.268206   1.454495
C    1.905611   -0.299210   0.509242
O    1.644096    0.193506  -0.715372
H   -1.088041   -0.707508   0.455782
H    0.672336    0.426906  -0.662295
H    0.888610    0.551239   2.161565
C    0.557963   -1.577442   2.242050
C   -0.447350   -1.523051   3.393774
C   -0.540713   -2.843516   4.164535
C   -1.605575   -2.854456   5.262579
N   -1.291795   -1.901222   6.336165
H    1.558044   -1.830093   2.621264
H    0.286852   -2.386534   1.540525
H   -1.449621   -1.257967   3.012254
H   -0.150399   -0.711892   4.079833
H    0.436238   -3.073376   4.617617
H   -0.765085   -3.658878   3.457024
H   -1.633605   -3.856621   5.714144
H   -2.601270   -2.691066   4.799956
H   -1.901467   -2.055657   7.138508
H   -1.458590   -0.941628   6.032842
O    2.995714   -0.702839   0.847872
H   -1.114752    0.764493   1.182667
