 24
Energy: -13526.69101415.7 eV PBE+vdW (tier 2 basis)
N    1.453388   -2.689235   3.247241
C    0.950859   -1.671798   2.299791
C    2.117274   -1.206352   1.391406
O    3.229185   -1.950108   1.533782
H    1.623045   -2.281245   4.167365
H    2.972875   -2.608182   2.242652
H    0.246031   -2.175180   1.616861
C    0.241497   -0.472712   2.937775
C   -1.095633   -0.829872   3.596149
C   -1.884277    0.362118   4.166737
C   -1.530220    0.790860   5.602414
N   -0.199204    1.343685   5.869717
H    0.083239    0.276525   2.149286
H    0.930538   -0.003880   3.659798
H   -0.943793   -1.574729   4.397356
H   -1.716223   -1.334133   2.837097
H   -2.956323    0.105616   4.165358
H   -1.784275    1.228096   3.490368
H   -1.666565   -0.069908   6.277293
H   -2.266975    1.542729   5.926081
H    0.528714    0.645632   5.724153
H    0.007015    2.118871   5.238216
O    2.026934   -0.281710   0.614782
H    0.793897   -3.454087   3.372323
