 24
Energy: -13526.49940415.7 eV PBE+vdW (tier 2 basis)
N    0.221676    1.744676   1.380494
C    0.464307    0.379277   1.835259
C    1.871996   -0.008704   1.413190
O    2.437838    0.390867   0.417804
H   -0.762603    1.988574   1.476614
H    0.472180    1.826356   0.393382
H    0.430708    0.367640   2.936687
C   -0.503598   -0.725778   1.322880
C   -1.974506   -0.489058   1.731422
C   -2.867984    0.185962   0.671293
C   -3.527338   -0.774168  -0.323014
N   -2.554906   -1.460550  -1.187101
H   -0.155991   -1.687683   1.729021
H   -0.415881   -0.785148   0.227863
H   -1.992452    0.107735   2.657944
H   -2.432364   -1.452170   2.009933
H   -2.289692    0.932468   0.105554
H   -3.678059    0.731023   1.180686
H   -4.188366   -0.190492  -0.980419
H   -4.182026   -1.469462   0.241989
H   -2.060713   -2.189481  -0.671148
H   -3.038158   -1.935355  -1.949384
O    2.426603   -0.918769   2.262739
H    3.295739   -1.146406   1.878483
