 24
Energy: -13526.70136315.7 eV PBE+vdW (tier 2 basis)
N   -1.361040    0.752671   2.174333
C   -0.278100   -0.130573   1.695651
C   -0.691516   -0.748820   0.335577
O   -0.054178   -1.615332  -0.221085
H   -1.004498    1.620127   2.568657
H   -1.916848    0.293947   2.897179
H    0.592607    0.504667   1.462458
C    0.161128   -1.225441   2.676252
C    0.882398   -0.687051   3.915056
C    1.154218   -1.705348   5.031950
C    2.131442   -2.854110   4.705280
N    1.637816   -4.002304   3.941330
H   -0.728401   -1.808771   2.973723
H    0.802575   -1.913168   2.109978
H    0.290367    0.137346   4.347712
H    1.838702   -0.234403   3.600336
H    0.200405   -2.138985   5.380303
H    1.563039   -1.152253   5.893828
H    2.524605   -3.247301   5.655534
H    3.004050   -2.447879   4.168232
H    1.349943   -3.737344   3.000857
H    0.822015   -4.415541   4.393965
O   -1.812586   -0.208421  -0.173722
H   -2.083144    0.453285   0.526616
