 24
Energy: -13526.69065215.7 eV PBE+vdW (tier 2 basis)
N   -1.213886    1.041769   1.429422
C   -0.134608    0.060752   1.668842
C   -0.377369   -1.151189   0.732850
O    0.123889   -2.244626   0.889486
H   -0.892371    1.994480   1.592379
H   -1.998420    0.877059   2.062656
H    0.796805    0.524471   1.300541
C    0.071864   -0.376065   3.128736
C    1.494988   -0.870802   3.437553
C    1.607819   -1.664656   4.751858
C    1.507974   -3.193773   4.574600
N    0.312876   -3.745810   3.937663
H   -0.156559    0.482357   3.780711
H   -0.662222   -1.158594   3.372127
H    2.163137    0.004415   3.465556
H    1.847456   -1.500550   2.607437
H    0.837824   -1.322437   5.465059
H    2.575823   -1.450265   5.232924
H    1.617909   -3.668687   5.562702
H    2.372388   -3.530983   3.980293
H   -0.533911   -3.466381   4.433244
H    0.224812   -3.427990   2.970429
O   -1.195037   -0.865912  -0.295469
H   -1.493180    0.068418  -0.100600
