 24
Energy: -13526.57969715.7 eV PBE+vdW (tier 2 basis)
N   -0.187321    0.752255  -0.096045
C   -0.042078    0.394946   1.312213
C    1.428084    0.500005   1.679324
O    2.365624    0.272742   0.938615
H   -1.097856    0.463016  -0.451297
H    0.529941    0.281581  -0.649877
H   -0.553597    1.159520   1.916824
C   -0.634519   -0.981152   1.773161
C   -0.488989   -2.172214   0.814445
C    0.904809   -2.763786   0.548580
C    1.588054   -3.453143   1.734052
N    2.140044   -2.484199   2.694783
H   -1.712842   -0.811550   1.921284
H   -0.216589   -1.227559   2.758700
H   -0.930692   -1.899821  -0.158262
H   -1.134117   -2.976919   1.205270
H    1.582729   -1.998450   0.140378
H    0.792232   -3.516133  -0.248068
H    2.351244   -4.151166   1.337451
H    0.850548   -4.072071   2.270774
H    2.556744   -2.971325   3.488399
H    2.891226   -1.954510   2.248503
O    1.589368    0.879722   2.972026
H    2.549428    0.846600   3.146843
