 24
Energy: -13526.63359215.7 eV PBE+vdW (tier 2 basis)
N    0.877098    0.025120   0.261740
C    0.598351   -0.234144   1.667423
C    1.837615   -0.654737   2.472091
O    2.957739   -0.795258   2.030290
H    1.249383   -0.816649  -0.180955
H    1.616965    0.722787   0.175336
H    0.259473    0.711972   2.122548
C   -0.541658   -1.255148   1.843734
C   -0.201111   -2.675456   1.364523
C   -1.185485   -3.750343   1.860991
C   -0.843889   -4.359006   3.225395
N   -0.909590   -3.388619   4.329085
H   -1.405301   -0.875338   1.279169
H   -0.841008   -1.273388   2.898468
H    0.818545   -2.954397   1.686632
H   -0.177712   -2.688431   0.264384
H   -1.209741   -4.578254   1.135799
H   -2.204842   -3.333801   1.895855
H    0.141345   -4.863102   3.143681
H   -1.578234   -5.148565   3.443271
H   -0.878587   -3.876138   5.224124
H   -0.102333   -2.763281   4.317498
O    1.551019   -0.849362   3.797435
H    2.403068   -1.075851   4.219084
