 24
Energy: -13526.86631115.7 eV PBE+vdW (tier 2 basis)
N    0.027994   -0.686997  -0.066343
C   -0.228799   -0.053244   1.235733
C    0.868391   -0.518152   2.223745
O    0.798703   -0.398721   3.427922
H   -0.325406   -0.127939  -0.839977
H   -0.388850   -1.630842  -0.112702
H   -0.005505    1.020954   1.114792
C   -1.654704   -0.143654   1.821693
C   -2.444176   -1.447060   1.627535
C   -2.025458   -2.695080   2.422280
C   -0.750083   -3.425713   1.985650
N   -0.700555   -3.624094   0.523418
H   -2.247599    0.661657   1.361873
H   -1.578840    0.098347   2.892300
H   -2.491560   -1.694833   0.555298
H   -3.482422   -1.220928   1.914483
H   -2.862441   -3.411965   2.366768
H   -1.917836   -2.440359   3.487838
H   -0.693135   -4.374442   2.550047
H    0.143576   -2.856981   2.270194
H   -1.483080   -4.206157   0.217997
H    0.148134   -4.131513   0.270744
O    1.943785   -1.030653   1.593315
H    1.652869   -1.018630   0.630397
