 24
Energy: -13526.67304115.7 eV PBE+vdW (tier 2 basis)
N    1.829975   -0.729815   0.984400
C    0.516931   -0.270267   1.487501
C    0.448881    1.275106   1.387351
O    1.492278    1.812070   0.728004
H    2.461709   -0.951195   1.754570
H    2.048578    1.013119   0.497292
H   -0.248645   -0.625458   0.780134
C    0.132980   -0.761873   2.890879
C    1.072311   -0.287712   4.008746
C    0.722752   -0.852876   5.398936
C    1.410637   -2.169617   5.769006
N    1.031265   -3.290465   4.891993
H    0.062490   -1.859163   2.875564
H   -0.878785   -0.390260   3.106231
H    1.035236    0.811007   4.043302
H    2.125007   -0.542119   3.782607
H   -0.368063   -0.980823   5.478775
H    1.007354   -0.114910   6.164259
H    1.106473   -2.441403   6.790266
H    2.505872   -1.997558   5.805993
H    1.323310   -4.173875   5.309921
H    1.521402   -3.231376   3.998746
O   -0.465475    1.930843   1.835413
H    1.741526   -1.565379   0.410114
