 24
Energy: -13526.63772115.7 eV PBE+vdW (tier 2 basis)
N    0.560345   -0.534499  -0.284767
C    0.663359   -0.281672   1.154705
C    1.989877   -0.779953   1.732306
O    2.459968   -1.885742   1.552671
H    0.719122   -1.528942  -0.462917
H    1.294595   -0.033167  -0.786825
H    0.609064    0.804695   1.315126
C   -0.512042   -0.955673   1.882200
C   -0.535468   -0.730403   3.397423
C   -1.721045   -1.383085   4.127435
C   -3.050982   -0.624745   4.077467
N   -3.609147   -0.546598   2.719476
H   -0.466499   -2.038279   1.674160
H   -1.435654   -0.575514   1.428741
H   -0.533461    0.352149   3.609849
H    0.394404   -1.123825   3.838474
H   -1.459652   -1.499692   5.190710
H   -1.870329   -2.409217   3.747303
H   -2.883809    0.408151   4.422619
H   -3.739984   -1.090801   4.810087
H   -3.867744   -1.478363   2.390328
H   -4.465749    0.007088   2.717514
O    2.619162    0.168137   2.486395
H    3.439786   -0.251016   2.814310
