 24
Energy: -13526.46625915.7 eV PBE+vdW (tier 2 basis)
N   -0.337639    1.099476   0.193510
C   -0.015854    0.719385   1.578446
C    1.507976    0.654124   1.690046
O    2.179097    1.425261   2.346351
H   -1.347149    1.046056   0.054202
H   -0.061888    2.065445   0.013633
H   -0.305974    1.484999   2.321840
C   -0.738043   -0.593758   1.922031
C   -0.678775   -1.022630   3.397387
C    0.635097   -1.631769   3.917605
C    0.887412   -3.097626   3.552666
N    0.947583   -3.321864   2.102281
H   -0.385152   -1.400452   1.268373
H   -1.797704   -0.422661   1.666491
H   -1.483673   -1.755823   3.565842
H   -0.932727   -0.152102   4.024519
H    0.627692   -1.574959   5.017222
H    1.500450   -1.023380   3.611665
H    1.799169   -3.427335   4.090657
H    0.057879   -3.708532   3.945826
H    1.667842   -2.736084   1.676690
H    1.189625   -4.291052   1.898614
O    2.068483   -0.344718   0.950990
H    3.032622   -0.234822   1.064756
