 24
Energy: -13526.58468515.7 eV PBE+vdW (tier 2 basis)
N    0.005956   -0.738950  -0.680119
C   -0.058072   -0.344333   0.730504
C    1.350551    0.078499   1.119622
O    2.355527   -0.553937   0.867763
H    0.770287   -1.406133  -0.805726
H   -0.857663   -1.212856  -0.946692
H   -0.709797    0.537468   0.819069
C   -0.599027   -1.446771   1.680418
C   -0.818452   -1.046252   3.148361
C    0.399159   -1.236762   4.059489
C    0.165050   -0.779989   5.500986
N   -0.128538    0.658818   5.561280
H    0.066610   -2.322767   1.609207
H   -1.562278   -1.754704   1.244081
H   -1.645553   -1.649188   3.555909
H   -1.156005   -0.000754   3.208850
H    1.273466   -0.698665   3.659353
H    0.687410   -2.300144   4.072218
H    1.037014   -1.083560   6.113106
H   -0.707756   -1.311315   5.913774
H   -0.315032    0.948718   6.520774
H    0.678540    1.198419   5.244448
O    1.373648    1.255519   1.802470
H    2.314851    1.424940   2.006699
