 24
Energy: -13526.59827215.7 eV PBE+vdW (tier 2 basis)
N    0.295743   -0.406000  -0.183741
C    0.064311   -0.180555   1.243988
C    1.385041   -0.083238   1.992801
O    1.601999    0.647694   2.935617
H    0.746554   -1.309290  -0.335874
H   -0.592580   -0.421010  -0.683913
H   -0.403317    0.808597   1.355874
C   -0.826264   -1.216697   1.984070
C   -2.262451   -1.257115   1.459240
C   -3.141148   -2.321922   2.130423
C   -3.406262   -2.102991   3.624058
N   -4.055126   -0.807609   3.863438
H   -0.827391   -0.957671   3.053759
H   -0.358860   -2.212117   1.893121
H   -2.254977   -1.456287   0.375470
H   -2.726225   -0.269047   1.600812
H   -2.686729   -3.318018   2.001592
H   -4.109897   -2.363979   1.604183
H   -2.454473   -2.100979   4.176352
H   -3.981454   -2.969536   4.004974
H   -5.009967   -0.814196   3.501831
H   -4.123350   -0.616298   4.862264
O    2.308024   -0.975190   1.528805
H    3.097478   -0.855648   2.091127
