 24
Energy: -13526.58356415.7 eV PBE+vdW (tier 2 basis)
N   -0.895682    0.084344   0.291446
C   -0.310992   -0.106367   1.616649
C    1.216326   -0.030405   1.735966
O    1.815530    0.157794   2.775122
H   -0.536740   -0.603931  -0.369523
H   -0.638958    0.998997  -0.080016
H   -0.674697    0.717123   2.249586
C   -0.798730   -1.416403   2.287954
C   -0.112749   -2.729016   1.879383
C   -0.283039   -3.170441   0.419874
C    0.175481   -4.607313   0.162868
N    1.626195   -4.754478   0.351374
H   -1.879405   -1.474559   2.089939
H   -0.673042   -1.293900   3.372680
H   -0.520995   -3.520301   2.531211
H    0.959803   -2.665302   2.125781
H    0.294931   -2.513428  -0.248600
H   -1.343837   -3.086256   0.133492
H   -0.046046   -4.868879  -0.882143
H   -0.426887   -5.292579   0.794757
H    1.869480   -4.695214   1.340596
H    1.931888   -5.675907   0.039415
O    1.855079   -0.223507   0.546993
H    2.809985   -0.202680   0.753109
