 24
Energy: -13526.79011315.7 eV PBE+vdW (tier 2 basis)
N    0.364417    0.907926   0.767318
C    0.223976    0.109251   2.003283
C    1.615953   -0.437755   2.412875
O    1.782239   -1.217355   3.325232
H   -0.184006    1.764171   0.807089
H    0.050028    0.379156  -0.047047
H   -0.051941    0.798711   2.816364
C   -0.818836   -1.017725   1.951178
C   -0.572130   -2.051155   0.849508
C   -1.590361   -3.193835   0.866095
C   -1.457264   -4.147600  -0.323834
N   -1.768434   -3.461890  -1.588118
H   -1.816417   -0.565989   1.826700
H   -0.812465   -1.514908   2.931947
H    0.440600   -2.471758   0.962226
H   -0.609720   -1.587041  -0.149440
H   -2.613933   -2.778654   0.877681
H   -1.487474   -3.770705   1.798728
H   -2.083872   -5.041218  -0.139981
H   -0.417088   -4.503044  -0.387922
H   -2.773352   -3.296500  -1.661471
H   -1.514103   -4.044839  -2.384885
O    2.620598    0.062205   1.671478
H    2.143674    0.658332   1.022682
