 24
Energy: -13526.58173215.7 eV PBE+vdW (tier 2 basis)
N   -0.308890   -0.050944  -0.011934
C    0.098376   -0.370013   1.353570
C    1.506619   -0.944811   1.527288
O    2.231202   -0.740252   2.478548
H    0.338331    0.613280  -0.436089
H   -0.290146   -0.889635  -0.593781
H    0.107810    0.562043   1.937671
C   -0.896058   -1.353078   2.009606
C   -2.349041   -0.863888   2.090951
C   -2.570695    0.401617   2.940857
C   -2.649174    1.696932   2.129839
N   -2.774775    2.856373   3.021956
H   -0.527789   -1.580400   3.021586
H   -0.864199   -2.300682   1.446316
H   -2.938004   -1.693107   2.509551
H   -2.736624   -0.698560   1.074416
H   -1.777664    0.505160   3.698913
H   -3.510885    0.297852   3.507141
H   -3.475912    1.600626   1.397050
H   -1.734866    1.828345   1.534061
H   -2.801960    3.722031   2.483207
H   -3.653995    2.812231   3.540188
O    1.871628   -1.759316   0.491134
H    2.759094   -2.095631   0.722005
