 24
Energy: -13526.65379515.7 eV PBE+vdW (tier 2 basis)
N    0.718645   -0.336167  -0.175055
C    0.117727    0.077602   1.092848
C    1.154482    0.291649   2.196698
O    2.132163   -0.404842   2.381851
H    1.337262   -1.134516  -0.012853
H    1.310123    0.409682  -0.543637
H   -0.412040    1.025101   0.925232
C   -0.896497   -0.995048   1.544010
C   -1.788802   -0.639578   2.740547
C   -2.649519    0.629518   2.622671
C   -3.647767    0.675951   1.457339
N   -3.036185    1.115843   0.190888
H   -0.338650   -1.917589   1.773096
H   -1.505629   -1.230913   0.658699
H   -1.169759   -0.551433   3.647461
H   -2.452337   -1.500744   2.921619
H   -2.014301    1.526166   2.566564
H   -3.220064    0.719595   3.560503
H   -4.422313    1.416799   1.702349
H   -4.167125   -0.301438   1.382750
H   -2.514685    0.361832  -0.256889
H   -3.761700    1.388544  -0.471520
O    0.861557    1.366567   2.983293
H    1.560590    1.399230   3.666416
