 24
Energy: -13526.84568915.7 eV PBE+vdW (tier 2 basis)
N   -1.089917    0.927250   2.852868
C    0.248553    0.347338   2.848855
C    1.305596    1.172248   2.087859
O    2.582246    0.844746   2.370883
H   -1.084775    1.798331   3.385565
H    2.600874    0.097576   3.053702
H    0.582809    0.293648   3.896312
C    0.193315   -1.088424   2.269445
C   -0.221571   -2.152767   3.294255
C    0.917650   -2.812392   4.089130
C    1.795518   -1.931191   4.986783
N    2.846301   -1.200708   4.234256
H    1.159273   -1.359926   1.818406
H   -0.530625   -1.064014   1.441678
H   -0.756138   -2.962002   2.774089
H   -0.957557   -1.710400   3.984682
H    1.576362   -3.364984   3.395212
H    0.470059   -3.582129   4.736419
H    2.245444   -2.568543   5.767443
H    1.177045   -1.185611   5.509018
H    3.426311   -1.876068   3.730453
H    3.474826   -0.735675   4.892895
O    1.027489    2.037757   1.283412
H   -1.322087    1.204941   1.895378
