 24
Energy: -13526.75187515.7 eV PBE+vdW (tier 2 basis)
N   -0.190477   -0.338349  -0.372825
C   -0.559913   -0.632737   1.025553
C    0.111957    0.418373   1.941199
O   -0.172971    0.574732   3.110594
H   -0.899045    0.225659  -0.840214
H   -0.068977   -1.193510  -0.913799
H   -1.646424   -0.568652   1.195592
C   -0.067160   -2.035395   1.436221
C   -0.677455   -2.549330   2.748241
C    0.167007   -3.621761   3.445263
C    1.484775   -3.096565   4.054371
N    1.384690   -2.036632   5.056541
H   -0.310285   -2.736090   0.619734
H    1.032092   -2.010013   1.501531
H   -1.685086   -2.941670   2.542168
H   -0.818417   -1.703994   3.436689
H    0.400563   -4.442440   2.744051
H   -0.432868   -4.073599   4.252192
H    2.149913   -2.728117   3.257324
H    2.017499   -3.946536   4.508657
H    1.006888   -1.176365   4.656457
H    0.759141   -2.309643   5.815510
O    1.082975    1.112157   1.323610
H    1.039577    0.774476   0.381340
