 24
Energy: -13526.65732415.7 eV PBE+vdW (tier 2 basis)
N   -0.441590    0.740471   0.195324
C   -0.089966    0.055274   1.434310
C    1.366441   -0.371143   1.352879
O    2.008231   -0.492429   0.330022
H    0.093115    0.346790  -0.580463
H   -1.433501    0.634924  -0.011433
H   -0.162176    0.764440   2.276244
C   -0.973800   -1.168444   1.806339
C   -0.872612   -2.362053   0.855357
C   -1.859241   -3.479636   1.200640
C   -1.751083   -4.685860   0.269773
N   -2.750822   -5.704204   0.617134
H   -2.014882   -0.806631   1.843027
H   -0.723272   -1.481507   2.831680
H    0.154861   -2.761879   0.871224
H   -1.048601   -2.028521  -0.180418
H   -2.893172   -3.101507   1.165047
H   -1.690095   -3.809729   2.240748
H   -0.706858   -5.059214   0.283151
H   -1.952117   -4.363695  -0.764086
H   -2.715373   -6.480586  -0.043411
H   -2.548135   -6.100050   1.536470
O    1.881828   -0.645610   2.582738
H    2.799095   -0.943298   2.427629
