 24
Energy: -13526.65195015.7 eV PBE+vdW (tier 2 basis)
N    1.154171   -0.532745  -0.023561
C    0.807234    0.123267   1.228482
C    1.970158    0.198171   2.227485
O    3.061119   -0.316540   2.092209
H    1.448900   -1.493750   0.156182
H    1.964766   -0.076456  -0.443083
H    0.575865    1.177469   0.999800
C   -0.487272   -0.470760   1.835515
C   -0.516163   -1.989684   2.059761
C    0.432231   -2.554178   3.128437
C    0.159052   -2.076692   4.558727
N   -1.196778   -2.443437   4.991343
H   -1.292826   -0.218621   1.131724
H   -0.713954    0.059210   2.770793
H   -0.328580   -2.502924   1.103819
H   -1.545709   -2.253340   2.341183
H    0.354575   -3.654823   3.108745
H    1.482392   -2.335341   2.882853
H    0.233942   -0.980473   4.609043
H    0.959109   -2.472385   5.214861
H   -1.405109   -2.040181   5.904138
H   -1.274250   -3.456232   5.096967
O    1.661178    0.973710   3.308818
H    2.462952    0.983003   3.866960
