 24
Energy: -13526.71936115.7 eV PBE+vdW (tier 2 basis)
N    0.075924   -0.459400   0.054753
C   -0.453881    0.143308   1.296772
C    0.618560    1.084903   1.888042
O    1.844038    0.896458   1.356664
H   -0.262761   -1.412078  -0.074918
H    1.681065    0.205303   0.652290
H   -1.334718    0.775609   1.106250
C   -0.872011   -0.936808   2.315752
C    0.238022   -1.903374   2.771802
C    1.059102   -1.419943   3.973901
C    2.325867   -2.252114   4.235131
N    3.392709   -2.161145   3.232808
H   -1.695889   -1.503793   1.853286
H   -1.304779   -0.423671   3.186458
H    0.911740   -2.115816   1.924863
H   -0.222646   -2.869791   3.029118
H    0.421268   -1.441941   4.873426
H    1.358396   -0.369052   3.847245
H    2.061339   -3.316524   4.344425
H    2.753611   -1.946202   5.201925
H    3.624715   -1.182584   3.052074
H    3.092055   -2.553837   2.340645
O    0.385983    1.896382   2.755699
H   -0.202265    0.077412  -0.765595
