 24
Energy: -13526.56196015.7 eV PBE+vdW (tier 2 basis)
N   -0.376174    0.169025  -0.274600
C    0.127477   -0.147919   1.061263
C    1.612491   -0.484272   1.044578
O    2.333683   -0.435482   2.018967
H   -1.387978    0.296699  -0.242208
H   -0.185049   -0.588959  -0.929201
H    0.060880    0.767628   1.668864
C   -0.627999   -1.258062   1.847040
C   -0.570069   -2.653350   1.218850
C   -1.331667   -3.732688   2.000090
C   -2.851681   -3.569111   2.005170
N   -3.487189   -4.722033   2.658408
H   -1.671644   -0.919301   1.940514
H   -0.217840   -1.292929   2.868573
H    0.482191   -2.966908   1.133982
H   -0.958283   -2.616420   0.187089
H   -0.964901   -3.755027   3.041346
H   -1.103390   -4.721520   1.575101
H   -3.211852   -3.537668   0.964086
H   -3.126024   -2.598367   2.462595
H   -3.218819   -4.760299   3.643241
H   -4.502814   -4.627160   2.642564
O    2.053808   -0.906347  -0.173170
H    2.999600   -1.118907  -0.051115
