 24
Energy: -13526.48072715.7 eV PBE+vdW (tier 2 basis)
N    3.184449   -2.198440   3.111979
C    1.786012   -1.877734   2.845250
C    1.391570   -1.735921   1.360431
O    2.402951   -1.383756   0.515287
H    3.565021   -2.978607   2.583182
H    3.225238   -1.379368   1.047852
H    1.162927   -2.699197   3.231025
C    1.416081   -0.587409   3.608220
C   -0.081166   -0.308708   3.740908
C   -0.367354    1.015117   4.454353
C   -1.854275    1.251489   4.733301
N   -2.373484    0.274512   5.701368
H    1.918639    0.267764   3.121020
H    1.863433   -0.683732   4.610341
H   -0.560329   -1.126714   4.298650
H   -0.552896   -0.297298   2.747214
H    0.014799    1.855777   3.852219
H    0.184064    1.053580   5.411025
H   -2.421271    1.123266   3.798171
H   -1.997099    2.304153   5.046133
H   -3.390173    0.324747   5.754830
H   -2.022830    0.481690   6.637522
O    0.267101   -1.893207   0.946187
H    3.817593   -1.402004   3.116536
