 24
Energy: -13526.67989915.7 eV PBE+vdW (tier 2 basis)
N    0.849984    0.067224   0.835179
C    0.415880    0.131856   2.248944
C    1.317945    1.155042   2.988717
O    2.088178    1.877568   2.154514
H    1.458366   -0.738170   0.680621
H    1.863741    1.500412   1.254239
H   -0.592444    0.577633   2.261145
C    0.359312   -1.235467   2.956377
C   -0.493153   -1.267026   4.231855
C   -0.463978   -2.606380   4.977903
C   -1.065355   -3.788396   4.217706
N   -1.128112   -4.975221   5.082010
H    1.387445   -1.559836   3.191560
H   -0.038386   -1.957095   2.225536
H   -1.536229   -1.016712   3.970101
H   -0.143648   -0.473962   4.904918
H   -1.011579   -2.503049   5.926473
H    0.578772   -2.844161   5.253478
H   -0.502211   -3.959320   3.278556
H   -2.097410   -3.537857   3.922595
H   -1.531585   -5.765407   4.578475
H   -0.186667   -5.260562   5.357052
O    1.321143    1.310719   4.190252
H    0.056994   -0.029834   0.203796
