 24
Energy: -13526.52207615.7 eV PBE+vdW (tier 2 basis)
N   -0.574665   -0.817213  -0.573240
C   -0.552837   -0.653866   0.878397
C    0.185985    0.625125   1.321291
O    1.207575    1.016726   0.809072
H   -1.069335   -0.036593  -1.007848
H    0.385739   -0.764465  -0.922211
H   -1.602328   -0.605282   1.219748
C    0.113781   -1.884647   1.521790
C    0.104823   -1.914643   3.051654
C    0.713487   -3.197908   3.625512
C    0.704148   -3.240415   5.160929
N    1.275763   -4.433988   5.788638
H   -0.406646   -2.765967   1.118865
H    1.152344   -1.936132   1.155738
H   -0.933391   -1.814932   3.416680
H    0.656645   -1.048651   3.452476
H    1.752248   -3.301608   3.268653
H    0.166378   -4.073649   3.236537
H   -0.332016   -3.137838   5.522316
H    1.246817   -2.365492   5.553240
H    2.253092   -4.547852   5.516087
H    0.788894   -5.273532   5.471406
O   -0.365904    1.324830   2.360057
H   -1.177594    0.874993   2.653212
