 24
Energy: -13526.70100215.7 eV PBE+vdW (tier 2 basis)
N    0.669486    0.757751   1.364163
C    0.047436   -0.540563   1.697605
C   -0.870893   -0.981747   0.530041
O   -1.575420   -1.966064   0.577089
H    1.667612    0.769113   1.560344
H    0.243316    1.519042   1.893012
H    0.845529   -1.297104   1.724534
C   -0.726921   -0.555764   3.024076
C    0.130566   -0.450665   4.296921
C    0.618371   -1.784724   4.885150
C    1.610253   -2.588529   4.027831
N    2.186881   -3.777986   4.658907
H   -1.445593    0.280782   2.990214
H   -1.337334   -1.469658   3.047824
H   -0.462938    0.056940   5.071600
H    0.995951    0.211222   4.116361
H   -0.254551   -2.421070   5.109491
H    1.100036   -1.577785   5.855764
H    2.444703   -1.932910   3.724646
H    1.127324   -2.924600   3.098145
H    2.618754   -3.535654   5.552137
H    1.456530   -4.460084   4.867295
O   -0.786787   -0.178724  -0.545321
H   -0.130309    0.518777  -0.253834
