 24
Energy: -13526.58402615.7 eV PBE+vdW (tier 2 basis)
N    3.342949   -1.291563   2.692782
C    1.908991   -1.617271   2.712016
C    1.278095   -0.773938   1.602895
O    0.976432   -1.501458   0.499554
H    3.481687   -0.330841   3.012168
H    0.616473   -0.868816  -0.153981
H    1.808711   -2.674407   2.426812
C    1.179113   -1.349142   4.037040
C   -0.301595   -1.759891   4.031427
C   -1.136706   -1.130881   5.160730
C   -1.794797    0.217342   4.801454
N   -0.940431    1.348723   4.438820
H    1.277399   -0.276621   4.259992
H    1.711128   -1.886724   4.838077
H   -0.363127   -2.857555   4.083825
H   -0.761920   -1.486999   3.065663
H   -0.513116   -1.009764   6.063168
H   -1.946525   -1.821669   5.446648
H   -2.424046    0.531718   5.649371
H   -2.487279    0.052892   3.959709
H   -0.410703    1.170575   3.584428
H   -0.264565    1.550952   5.175792
O    1.072369    0.421758   1.680937
H    3.845463   -1.899417   3.339671
