 24
Energy: -13526.46599515.7 eV PBE+vdW (tier 2 basis)
N   -1.153130   -0.310182  -0.322314
C   -0.996277   -0.664470   1.097221
C   -0.719430    0.584188   1.954999
O   -1.579655    1.200052   2.538387
H   -1.886798    0.391530  -0.430919
H   -0.295495    0.099804  -0.697436
H   -1.971889   -1.031807   1.446012
C    0.037602   -1.782076   1.256009
C    0.176571   -2.306862   2.687555
C    1.237759   -3.399367   2.831327
C    1.391869   -3.944577   4.262719
N    1.861460   -3.016033   5.292823
H   -0.257343   -2.593478   0.574073
H    1.026467   -1.446874   0.881878
H   -0.799101   -2.698294   3.021002
H    0.415020   -1.471741   3.366994
H    2.214410   -3.013478   2.489287
H    0.990815   -4.240473   2.161178
H    2.088354   -4.796513   4.242185
H    0.426077   -4.352565   4.601814
H    1.207535   -2.245086   5.426913
H    2.757092   -2.602407   5.030561
O    0.572247    1.047415   1.967586
H    1.147840    0.407295   1.510146
