 24
Energy: -13526.41721915.7 eV PBE+vdW (tier 2 basis)
N    2.061969   -0.642082   1.601274
C    1.055450   -0.744131   2.670301
C    0.424472    0.616962   2.997062
O    1.202627    1.505545   3.701249
H    1.636140   -0.275222   0.749562
H    2.019439    1.057081   3.987080
H    0.234627   -1.367473   2.291027
C    1.661334   -1.448465   3.889205
C    0.756030   -1.591426   5.124450
C   -0.347993   -2.663296   5.098033
C   -1.570785   -2.417686   4.199906
N   -1.346122   -2.867643   2.816632
H    2.585190   -0.917317   4.194126
H    2.003639   -2.436377   3.546589
H    0.297468   -0.618100   5.368850
H    1.410242   -1.823566   5.978884
H   -0.714375   -2.767492   6.131053
H    0.092600   -3.642165   4.841047
H   -1.796275   -1.341112   4.165052
H   -2.447125   -2.904385   4.668306
H   -1.305730   -3.886934   2.777821
H   -2.124064   -2.583285   2.221025
O   -0.674665    0.962274   2.628314
H    2.819906   -0.003707   1.852154
