 24
Energy: -13526.51294715.7 eV PBE+vdW (tier 2 basis)
N    0.140654    0.609271   0.012096
C   -0.003474    0.181396   1.418060
C    1.410011   -0.138867   1.906030
O    1.850296   -1.210662   2.262308
H    0.715748    1.450190  -0.046180
H   -0.779098    0.845206  -0.361026
H   -0.367878    0.998224   2.077931
C   -0.974442   -1.002560   1.513747
C   -1.754569   -1.102783   2.834853
C   -0.968948   -1.473967   4.105002
C   -0.722342   -2.971360   4.318631
N   -0.029882   -3.598955   3.188408
H   -0.447856   -1.941166   1.304655
H   -1.708759   -0.871594   0.703323
H   -2.558403   -1.843037   2.695982
H   -2.261626   -0.137924   3.005942
H   -1.531554   -1.116344   4.981493
H   -0.007026   -0.939045   4.138032
H   -1.697377   -3.474497   4.433115
H   -0.195549   -3.090287   5.287739
H    0.849630   -3.115582   2.995701
H    0.192869   -4.570733   3.399976
O    2.182352    0.987028   1.887163
H    3.074987    0.706773   2.168111
