 24
Energy: -13526.65519215.7 eV PBE+vdW (tier 2 basis)
N    2.927064   -0.051706   1.481377
C    2.057693   -1.239571   1.582248
C    0.687728   -0.894094   0.962948
O    0.427152    0.429349   0.952006
H    3.421356   -0.022048   0.589839
H    1.281474    0.838588   1.262293
H    2.439144   -2.104376   1.015955
C    1.936751   -1.641688   3.067474
C    0.930766   -2.761061   3.391139
C   -0.439385   -2.253510   3.853171
C   -1.448083   -3.382657   4.053124
N   -2.717252   -2.862876   4.576846
H    1.689465   -0.738394   3.649778
H    2.947378   -1.946598   3.383008
H    1.357555   -3.398635   4.180374
H    0.804208   -3.408998   2.510210
H   -0.860239   -1.538927   3.131998
H   -0.316218   -1.703394   4.803025
H   -0.991156   -4.170184   4.688359
H   -1.655965   -3.848172   3.077666
H   -3.421770   -3.599480   4.607698
H   -2.599228   -2.534310   5.536365
O   -0.086908   -1.725031   0.543497
H    3.628466   -0.042228   2.221601
