 24
Energy: -13526.61138315.7 eV PBE+vdW (tier 2 basis)
N   -0.522804    0.449582   0.203718
C    0.113398    0.125766   1.478147
C    1.619492    0.204488   1.297402
O    2.205901    0.128977   0.236452
H    0.081275    0.155954  -0.565650
H   -1.414887   -0.033887   0.111241
H   -0.152699    0.893888   2.223620
C   -0.269907   -1.245899   2.101923
C    0.181820   -2.467009   1.295804
C   -0.363870   -3.816161   1.788482
C    0.267529   -4.384524   3.063339
N   -0.077377   -3.604356   4.261745
H   -1.369661   -1.250632   2.194432
H    0.119159   -1.304306   3.126274
H    1.283633   -2.515068   1.280702
H   -0.122523   -2.337099   0.244857
H   -0.213313   -4.562821   0.993077
H   -1.458110   -3.747682   1.925143
H    1.364118   -4.359897   2.959193
H   -0.014614   -5.453390   3.140764
H   -1.078240   -3.677410   4.451915
H    0.398437   -3.982220   5.081076
O    2.266951    0.339361   2.486500
H    3.219815    0.340063   2.272190
