 24
Energy: -13526.76574315.7 eV PBE+vdW (tier 2 basis)
N   -0.682124    1.378921   2.814213
C   -0.696049   -0.007110   2.355187
C    0.586676   -0.712175   2.814095
O    0.526500   -2.054034   2.795710
H    0.295028    1.642065   2.973429
H   -0.393353   -2.355973   2.495538
H   -1.529066   -0.533434   2.852470
C   -0.864240   -0.188332   0.819018
C   -2.327695   -0.210949   0.348158
C   -3.008388   -1.589953   0.308266
C   -3.158118   -2.373934   1.618409
N   -1.919800   -3.092557   2.008836
H   -0.363151   -1.108101   0.481021
H   -0.321982    0.640667   0.340445
H   -2.380575    0.198218  -0.672223
H   -2.928866    0.472433   0.971087
H   -2.485844   -2.230636  -0.424154
H   -4.021057   -1.449989  -0.099833
H   -4.001119   -3.077560   1.508083
H   -3.422854   -1.693011   2.441027
H   -1.658808   -3.741704   1.262680
H   -2.109028   -3.674810   2.827564
O    1.590584   -0.115551   3.147777
H   -1.062673    2.006509   2.107199
