 24
Energy: -13526.56556715.7 eV PBE+vdW (tier 2 basis)
N   -0.032187   -0.824356  -0.432851
C   -0.063950   -0.346776   0.951195
C    1.293591   -0.661401   1.561638
O    1.892811   -1.705763   1.411968
H    0.320907   -1.783743  -0.447616
H   -0.977187   -0.841191  -0.817239
H   -0.181974    0.744685   0.940466
C   -1.181440   -0.991237   1.819946
C   -1.341860   -0.508245   3.273256
C   -2.193530    0.752141   3.482161
C   -1.623666    2.055546   2.920212
N   -2.471574    3.187558   3.317059
H   -0.996095   -2.076669   1.811943
H   -2.129993   -0.835041   1.279321
H   -0.352329   -0.366405   3.736435
H   -1.815417   -1.322926   3.840840
H   -2.338173    0.886055   4.567916
H   -3.201197    0.599788   3.063497
H   -1.626841    2.025473   1.820047
H   -0.563955    2.152667   3.230050
H   -2.129995    4.054410   2.902127
H   -2.435291    3.317903   4.329370
O    1.765298    0.353827   2.335906
H    2.614409    0.037006   2.703425
