 24
Energy: -13526.60675915.7 eV PBE+vdW (tier 2 basis)
N   -0.505336    0.844218   0.431444
C   -0.107536    0.249668   1.709344
C    1.403759    0.248098   1.868330
O    1.991541    0.385589   2.920702
H   -0.157156    0.281630  -0.346436
H   -1.522703    0.857965   0.358424
H   -0.469824    0.910659   2.509399
C   -0.611697   -1.193372   1.989335
C   -2.138075   -1.330532   2.046517
C   -2.839485   -0.485635   3.121021
C   -2.369857   -0.737861   4.557746
N   -2.520478   -2.151701   4.926270
H   -0.173067   -1.544657   2.935508
H   -0.219816   -1.854929   1.200412
H   -2.367672   -2.390454   2.223609
H   -2.572227   -1.086060   1.063287
H   -3.923826   -0.678899   3.060947
H   -2.725155    0.590025   2.909336
H   -2.910139   -0.040406   5.227177
H   -1.302649   -0.486112   4.652224
H   -2.109906   -2.330057   5.842095
H   -3.508757   -2.398473   4.997594
O    2.050237    0.001282   0.693312
H    3.001794   -0.016202   0.912577
