 24
Energy: -13526.62326615.7 eV PBE+vdW (tier 2 basis)
N    0.583689   -1.048941  -0.082397
C   -0.167313   -0.253395   0.905274
C    0.790595    0.593826   1.740539
O    0.961343    1.790741   1.618411
H    1.170619   -0.441872  -0.656692
H    1.209135   -1.701304   0.394508
H   -0.778748    0.468808   0.345468
C   -1.090199   -1.172317   1.717524
C   -2.183424   -0.476625   2.537871
C   -1.706912    0.338769   3.745304
C   -2.851122    0.788196   4.659232
N   -3.516469   -0.363441   5.285961
H   -0.479627   -1.814780   2.372555
H   -1.562719   -1.837974   0.980175
H   -2.878863   -1.245346   2.904123
H   -2.774896    0.176289   1.873122
H   -1.159084    1.237043   3.422690
H   -0.991077   -0.259373   4.336020
H   -3.606793    1.318994   4.058678
H   -2.457403    1.523093   5.387740
H   -2.905275   -0.786914   5.985670
H   -4.359467   -0.069140   5.777816
O    1.525541   -0.159018   2.615530
H    2.145457    0.463603   3.041517
