 24
Energy: -13526.66761615.7 eV PBE+vdW (tier 2 basis)
N   -0.712463    1.271010   0.993459
C    0.318869    0.810162   1.942621
C    1.255143   -0.164422   1.200078
O    0.669116   -0.757723   0.138613
H   -1.567447    1.542016   1.478870
H   -0.203839   -0.282648   0.058080
H    0.957517    1.624553   2.320835
C   -0.380953    0.135162   3.141267
C    0.539561   -0.510188   4.195124
C    0.807490   -2.011182   4.000377
C   -0.394356   -2.908564   4.333315
N   -0.196961   -4.350194   4.152690
H   -1.094368   -0.606841   2.747743
H   -0.989802    0.920082   3.618043
H    0.084591   -0.363323   5.187557
H    1.497115    0.029526   4.218923
H    1.651498   -2.304136   4.645584
H    1.140372   -2.210862   2.970500
H   -1.265715   -2.621797   3.723179
H   -0.695808   -2.740275   5.380361
H    0.042484   -4.552914   3.180700
H    0.597139   -4.669048   4.710493
O    2.393027   -0.397424   1.542037
H   -0.395207    2.078031   0.456553
