 24
Energy: -13526.67968315.7 eV PBE+vdW (tier 2 basis)
N   -0.158509    0.751044   0.528299
C    0.006424   -0.022284   1.774010
C    1.492714    0.029722   2.182197
O    1.885367   -0.151243   3.313522
H    1.698058    0.477680   0.393032
H   -0.316767    1.740476   0.718201
H   -0.559274    0.395825   2.622079
C   -0.477832   -1.466893   1.526160
C   -0.259761   -2.472403   2.670865
C    1.030464   -3.291307   2.555903
C    1.261502   -4.257489   3.729732
N    0.284836   -5.335124   3.924613
H    0.003522   -1.839630   0.606590
H   -1.554170   -1.389217   1.302397
H   -1.119016   -3.160287   2.686209
H   -0.271154   -1.943796   3.637213
H    1.899241   -2.619075   2.495364
H    1.012156   -3.866640   1.613173
H    1.311216   -3.681107   4.666794
H    2.250321   -4.725539   3.611139
H    0.185449   -5.889295   3.072620
H   -0.639113   -4.960100   4.139031
O    2.320197    0.275387   1.145612
H   -0.951969    0.412257  -0.015487
