 24
Energy: -13526.66709015.7 eV PBE+vdW (tier 2 basis)
N    0.478038   -0.222187   2.524796
C    1.117436   -0.086416   1.220398
C    0.991917    1.362502   0.784244
O    0.085693    2.108655   1.092338
H    0.252830   -1.197211   2.717027
H   -0.392863    0.312315   2.529664
H    2.192197   -0.311344   1.320487
C    0.551674   -0.978729   0.079915
C    0.729053   -2.474515   0.342363
C    0.172871   -3.349448  -0.784208
C    0.234580   -4.850133  -0.486882
N   -0.619100   -5.199200   0.658178
H    1.054739   -0.708362  -0.862623
H   -0.517546   -0.740895  -0.046907
H    0.230445   -2.768700   1.278379
H    1.801278   -2.696786   0.479051
H    0.720613   -3.152019  -1.719779
H   -0.876055   -3.068128  -0.984652
H    1.268030   -5.125430  -0.223586
H   -0.012934   -5.407343  -1.411209
H   -0.465603   -6.166713   0.940311
H   -1.604353   -5.126002   0.400257
O    2.000522    1.733973  -0.051974
H    1.800540    2.652116  -0.319590
