 24
Energy: -13526.75503315.7 eV PBE+vdW (tier 2 basis)
N    0.232815    1.203096   1.474843
C   -0.356113    0.135423   2.310233
C    0.708369   -0.362406   3.321078
O    1.825179    0.387239   3.326874
H    0.485633    0.848156   0.551846
H    1.640851    1.071667   2.619929
H   -1.141414    0.593779   2.934156
C   -0.967099   -1.038485   1.536715
C   -2.235904   -0.671559   0.762119
C   -2.789361   -1.802733  -0.113141
C   -3.260256   -3.033447   0.663564
N   -3.832307   -4.027118  -0.252424
H   -1.166412   -1.836716   2.263803
H   -0.204563   -1.439720   0.845117
H   -2.037798    0.199654   0.116434
H   -3.010395   -0.346790   1.478555
H   -2.034154   -2.119668  -0.849853
H   -3.638361   -1.411398  -0.698379
H   -3.954031   -2.706798   1.465880
H   -2.405737   -3.508891   1.167170
H   -4.702601   -3.679556  -0.657950
H   -4.067662   -4.883928   0.247879
O    0.539101   -1.315295   4.049123
H   -0.408781    1.980497   1.336430
