 24
Energy: -13526.72085415.7 eV PBE+vdW (tier 2 basis)
N    0.174067   -1.293439   0.466752
C   -0.358007   -0.512370   1.606070
C   -0.796620    0.885584   1.089424
O   -1.213207    1.759685   1.817590
H   -0.252798   -2.214008   0.397269
H    1.180002   -1.432515   0.555337
H   -1.292007   -0.986582   1.949872
C    0.592609   -0.367996   2.803828
C    0.621657   -1.543137   3.788861
C    1.096206   -2.890824   3.235901
C    1.292092   -3.942566   4.327367
N    1.742867   -5.215546   3.750810
H    1.608519   -0.168730   2.418441
H    0.289306    0.538052   3.345746
H   -0.382858   -1.660143   4.229015
H    1.279550   -1.256493   4.625803
H    2.048656   -2.774438   2.693572
H    0.369250   -3.280430   2.502941
H    0.359985   -4.023845   4.922692
H    2.074047   -3.597212   5.021310
H    0.992029   -5.647277   3.209851
H    1.981139   -5.878484   4.488303
O   -0.689162    1.012638  -0.243046
H   -0.315326    0.122074  -0.518709
