 24
Energy: -13526.66201615.7 eV PBE+vdW (tier 2 basis)
N   -0.019142   -1.286782  -0.097351
C   -0.012906   -0.384247   1.040630
C    1.341541    0.164320   1.524451
O    1.479089    0.970932   2.421678
H    0.511760   -2.140548   0.114264
H    0.419621   -0.851078  -0.906984
H   -0.539055    0.539646   0.743196
C   -0.829859   -0.964186   2.223965
C   -0.508279   -2.414803   2.602367
C    0.893519   -2.675810   3.196558
C    1.625106   -3.846266   2.536162
N    1.893991   -3.558308   1.117413
H   -1.886403   -0.914407   1.925542
H   -0.705781   -0.296070   3.088376
H   -0.644520   -3.043730   1.710482
H   -1.272894   -2.748463   3.318978
H    0.819188   -2.873223   4.275935
H    1.528991   -1.780097   3.118682
H    0.988045   -4.743676   2.576375
H    2.538741   -4.080000   3.115040
H    2.597863   -2.823008   1.030973
H    2.261039   -4.381863   0.641895
O    2.415402   -0.294056   0.804894
H    3.183873    0.180304   1.178689
