 24
Energy: -13526.63876415.7 eV PBE+vdW (tier 2 basis)
N   -0.545518    1.120356   1.068907
C    0.426219    0.166060   1.635271
C    0.117955   -1.235902   1.070192
O    0.927121   -2.138527   1.039107
H   -0.219105    1.512584   0.186048
H   -0.717241    1.897474   1.706286
H    1.466286    0.387702   1.347214
C    0.327956    0.200844   3.175479
C    1.111904   -0.893323   3.922664
C    0.244772   -2.076619   4.384510
C    1.060205   -3.302151   4.804088
N    1.407654   -4.123664   3.637783
H    0.681347    1.197544   3.483208
H   -0.738313    0.150170   3.452787
H    1.592854   -0.448648   4.806204
H    1.929932   -1.255857   3.282676
H   -0.447560   -2.388195   3.586012
H   -0.383852   -1.745444   5.225781
H    0.460533   -3.919619   5.492028
H    1.941234   -2.958185   5.384852
H    2.218688   -4.711242   3.823921
H    1.627126   -3.546752   2.823936
O   -1.146306   -1.366355   0.627692
H   -1.513890   -0.441250   0.699352
