 24
Energy: -13526.65017115.7 eV PBE+vdW (tier 2 basis)
N   -1.412673   -1.824645   1.050713
C   -1.308163   -0.783121   2.095069
C   -0.991660    0.573131   1.410697
O   -0.676050    1.571315   2.018371
H   -2.114122   -2.523676   1.287653
H   -0.525459   -2.314579   0.934176
H   -2.319864   -0.645472   2.510440
C   -0.343985   -1.057050   3.258713
C    1.111883   -1.348610   2.839472
C    1.489881   -2.837970   2.771919
C    1.659943   -3.504896   4.143078
N    2.763266   -2.892879   4.891619
H   -0.373392   -0.169632   3.903806
H   -0.745766   -1.889457   3.857735
H    1.794145   -0.870622   3.554526
H    1.322010   -0.867654   1.870415
H    2.434562   -2.946611   2.213216
H    0.741346   -3.418587   2.206842
H    1.771249   -4.596457   3.992508
H    0.743668   -3.368346   4.738696
H    3.661237   -3.136851   4.472061
H    2.785361   -3.233807   5.851651
O   -1.141307    0.538379   0.072426
H   -1.392107   -0.413901  -0.102800
