 24
Energy: -13526.56663715.7 eV PBE+vdW (tier 2 basis)
N    0.048096    0.022695   0.005409
C   -0.000574   -0.074529   1.468602
C    1.441726   -0.140414   1.952482
O    2.281254   -0.890942   1.499697
H    0.639283   -0.729035  -0.356764
H   -0.886468   -0.117500  -0.380269
H   -0.454705    0.847474   1.856833
C   -0.774714   -1.310886   1.996706
C   -0.937489   -1.477729   3.515717
C   -1.876074   -0.469920   4.204969
C   -1.200999    0.781973   4.778058
N   -0.246062    0.422990   5.835394
H   -0.269723   -2.199991   1.586815
H   -1.773412   -1.276973   1.528671
H    0.039927   -1.454118   4.021817
H   -1.328572   -2.492506   3.680510
H   -2.397896   -0.975844   5.034259
H   -2.670367   -0.155937   3.507386
H   -1.990962    1.481977   5.113920
H   -0.633697    1.304292   3.996260
H   -0.740321    0.125466   6.677796
H    0.319004    1.229946   6.096666
O    1.692754    0.716192   2.975833
H    2.616960    0.549514   3.247892
