 24
Energy: -13526.53507115.7 eV PBE+vdW (tier 2 basis)
N    0.536199    0.052430  -0.319475
C    0.450385   -0.162420   1.130911
C    1.762285    0.222198   1.807396
O    2.240806   -0.304747   2.787601
H    0.887973    0.987829  -0.520659
H   -0.393347   -0.012855  -0.732935
H   -0.297130    0.504799   1.620674
C    0.068745   -1.605586   1.470477
C   -1.316864   -2.003328   0.951029
C   -1.759047   -3.424632   1.342969
C   -2.436329   -3.562168   2.709823
N   -1.553510   -3.179489   3.820056
H    0.098043   -1.723395   2.559911
H    0.830916   -2.274968   1.041395
H   -1.328087   -1.934599  -0.148373
H   -2.067956   -1.280893   1.316449
H   -0.891993   -4.106304   1.292551
H   -2.472422   -3.801358   0.593781
H   -2.834022   -4.593548   2.794674
H   -3.309040   -2.890078   2.740959
H   -2.052955   -3.229774   4.707760
H   -0.769317   -3.829977   3.892022
O    2.342551    1.306486   1.209255
H    3.148836    1.492076   1.727978
