 24
Energy: -13526.64657715.7 eV PBE+vdW (tier 2 basis)
N   -0.222735    1.493349   0.489863
C    0.299472    0.310425   1.186566
C    1.759815    0.483410   1.607817
O    2.158259    0.592452   2.749093
H    0.320186    1.674676  -0.356120
H   -0.142957    2.322430   1.079780
H   -0.258300    0.208258   2.128307
C    0.084512   -0.944660   0.332863
C    0.528528   -2.240745   1.019311
C    0.379868   -3.496476   0.149078
C   -1.070892   -3.889902  -0.173136
N   -1.251740   -5.128206  -0.936986
H    0.626234   -0.826933  -0.620076
H   -0.986210   -0.971813   0.086128
H   -0.041837   -2.374016   1.954230
H    1.583357   -2.150416   1.324020
H    0.861244   -4.344062   0.664321
H    0.935234   -3.358650  -0.794920
H   -1.567987   -3.085328  -0.735460
H   -1.634610   -3.991880   0.768687
H   -0.790186   -5.056087  -1.845000
H   -0.809363   -5.911685  -0.453562
O    2.601741    0.554277   0.530873
H    3.492365    0.708583   0.900325
