 24
Energy: -13526.65795015.7 eV PBE+vdW (tier 2 basis)
N    2.472672   -2.470220   3.562242
C    1.293823   -1.963079   2.833939
C    1.762509   -1.414260   1.468065
O    3.082483   -1.143790   1.430861
H    2.352734   -2.383556   4.570928
H    3.412461   -1.476025   2.313149
H    0.547981   -2.746865   2.625258
C    0.621038   -0.838627   3.649549
C   -0.734702   -0.383024   3.098093
C   -1.324289    0.878178   3.745009
C   -1.650016    0.800325   5.250468
N   -0.562517    1.028328   6.210870
H    1.315465    0.015239   3.716599
H    0.496202   -1.228403   4.674622
H   -1.455186   -1.211736   3.203482
H   -0.634424   -0.210858   2.017317
H   -2.255795    1.114888   3.205679
H   -0.652608    1.736393   3.570324
H   -2.095915   -0.182227   5.477875
H   -2.431594    1.539884   5.480048
H    0.199281    0.365910   6.073049
H   -0.161414    1.957313   6.075911
O    1.018578   -1.213026   0.533615
H    2.646235   -3.453763   3.357049
