 24
Energy: -13526.64373115.7 eV PBE+vdW (tier 2 basis)
N    0.008492   -0.237321   0.231952
C    0.448090   -0.248567   1.622668
C    1.909792   -0.657942   1.650469
O    2.445866   -1.386693   0.841729
H   -1.008579   -0.251075   0.172203
H    0.366525   -1.067787  -0.243802
H    0.385722    0.773856   2.026366
C   -0.322184   -1.202585   2.582076
C   -1.824568   -0.916232   2.689422
C   -2.178650    0.460246   3.258230
C   -3.679582    0.644116   3.477186
N   -3.974394    1.997880   3.962100
H    0.132772   -1.133357   3.583078
H   -0.170774   -2.235319   2.230166
H   -2.269736   -1.698640   3.325017
H   -2.303155   -1.042484   1.702839
H   -1.829299    1.265461   2.594134
H   -1.651406    0.604261   4.217715
H   -4.047508   -0.162490   4.143965
H   -4.203463    0.515739   2.516620
H   -4.981054    2.137233   4.048153
H   -3.583871    2.133578   4.895886
O    2.560903   -0.151642   2.733745
H    3.467504   -0.513868   2.694278
