 24
Energy: -13526.74368515.7 eV PBE+vdW (tier 2 basis)
N   -1.601474    1.792680   1.316885
C   -0.494630    0.851506   1.586725
C    0.678454    1.156367   0.619560
O    0.499893    2.283778  -0.092378
H   -0.398397    2.603097   0.211810
H   -2.030813    2.125613   2.177489
H   -0.096262    1.089886   2.585302
C   -0.859155   -0.641283   1.562738
C   -1.404716   -1.138033   0.218583
C   -1.819925   -2.616767   0.222261
C   -0.657327   -3.609948   0.388827
N   -1.009322   -5.030595   0.314093
H   -1.594503   -0.834529   2.360847
H    0.051138   -1.197067   1.823760
H   -0.645697   -0.974790  -0.563638
H   -2.283794   -0.541241  -0.080053
H   -2.334014   -2.842698  -0.726381
H   -2.562398   -2.791818   1.020600
H   -0.153491   -3.448987   1.353392
H    0.102936   -3.409313  -0.382681
H   -1.681632   -5.271858   1.043725
H   -1.463705   -5.240039  -0.576162
O    1.666680    0.461479   0.534137
H   -2.333848    1.350560   0.760561
