 24
Energy: -13526.72420115.7 eV PBE+vdW (tier 2 basis)
N    2.510894    1.087237   2.569335
C    1.525700   -0.005720   2.443813
C    1.673397   -0.645272   1.046834
O    2.334104    0.138573   0.171329
H    2.153290    1.845239   3.149765
H    2.629515    0.910724   0.732642
H    1.692582   -0.808099   3.178552
C    0.103152    0.563709   2.622909
C   -1.048458   -0.449838   2.564476
C   -0.993808   -1.581655   3.598933
C   -0.993740   -1.116651   5.054436
N   -0.968786   -2.269442   5.962363
H   -0.057774    1.336982   1.854556
H    0.088342    1.087018   3.593898
H   -1.087261   -0.897235   1.562167
H   -1.986993    0.114361   2.688465
H   -0.117915   -2.223076   3.422955
H   -1.870989   -2.230122   3.437466
H   -1.855219   -0.434701   5.214304
H   -0.088356   -0.523922   5.262467
H   -0.978986   -1.964074   6.935469
H   -1.803692   -2.842238   5.829246
O    1.216169   -1.728116   0.753919
H    3.380827    0.762314   2.989703
