 24
Energy: -13526.65582715.7 eV PBE+vdW (tier 2 basis)
N    2.708464   -2.070396   3.495989
C    1.325710   -1.909968   3.005285
C    1.351734   -1.908770   1.460892
O    2.569840   -1.635821   0.951739
H    2.842367   -1.601457   4.391226
H    3.155930   -1.600154   1.759681
H    0.663859   -2.736337   3.310855
C    0.741665   -0.582899   3.530275
C   -0.738704   -0.351965   3.207190
C   -1.296895    0.982789   3.735117
C   -1.917398    0.942722   5.142916
N   -1.059610    0.591773   6.280054
H    1.341996    0.250970   3.129825
H    0.893663   -0.573893   4.622332
H   -1.336555   -1.187158   3.610867
H   -0.869044   -0.402554   2.118539
H   -2.081863    1.335523   3.047285
H   -0.508897    1.755174   3.704900
H   -2.758212    0.230824   5.142240
H   -2.359339    1.928577   5.356629
H   -0.733745   -0.371862   6.212171
H   -0.230577    1.186819   6.308805
O    0.373615   -2.100531   0.772925
H    2.950996   -3.052404   3.623260
