 24
Energy: -13526.71353715.7 eV PBE+vdW (tier 2 basis)
N    0.201977    0.878536   0.328998
C    0.054972    0.099710   1.575802
C    1.406061   -0.581561   1.886993
O    1.694838   -1.039591   2.971251
H    0.460254    1.846429   0.516924
H   -0.665947    0.887194  -0.205447
H   -0.187383    0.732780   2.444956
C   -1.049674   -0.959492   1.396281
C   -1.402608   -1.737401   2.667405
C   -2.514663   -2.782813   2.494991
C   -2.139253   -4.045469   1.710517
N   -2.023259   -3.794962   0.263669
H   -0.769404   -1.657144   0.593994
H   -1.952398   -0.429101   1.043250
H   -1.711926   -1.020807   3.445832
H   -0.501278   -2.228781   3.062086
H   -3.404954   -2.320349   2.031889
H   -2.837251   -3.103646   3.497594
H   -2.871311   -4.839717   1.955304
H   -1.159777   -4.405653   2.061864
H   -1.670573   -4.625328  -0.212505
H   -2.945219   -3.607141  -0.133569
O    2.225712   -0.644544   0.819140
H    1.729062   -0.129150   0.120779
