 24
Energy: -13526.59206915.7 eV PBE+vdW (tier 2 basis)
N    0.867646   -0.429758  -0.652136
C    0.391344    0.042750   0.652948
C    1.504918    0.148617   1.695763
O    1.869160    1.171240   2.239726
H    1.285081   -1.357649  -0.562465
H    1.590623    0.189879  -1.019134
H    0.033930    1.070698   0.517186
C   -0.755415   -0.861260   1.136488
C   -1.348533   -0.550273   2.521077
C   -2.384077    0.581284   2.594566
C   -1.863630    1.997416   2.339841
N   -2.914012    2.979892   2.642485
H   -0.375398   -1.895057   1.139084
H   -1.539647   -0.821878   0.365440
H   -0.537757   -0.353525   3.242979
H   -1.837637   -1.467552   2.880804
H   -2.826494    0.563109   3.605392
H   -3.215893    0.378213   1.901665
H   -1.609836    2.121560   1.276628
H   -0.924434    2.150023   2.907001
H   -3.120593    2.975695   3.642825
H   -2.594352    3.922644   2.419840
O    2.095653   -1.059610   1.944845
H    2.802019   -0.881347   2.594996
