 24
Energy: -13526.67620015.7 eV PBE+vdW (tier 2 basis)
N   -0.701337    1.323318   1.346114
C    0.355261    0.751858   2.204330
C    1.320413   -0.048646   1.307609
O    0.748455   -0.474790   0.161342
H   -1.561897    1.472696   1.872685
H   -0.141853   -0.025010   0.165410
H    0.965253    1.517786   2.709625
C   -0.308184   -0.136738   3.277735
C    0.636413   -0.887826   4.232692
C    1.001299   -2.318264   3.805675
C   -0.149802   -3.324314   3.890937
N   -0.660037   -3.440990   5.265152
H   -0.983425   -0.844341   2.769077
H   -0.958419    0.532167   3.864260
H    0.154474   -0.943813   5.218297
H    1.560445   -0.306487   4.363789
H    1.823600   -2.672888   4.449538
H    1.408020   -2.329709   2.784850
H    0.196649   -4.283964   3.461363
H   -0.988800   -2.994066   3.257707
H   -1.463761   -4.067649   5.297689
H    0.051963   -3.853815   5.870079
O    2.468719   -0.294759   1.603118
H   -0.421447    2.222245   0.953922
