 24
Energy: -13526.47799915.7 eV PBE+vdW (tier 2 basis)
N   -0.111017   -0.154447  -0.027613
C   -0.053163    0.084146   1.414094
C    1.345387    0.442175   1.897896
O    1.600211    0.700015   3.059697
H   -1.071397   -0.364224  -0.300979
H    0.174338    0.672369  -0.551959
H   -0.656850    0.956696   1.739483
C   -0.569072   -1.159436   2.173260
C   -2.105388   -1.259152   2.241711
C   -2.777022   -0.664483   3.490931
C   -2.567931    0.832302   3.775504
N   -1.368439    1.098055   4.577913
H   -0.151493   -1.167317   3.188740
H   -0.152922   -2.032060   1.648627
H   -2.387620   -2.321247   2.190260
H   -2.551289   -0.801760   1.340818
H   -2.449474   -1.218340   4.385067
H   -3.858918   -0.846083   3.393634
H   -3.423389    1.187622   4.368529
H   -2.612650    1.393326   2.816524
H   -0.496845    0.936467   4.069323
H   -1.349868    2.072367   4.877012
O    2.280764    0.489648   0.917675
H    3.111167    0.752569   1.361633
