 24
Energy: -13526.60925815.7 eV PBE+vdW (tier 2 basis)
N    0.513556   -1.463060   0.323559
C    0.190696   -0.387972   1.251807
C    1.427304    0.333957   1.782169
O    1.380379    1.348519   2.449464
H   -0.341620   -1.797417  -0.120481
H    0.932347   -2.258505   0.821428
H   -0.309702    0.407275   0.674280
C   -0.785413   -0.732155   2.423325
C   -0.486324   -2.030676   3.179597
C    0.810152   -2.052240   4.019446
C    1.681765   -3.284050   3.762356
N    2.139988   -3.320046   2.364592
H   -1.789587   -0.815375   1.979207
H   -0.818980    0.127372   3.109850
H   -0.448449   -2.856802   2.453255
H   -1.345778   -2.245671   3.831117
H    0.568974   -2.013332   5.091706
H    1.414781   -1.151478   3.834445
H    1.086637   -4.193978   3.939127
H    2.510320   -3.301181   4.495817
H    2.800444   -2.561888   2.183343
H    2.622884   -4.194267   2.161270
O    2.616278   -0.242625   1.439041
H    3.294718    0.349517   1.819575
