 24
Energy: -13526.58084315.7 eV PBE+vdW (tier 2 basis)
N    1.102898    0.523136   0.563268
C    0.701688   -0.013271   1.860208
C    1.814866   -0.528999   2.783073
O    1.680145   -0.747453   3.969686
H    1.601366   -0.182031   0.020538
H    1.753012    1.299584   0.682627
H    0.236704    0.806200   2.429671
C   -0.376364   -1.109448   1.707571
C    0.093929   -2.365422   0.965027
C   -0.928186   -3.512637   0.916263
C   -2.118251   -3.332652  -0.031623
N   -3.060965   -2.304926   0.434617
H   -1.233643   -0.666243   1.187057
H   -0.717362   -1.389068   2.715600
H    1.009386   -2.750454   1.444358
H    0.375941   -2.108890  -0.069989
H   -1.302631   -3.716700   1.935050
H   -0.403141   -4.429735   0.606227
H   -2.590565   -4.323993  -0.181802
H   -1.745322   -3.014014  -1.018296
H   -3.818076   -2.184093  -0.238130
H   -3.496874   -2.599232   1.310104
O    3.000571   -0.740384   2.136425
H    3.609611   -1.080347   2.820926
