 24
Energy: -13526.62084515.7 eV PBE+vdW (tier 2 basis)
N    1.208955   -0.203954  -0.080145
C    0.727329   -0.072659   1.291152
C    1.849055   -0.179174   2.327708
O    2.893590   -0.777035   2.170370
H    1.850731   -0.998694  -0.130552
H    1.760556    0.614314  -0.340450
H    0.265734    0.920060   1.407334
C   -0.341522   -1.144680   1.616609
C   -1.760062   -0.825533   1.117147
C   -1.977424   -0.714420  -0.397798
C   -1.674361   -1.994623  -1.174147
N   -2.082499   -1.852248  -2.577891
H   -0.393465   -1.270495   2.708267
H    0.014174   -2.106887   1.215560
H   -2.087216    0.114285   1.591083
H   -2.430250   -1.605943   1.515201
H   -1.374371    0.098697  -0.823748
H   -3.034358   -0.444204  -0.564982
H   -2.147911   -2.855325  -0.656067
H   -0.589642   -2.173895  -1.166745
H   -1.806042   -2.672251  -3.117518
H   -3.099372   -1.788979  -2.647327
O    1.535775    0.462132   3.490044
H    2.283681    0.301761   4.098563
