 24
Energy: -13526.54149015.7 eV PBE+vdW (tier 2 basis)
N    0.315471    1.231106  -0.133441
C    0.671094    0.208537   0.848395
C    2.045728    0.562172   1.400462
O    2.594013    1.636750   1.261012
H   -0.696050    1.297180  -0.229935
H    0.678193    2.139197   0.158367
H    0.013172    0.214036   1.747139
C    0.563605   -1.195012   0.210201
C    0.352557   -2.356345   1.187399
C    0.155447   -3.725622   0.514547
C   -1.256279   -4.039206   0.009498
N   -1.685747   -3.144187  -1.076442
H    1.452064   -1.373573  -0.415734
H   -0.292414   -1.155444  -0.476206
H   -0.526547   -2.139634   1.819442
H    1.209293   -2.421000   1.871479
H    0.417569   -4.515835   1.235225
H    0.874139   -3.837840  -0.316640
H   -1.967306   -3.907922   0.840978
H   -1.293231   -5.112044  -0.266435
H   -1.102358   -3.289308  -1.902508
H   -2.641237   -3.363114  -1.358993
O    2.609253   -0.446892   2.121827
H    3.459569   -0.090001   2.444362
