 24
Energy: -13526.71980815.7 eV PBE+vdW (tier 2 basis)
N   -0.999576    0.983094   1.360659
C    0.202897    0.256712   1.828690
C    1.226110    0.211683   0.663916
O    0.894677    1.022002  -0.359110
H   -1.724114    0.325763   1.067520
H    0.018339    1.408926  -0.065971
H    0.677785    0.880520   2.603949
C   -0.085686   -1.131773   2.427310
C    1.025051   -1.680115   3.328462
C    0.755094   -3.097803   3.849342
C   -0.538823   -3.280857   4.649156
N   -0.620809   -2.328496   5.766180
H   -0.292976   -1.840858   1.607397
H   -1.011742   -1.039722   3.016054
H    1.148003   -0.995967   4.182387
H    1.972037   -1.678233   2.773750
H    1.607816   -3.406166   4.477479
H    0.737447   -3.806441   3.005386
H   -0.604965   -4.341376   4.961251
H   -1.409463   -3.099800   3.999402
H   -1.484012   -2.467231   6.291266
H    0.144180   -2.490426   6.423612
O    2.233689   -0.461339   0.670872
H   -1.398960    1.555903   2.102040
