 24
Energy: -13526.65391315.7 eV PBE+vdW (tier 2 basis)
N   -0.150116    0.213989   0.087676
C   -0.327903   -0.319677   1.435354
C    0.883913   -0.253189   2.365829
O    0.831731   -0.071727   3.565156
H    0.142129    1.190453   0.119230
H    0.585765   -0.297066  -0.401935
H   -1.094769    0.285500   1.940598
C   -0.809084   -1.786387   1.382536
C   -2.158695   -1.985176   0.682120
C   -3.341964   -1.238903   1.314644
C   -3.591145   -1.532015   2.797484
N   -3.781362   -2.969926   3.034246
H   -0.856217   -2.178174   2.408837
H   -0.040858   -2.382104   0.862982
H   -2.371920   -3.063454   0.684061
H   -2.072047   -1.673866  -0.368260
H   -4.252338   -1.488936   0.743856
H   -3.215437   -0.151386   1.193128
H   -4.440524   -0.907147   3.136791
H   -2.722303   -1.214828   3.394703
H   -4.642335   -3.291907   2.589143
H   -3.882569   -3.158945   4.031031
O    2.065186   -0.452384   1.707651
H    2.756974   -0.428735   2.396745
