 24
Energy: -13526.74701015.7 eV PBE+vdW (tier 2 basis)
N    0.672597   -0.559223   1.382039
C    0.398820    0.803449   1.884417
C    1.054289    0.970507   3.279706
O    1.856956   -0.055603   3.615795
H   -0.131471   -1.171762   1.520965
H    1.773837   -0.673814   2.833674
H    0.945990    1.507398   1.237954
C   -1.078282    1.225150   1.909568
C   -1.969641    0.344769   2.792969
C   -3.418621    0.838733   2.901020
C   -4.221974    0.842378   1.586987
N   -4.397853   -0.443361   0.903868
H   -1.447536    1.240320   0.872311
H   -1.119043    2.260593   2.277167
H   -1.539105    0.299691   3.804771
H   -1.978869   -0.696572   2.422870
H   -3.419834    1.861052   3.314892
H   -3.950776    0.212303   3.635725
H   -3.767257    1.537995   0.865270
H   -5.224179    1.246999   1.793627
H   -4.815127   -1.131329   1.532860
H   -3.500490   -0.827901   0.607609
O    0.881036    1.940905   3.983275
H    0.889536   -0.558676   0.387657
