 24
Energy: -13526.64849715.7 eV PBE+vdW (tier 2 basis)
N   -0.371704    0.345049   0.340947
C   -0.083315    0.009095   1.731286
C    1.425011   -0.041642   1.913071
O    2.235753   -0.187331   1.021418
H   -1.260297   -0.056476   0.045783
H    0.364586   -0.026531  -0.261407
H   -0.451164    0.817459   2.385555
C   -0.715112   -1.311247   2.256470
C   -0.189506   -2.586243   1.594221
C   -0.978819   -3.848081   1.966819
C   -0.931378   -4.237184   3.448410
N    0.451450   -4.437228   3.901636
H   -1.804365   -1.224060   2.100771
H   -0.559779   -1.353177   3.344386
H    0.865406   -2.732876   1.868590
H   -0.214111   -2.470371   0.499612
H   -0.598005   -4.693309   1.368729
H   -2.035880   -3.728771   1.676455
H   -1.582981   -5.120728   3.596142
H   -1.364362   -3.431338   4.060655
H    0.478101   -4.627657   4.902820
H    0.862301   -5.250474   3.440291
O    1.778023    0.063537   3.222166
H    2.749107   -0.037396   3.247450
