 24
Energy: -13526.77353715.7 eV PBE+vdW (tier 2 basis)
N   -0.295290    1.144008   2.002512
C   -0.263899   -0.236552   1.475235
C   -1.381592   -0.399401   0.413577
O   -1.665746   -1.461373  -0.094211
H    0.637857    1.535784   2.107714
H   -0.743959    1.175609   2.918777
H    0.676413   -0.357251   0.911951
C   -0.347997   -1.342335   2.533272
C    0.889072   -1.443910   3.427042
C    0.777312   -2.541276   4.488018
C    2.015827   -2.679173   5.390775
N    3.267173   -3.107927   4.760317
H   -1.249195   -1.171773   3.148777
H   -0.517494   -2.292850   2.008113
H    1.077591   -0.479255   3.930267
H    1.768641   -1.631983   2.787325
H    0.579923   -3.509549   3.996837
H   -0.099539   -2.340523   5.127313
H    1.789958   -3.396067   6.194559
H    2.211288   -1.716784   5.891540
H    3.569094   -2.443598   4.047745
H    3.144811   -4.005999   4.290282
O   -1.982348    0.760961   0.094364
H   -1.521899    1.424214   0.685897
