 24
Energy: -13526.77174515.7 eV PBE+vdW (tier 2 basis)
N   -0.761441    0.057678   0.088339
C   -0.254629    0.064379   1.478406
C    1.262468    0.380568   1.450309
O    1.969663    0.382369   2.437216
H    0.886674    0.611319  -0.340063
H   -1.632303    0.576898   0.000890
H   -0.688779    0.939675   1.987061
C   -0.614875   -1.171473   2.324359
C   -0.285532   -2.545858   1.716431
C    1.198800   -2.905475   1.528222
C    1.931729   -3.382153   2.787838
N    1.860962   -2.416236   3.889049
H   -1.699255   -1.129568   2.513367
H   -0.116312   -1.080596   3.297274
H   -0.801173   -2.657982   0.745443
H   -0.751118   -3.305399   2.364249
H    1.752529   -2.066408   1.079655
H    1.268600   -3.720430   0.790978
H    2.966647   -3.646928   2.490169
H    1.460428   -4.317082   3.135036
H    2.248064   -1.512678   3.605340
H    2.406416   -2.744238   4.685065
O    1.711864    0.701267   0.226293
H   -0.940852   -0.895683  -0.228103
