 24
Energy: -13526.65458815.7 eV PBE+vdW (tier 2 basis)
N   -0.041957   -0.024451  -0.791912
C   -0.112309    0.158750   0.655113
C    1.243695    0.632958   1.141978
O    2.304945    0.389047   0.605802
H   -0.756119   -0.679989  -1.106198
H    0.870881   -0.415768  -1.033789
H   -0.833167    0.960914   0.881946
C   -0.501670   -1.097359   1.484282
C   -1.879543   -1.678949   1.142232
C   -3.067892   -0.721642   1.316387
C   -3.240922   -0.146155   2.725794
N   -3.368900   -1.214852   3.725496
H   -0.467109   -0.843295   2.554142
H    0.266199   -1.869196   1.318251
H   -2.032730   -2.558093   1.783707
H   -1.881606   -2.060079   0.107646
H   -3.989662   -1.258801   1.036061
H   -2.995372    0.119850   0.608761
H   -4.095853    0.557681   2.710348
H   -2.357564    0.451997   2.997174
H   -3.401927   -0.824732   4.666783
H   -4.244024   -1.723969   3.591808
O    1.149252    1.341970   2.301211
H    2.067362    1.549819   2.562488
