 24
Energy: -13526.42448315.7 eV PBE+vdW (tier 2 basis)
N    0.821781    1.659710   1.747759
C   -0.153853    0.621269   2.065243
C    0.621778   -0.691206   2.220276
O    0.218436   -1.519748   3.226221
H    1.517048    1.268960   1.107570
H   -0.490419   -1.083378   3.730598
H   -0.625493    0.868961   3.035661
C   -1.291875    0.473882   1.018147
C   -2.396777   -0.546807   1.341436
C   -2.142301   -1.958744   0.801925
C   -3.170774   -2.976908   1.288943
N   -2.940311   -4.284512   0.665424
H   -0.831672    0.243033   0.044602
H   -1.735923    1.477100   0.924427
H   -3.349289   -0.180911   0.928310
H   -2.558639   -0.583914   2.434725
H   -1.137999   -2.307710   1.088229
H   -2.156438   -1.940838  -0.298623
H   -4.181147   -2.643977   1.001561
H   -3.152348   -2.998971   2.398850
H   -2.034520   -4.658599   0.952855
H   -3.642042   -4.958393   0.971206
O    1.527855   -1.019555   1.492269
H    0.369921    2.442259   1.274387
