 24
Energy: -13526.71575515.7 eV PBE+vdW (tier 2 basis)
N   -0.855765    0.550587   3.109000
C   -0.195978   -0.424137   2.217313
C    1.326632   -0.429393   2.504693
O    1.665852    0.305698   3.578980
H   -1.080905    1.411530   2.609134
H    0.787994    0.676336   3.885370
H   -0.530928   -1.430734   2.512870
C   -0.459473   -0.219186   0.719710
C   -1.915358   -0.375549   0.260162
C   -2.527385   -1.781116   0.421354
C   -3.275133   -2.021632   1.745579
N   -3.943147   -3.314994   1.893066
H    0.184427   -0.922339   0.173063
H   -0.100774    0.788426   0.446997
H   -1.946852   -0.093252  -0.802123
H   -2.559250    0.360840   0.772510
H   -1.742854   -2.547178   0.299424
H   -3.245301   -1.954984  -0.396149
H   -4.037163   -1.235177   1.872114
H   -2.589423   -1.916206   2.601295
H   -4.620729   -3.454964   1.142097
H   -3.268651   -4.077790   1.818215
O    2.125650   -1.053488   1.842232
H   -1.726485    0.188704   3.493092
