 24
Energy: -13526.53099415.7 eV PBE+vdW (tier 2 basis)
N    0.100304    0.410174  -0.086033
C    0.272991   -0.052719   1.291475
C    1.625787   -0.716915   1.502551
O    2.171400   -0.831176   2.580480
H   -0.852782    0.749407  -0.217208
H    0.241965   -0.350541  -0.748772
H    0.300342    0.840022   1.935031
C   -0.831041   -0.978586   1.888227
C   -0.855107   -2.450700   1.453800
C   -1.155657   -2.729695  -0.024696
C   -1.461575   -4.201199  -0.312432
N   -0.286060   -5.052868  -0.080871
H   -1.799330   -0.504225   1.657060
H   -0.722909   -0.945080   2.982820
H   -1.624011   -2.954824   2.064437
H    0.101483   -2.921297   1.733706
H   -0.302322   -2.434555  -0.652763
H   -2.021511   -2.125766  -0.342615
H   -1.736577   -4.305651  -1.372158
H   -2.352632   -4.502739   0.276832
H   -0.091231   -5.136827   0.917229
H   -0.462900   -5.999606  -0.415727
O    2.143779   -1.239361   0.357709
H    2.974663   -1.682781   0.617062
