 24
Energy: -13526.75739615.7 eV PBE+vdW (tier 2 basis)
N   -1.562216    1.192108   1.747809
C   -0.329740    0.382428   1.813480
C   -0.270981   -0.522194   0.562303
O    0.736350   -1.077192   0.181402
H   -1.401877    2.084205   1.281212
H   -1.925286    1.392615   2.679055
H    0.585521    0.995830   1.805592
C   -0.340953   -0.480057   3.091241
C    0.946096   -1.262363   3.356164
C    0.863347   -2.131608   4.612451
C    2.144597   -2.935921   4.898299
N    2.536957   -3.948787   3.916052
H   -0.534665    0.197448   3.941297
H   -1.198805   -1.171500   3.043266
H    1.787671   -0.555783   3.453726
H    1.174744   -1.884575   2.479315
H    0.014874   -2.832257   4.521392
H    0.644764   -1.499124   5.490736
H    2.036442   -3.440604   5.870551
H    2.991921   -2.240267   5.011591
H    2.724260   -3.526590   3.006406
H    1.784102   -4.623582   3.773575
O   -1.465142   -0.662883  -0.045840
H   -2.057981   -0.040346   0.463925
