 24
Energy: -13526.71507915.7 eV PBE+vdW (tier 2 basis)
N    2.339493   -0.179383   2.263916
C    1.001732   -0.275769   1.637727
C    1.073501    0.338370   0.212299
O    2.316210    0.701842  -0.143708
H    2.338907    0.495137   3.028084
H    2.854299    0.475598   0.673104
H    0.770759   -1.340552   1.469653
C   -0.146871    0.357576   2.436668
C   -0.744402   -0.502004   3.557889
C    0.178869   -0.849669   4.730111
C   -0.537480   -1.554733   5.897083
N   -1.109569   -2.877318   5.637131
H   -0.940662    0.598079   1.716402
H    0.202117    1.324521   2.841353
H   -1.139397   -1.428788   3.109282
H   -1.621878    0.034337   3.956803
H    0.643734    0.073962   5.118682
H    1.008087   -1.494427   4.393038
H   -1.351994   -0.908890   6.262983
H    0.167080   -1.658186   6.736353
H   -0.395311   -3.524012   5.299859
H   -1.832348   -2.834343   4.919010
O    0.106212    0.453743  -0.507795
H    2.651912   -1.069090   2.645073
