 24
Energy: -13526.63648615.7 eV PBE+vdW (tier 2 basis)
N    0.104375   -0.376146  -0.279751
C    0.116315   -0.326303   1.181053
C    1.495689   -0.273592   1.841003
O    1.774783    0.373675   2.828847
H    0.650755   -1.172597  -0.610643
H    0.534659    0.460165  -0.673720
H   -0.382264    0.603012   1.494337
C   -0.665992   -1.518327   1.773529
C   -2.160852   -1.468240   1.442082
C   -2.931342   -2.734844   1.831479
C   -2.971942   -3.021917   3.332834
N   -3.778919   -4.217874   3.605882
H   -0.509371   -1.527117   2.862218
H   -0.225076   -2.452622   1.385870
H   -2.271359   -1.294561   0.362713
H   -2.609344   -0.593617   1.943468
H   -2.508416   -3.612055   1.316380
H   -3.967749   -2.639479   1.465705
H   -3.322989   -2.111346   3.861490
H   -1.955941   -3.224626   3.704203
H   -3.769225   -4.438837   4.601542
H   -4.755031   -4.050763   3.356351
O    2.406514   -1.073047   1.208485
H    3.231658   -0.993752   1.724931
