 24
Energy: -13526.61862015.7 eV PBE+vdW (tier 2 basis)
N    1.125285   -0.212187   0.261087
C    0.218020    0.002646   1.387105
C    0.832312   -0.113404   2.794693
O    0.221264   -0.342048   3.821119
H    1.479897   -1.169090   0.266691
H    1.940480    0.395473   0.334745
H   -0.112217    1.056535   1.335523
C   -1.036530   -0.873458   1.283718
C   -0.758899   -2.386368   1.328410
C   -1.992707   -3.231386   1.693681
C   -2.226722   -3.414301   3.198190
N   -2.528699   -2.158739   3.898796
H   -1.538369   -0.621650   0.338798
H   -1.724125   -0.595592   2.091087
H    0.040681   -2.606045   2.058537
H   -0.373362   -2.711902   0.350292
H   -1.881864   -4.236624   1.258049
H   -2.893373   -2.788946   1.238578
H   -1.351277   -3.951519   3.620005
H   -3.091314   -4.082002   3.330100
H   -2.891671   -2.359629   4.829954
H   -1.682334   -1.601324   4.035848
O    2.175595    0.119509   2.798744
H    2.448118    0.070474   3.735814
