 24
Energy: -13526.64912015.7 eV PBE+vdW (tier 2 basis)
N    3.353151   -2.193812   2.664260
C    1.940395   -1.816209   2.591471
C    1.811265   -0.782595   1.481683
O    0.724030   -0.997269   0.693335
H    3.924476   -1.346451   2.690490
H    0.716311   -0.267484   0.042411
H    1.352711   -2.700041   2.300744
C    1.353626   -1.240175   3.906566
C   -0.141122   -0.911267   3.879311
C   -0.678677   -0.466309   5.241606
C   -2.175538   -0.109137   5.245636
N   -2.596520    1.041496   4.441376
H    1.935316   -0.344360   4.178205
H    1.548370   -1.990156   4.691274
H   -0.707176   -1.792820   3.532871
H   -0.328006   -0.120311   3.135306
H   -0.101693    0.404169   5.599622
H   -0.509820   -1.268452   5.980613
H   -2.492251    0.079631   6.282724
H   -2.758850   -0.980004   4.905296
H   -2.401678    0.888627   3.451886
H   -2.081145    1.879591   4.714552
O    2.567058    0.153154   1.320817
H    3.532768   -2.709815   3.525946
