 24
Energy: -13526.70395315.7 eV PBE+vdW (tier 2 basis)
N   -1.112409    0.946984   2.035629
C   -0.326320   -0.243724   1.650685
C   -1.006882   -0.932987   0.440878
O   -0.643424   -1.998381  -0.006369
H   -0.520063    1.747237   2.245247
H   -1.677781    0.760534   2.864686
H    0.644280    0.107467   1.262525
C   -0.069013   -1.251747   2.776245
C    0.882201   -0.738953   3.862137
C    1.139596   -1.728165   5.012969
C    2.294219   -2.725818   4.797672
N    2.194181   -3.704008   3.713390
H   -1.037964   -1.527955   3.229168
H    0.313921   -2.169049   2.312175
H    0.475030    0.195232   4.281732
H    1.845509   -0.460323   3.398750
H    0.212948   -2.284613   5.236059
H    1.373261   -1.159674   5.927986
H    2.439829   -3.285538   5.735204
H    3.226804   -2.160093   4.639938
H    2.205524   -3.255168   2.798414
H    1.324223   -4.234191   3.772815
O   -2.020677   -0.216999  -0.076209
H   -2.055991    0.586933   0.519278
