 24
Energy: -13526.53498615.7 eV PBE+vdW (tier 2 basis)
N    0.244686   -0.675569   0.128354
C    0.300869   -0.543345   1.584655
C    1.587000   -1.140438   2.135937
O    2.191496   -0.720364   3.099233
H    0.252993   -1.660067  -0.141796
H   -0.622296   -0.273082  -0.227420
H    0.367778    0.526229   1.826568
C   -0.878770   -1.161377   2.387168
C   -2.276458   -0.629300   2.039538
C   -2.547196    0.850405   2.364966
C   -2.205648    1.842318   1.248901
N   -2.579937    3.203769   1.644444
H   -0.686259   -0.998236   3.459490
H   -0.865220   -2.251614   2.225343
H   -2.994437   -1.248908   2.596595
H   -2.500127   -0.822748   0.976075
H   -2.014119    1.147855   3.281379
H   -3.619874    0.967483   2.591599
H   -2.690251    1.497467   0.310927
H   -1.123017    1.851254   1.055181
H   -3.594226    3.284923   1.729945
H   -2.291182    3.879156   0.937241
O    1.965965   -2.265715   1.463971
H    2.770987   -2.585553   1.915048
