 24
Energy: -13526.58925415.7 eV PBE+vdW (tier 2 basis)
N    0.437653   -0.488259  -0.002355
C   -0.085366   -0.232854   1.343268
C    1.040429   -0.158051   2.370174
O    0.942967   -0.432143   3.550050
H    1.157870    0.189013  -0.249796
H   -0.316323   -0.395293  -0.682944
H   -0.567200    0.767555   1.438877
C   -1.133154   -1.275211   1.749437
C   -0.639047   -2.731055   1.719611
C   -1.511489   -3.690783   2.547624
C   -1.137700   -3.785742   4.031862
N   -1.312763   -2.519868   4.758722
H   -1.998300   -1.167771   1.074842
H   -1.503351   -1.017631   2.749546
H    0.398417   -2.782554   2.090098
H   -0.589095   -3.072003   0.676845
H   -1.427629   -4.705329   2.127458
H   -2.572123   -3.403103   2.460868
H   -0.105997   -4.189241   4.101850
H   -1.794545   -4.531499   4.504544
H   -1.265328   -2.688177   5.763110
H   -0.554312   -1.868691   4.542565
O    2.192837    0.334032   1.837772
H    2.828431    0.385475   2.577812
