 24
Energy: -13526.59774115.7 eV PBE+vdW (tier 2 basis)
N    0.348053   -0.745823   0.017206
C    0.254127   -0.368461   1.427163
C    1.590359   -0.545682   2.132255
O    2.000236    0.156851   3.031871
H    0.531419   -1.745523  -0.079034
H   -0.532917   -0.550468  -0.457746
H    0.054094    0.711068   1.470365
C   -0.821084   -1.106171   2.275885
C   -2.257315   -0.932757   1.769243
C   -2.773433    0.508710   1.785768
C   -4.254657    0.614202   1.426499
N   -4.680623    2.017992   1.375748
H   -0.750346   -0.742725   3.313576
H   -0.568267   -2.178429   2.296281
H   -2.912600   -1.560390   2.394354
H   -2.345492   -1.345323   0.749660
H   -2.207734    1.142441   1.085391
H   -2.610615    0.942431   2.787996
H   -4.840640   -0.008631   2.132995
H   -4.416210    0.183272   0.425495
H   -5.656450    2.087164   1.087280
H   -4.623981    2.440002   2.303999
O    2.268420   -1.642928   1.689564
H    3.083982   -1.684699   2.225285
