 24
Energy: -13526.87703115.7 eV PBE+vdW (tier 2 basis)
N    1.620316   -0.364789   3.880711
C    0.698556   -1.010639   2.926220
C    1.513510   -1.592707   1.747226
O    2.797029   -1.192544   1.757088
H    1.258121    0.535294   4.229722
H    2.839127   -0.644849   2.602451
H    0.159512   -1.859267   3.379151
C   -0.327123   -0.008511   2.377357
C   -1.333017    0.476182   3.440012
C   -1.625777    1.983021   3.407511
C   -0.398171    2.885483   3.581186
N    0.427317    2.472301   4.731688
H   -0.845857   -0.477709   1.532231
H    0.235318    0.839942   1.955838
H   -0.958257    0.217591   4.441332
H   -2.279537   -0.071321   3.326108
H   -2.357259    2.216193   4.199299
H   -2.113868    2.257529   2.458910
H   -0.741435    3.934200   3.644647
H    0.243239    2.826116   2.689243
H   -0.115129    2.534089   5.595757
H    1.215641    3.110490   4.844479
O    1.036290   -2.312054   0.895898
H    1.805454   -0.960040   4.685935
