 24
Energy: -13526.48537815.7 eV PBE+vdW (tier 2 basis)
N   -0.417064    1.388811   1.939333
C   -0.494906    0.107950   2.620329
C    0.800059   -0.395802   3.305240
O    1.913535    0.342160   3.057827
H    0.048973    1.404974   1.038001
H    1.617892    1.086026   2.488323
H   -1.222410    0.209427   3.442539
C   -1.008182   -0.986965   1.666724
C   -2.453256   -0.771538   1.206911
C   -2.930225   -1.759530   0.135490
C   -3.023723   -3.213593   0.598788
N   -3.614734   -4.049990  -0.455954
H   -0.897933   -1.947864   2.185088
H   -0.337370   -1.029481   0.789180
H   -2.556608    0.252553   0.820127
H   -3.119357   -0.833476   2.084424
H   -2.257767   -1.700712  -0.739204
H   -3.924430   -1.456608  -0.225743
H   -3.688194   -3.267105   1.476016
H   -2.030199   -3.567359   0.935934
H   -2.992855   -4.086153  -1.265586
H   -3.715408   -5.012193  -0.132050
O    0.836113   -1.376260   4.011262
H   -0.254953    2.215727   2.501999
