 24
Energy: -13526.74441415.7 eV PBE+vdW (tier 2 basis)
N   -0.496345    0.571097   0.973214
C    0.603922   -0.068837   1.723936
C    1.857502   -0.152118   0.818143
O    1.717028    0.512565  -0.343834
H    0.784303    0.870468  -0.288388
H   -1.011570    1.237617   1.544168
H    0.895587    0.616386   2.535593
C    0.271053   -1.444557   2.317479
C   -0.816402   -1.436882   3.398920
C   -0.426609   -0.703166   4.686069
C   -1.531550   -0.679574   5.745126
N   -1.846014   -2.027772   6.236107
H    1.202772   -1.869040   2.716873
H   -0.033462   -2.109087   1.490952
H   -1.052177   -2.485428   3.637030
H   -1.748799   -1.000804   2.996871
H   -0.157761    0.342110   4.460428
H    0.469508   -1.175105   5.118472
H   -2.410552   -0.139428   5.335059
H   -1.180060   -0.092366   6.605664
H   -2.386185   -2.551917   5.547742
H   -2.425036   -1.975833   7.073417
O    2.869905   -0.735986   1.134796
H   -1.165440   -0.124007   0.639791
