 24
Energy: -13526.81623615.7 eV PBE+vdW (tier 2 basis)
N   -0.837442    0.344822  -0.064467
C   -0.002533    0.136144   1.136695
C    1.488166    0.275547   0.732836
O    1.658764    0.814940  -0.484111
H   -1.096228   -0.547343  -0.487522
H    0.719990    0.924976  -0.815605
H   -0.187233    0.987796   1.811292
C   -0.232973   -1.165191   1.913424
C    0.011123   -2.433155   1.082842
C    0.247610   -3.695663   1.923101
C    1.506147   -3.641604   2.801293
N    2.706332   -3.353199   2.008058
H   -1.253937   -1.165918   2.325849
H    0.451358   -1.143908   2.772175
H    0.889342   -2.291317   0.432256
H   -0.840823   -2.616833   0.407833
H    0.339552   -4.552779   1.239407
H   -0.626175   -3.889204   2.567673
H    1.635204   -4.628409   3.269280
H    1.348952   -2.928691   3.635418
H    3.542782   -3.616787   2.526729
H    2.789878   -2.350050   1.827219
O    2.410625   -0.046140   1.453325
H   -1.699866    0.837344   0.158879
