 24
Energy: -13526.43847015.7 eV PBE+vdW (tier 2 basis)
N   -0.309834    1.036402   2.681973
C    0.850813    0.361344   2.077786
C    1.207094    1.005723   0.725603
O    0.612328    0.479990  -0.391020
H   -0.110305    2.030296   2.801535
H    0.134927   -0.334066  -0.146820
H    1.715023    0.577445   2.720398
C    0.621528   -1.155769   2.024337
C    0.480760   -1.819062   3.402249
C    1.776586   -1.867508   4.216302
C    1.622488   -2.556606   5.584590
N    0.761609   -1.903032   6.573379
H    1.449549   -1.625309   1.468629
H   -0.303425   -1.365135   1.451830
H    0.114745   -2.848254   3.257069
H   -0.298865   -1.281933   3.962574
H    2.164865   -0.848760   4.382195
H    2.551796   -2.401686   3.639870
H    2.618897   -2.670382   6.037741
H    1.239179   -3.579304   5.435981
H   -0.196237   -1.824646   6.231482
H    1.082563   -0.950838   6.754785
O    1.910630    1.983386   0.625465
H   -1.124713    0.971706   2.068065
