 24
Energy: -13526.59729315.7 eV PBE+vdW (tier 2 basis)
N   -0.349310   -0.577686  -0.484992
C   -0.199639   -0.223230   0.933692
C    1.271419   -0.155831   1.345792
O    1.890567    0.859521   1.592637
H    0.062314   -1.494687  -0.667030
H    0.138087    0.094803  -1.078150
H   -0.583311    0.798702   1.052653
C   -1.015942   -1.195957   1.793841
C   -0.999606   -0.961831   3.311650
C   -1.658196    0.341751   3.802028
C   -0.707750    1.531000   3.960181
N   -1.442961    2.712220   4.429558
H   -0.655429   -2.216465   1.588679
H   -2.049825   -1.149676   1.419759
H    0.034320   -1.021116   3.692483
H   -1.522350   -1.815162   3.767255
H   -2.124894    0.154413   4.783376
H   -2.482680    0.631295   3.131260
H   -0.246390    1.794583   2.998664
H    0.127366    1.228219   4.624312
H   -1.791152    2.561867   5.377955
H   -0.824825    3.522226   4.473727
O    1.863458   -1.388937   1.354973
H    2.801712   -1.230708   1.574584
