 24
Energy: -13526.79227715.7 eV PBE+vdW (tier 2 basis)
N   -1.189927    0.034785   0.748669
C   -0.166558    0.202601   1.799435
C    0.966248    1.112819   1.279735
O    1.964725    1.357217   1.926360
H   -2.130794    0.190556   1.103208
H   -1.163120   -0.904500   0.351573
H   -0.607795    0.772085   2.633201
C    0.410951   -1.108321   2.349709
C   -0.519985   -1.885723   3.287097
C   -1.003084   -1.139605   4.542737
C    0.083459   -0.509179   5.430720
N    0.488493    0.831612   4.978261
H    1.355839   -0.873117   2.858304
H    0.694227   -1.749112   1.496564
H    0.010030   -2.799886   3.598762
H   -1.404982   -2.235473   2.729140
H   -1.573929   -1.860124   5.149227
H   -1.713646   -0.341388   4.274572
H    0.929304   -1.218851   5.533225
H   -0.336460   -0.388979   6.439352
H    0.898520    1.355295   5.749877
H    1.199189    0.805656   4.244223
O    0.726178    1.628201   0.063658
H   -0.165884    1.236431  -0.170607
