 24
Energy: -13526.68742815.7 eV PBE+vdW (tier 2 basis)
N   -0.300976    0.449738   0.133072
C   -0.206983   -0.142879   1.461994
C    1.232980   -0.390570   1.911316
O    2.178299   -0.563679   1.169546
H    0.349140   -0.030084  -0.493966
H   -0.001940    1.424471   0.157565
H   -0.665120    0.546468   2.186012
C   -0.970060   -1.489596   1.508163
C   -2.479226   -1.341364   1.285413
C   -3.232622   -0.748781   2.481415
C   -4.743377   -0.639017   2.267550
N   -5.072345    0.384143   1.265397
H   -0.776729   -1.981165   2.474136
H   -0.539035   -2.140346   0.730649
H   -2.897441   -2.335936   1.059373
H   -2.627189   -0.722421   0.387721
H   -2.851200    0.257090   2.717517
H   -3.049499   -1.377097   3.368770
H   -5.214668   -0.332029   3.212947
H   -5.144875   -1.645669   2.027273
H   -4.748793    0.100643   0.340104
H   -6.083048    0.498408   1.192395
O    1.347086   -0.426575   3.269736
H    2.284119   -0.631576   3.457541
