 24
Energy: -13526.67388315.7 eV PBE+vdW (tier 2 basis)
N   -0.099491    1.448821   1.376631
C    0.560511    0.152578   1.542448
C    1.957294    0.126541   0.916493
O    2.241606    0.589096  -0.169488
H    0.425594    2.176249   1.864257
H   -0.084621    1.706241   0.386733
H    0.665597   -0.044451   2.619209
C   -0.309141   -0.952739   0.915085
C    0.194392   -2.379338   1.148994
C   -0.761615   -3.459515   0.625470
C   -0.880356   -3.533761  -0.901025
N    0.418335   -3.834869  -1.517827
H   -0.388838   -0.745048  -0.164051
H   -1.317450   -0.826930   1.338295
H    0.348678   -2.533900   2.228715
H    1.173898   -2.520792   0.669547
H   -1.768861   -3.307196   1.046921
H   -0.425926   -4.442506   0.996878
H   -1.215964   -2.563866  -1.298179
H   -1.675146   -4.262201  -1.154864
H    0.693378   -4.797549  -1.317807
H    0.365880   -3.751083  -2.532239
O    2.876822   -0.479493   1.720787
H    3.717423   -0.472287   1.221015
