 24
Energy: -13526.64133515.7 eV PBE+vdW (tier 2 basis)
N    0.929609    0.206319   0.438603
C    1.050855   -0.636406   1.632712
C    2.345307   -1.450002   1.680533
O    3.189844   -1.386736   2.549736
H    1.711507    0.859177   0.377198
H    0.954249   -0.368718  -0.405090
H    1.102796    0.031065   2.503613
C   -0.182431   -1.545988   1.751686
C   -0.202489   -2.467123   2.980301
C   -0.148526   -1.765123   4.344992
C   -1.309933   -0.806586   4.606823
N   -1.204208   -0.227873   5.951608
H   -0.247606   -2.163070   0.841843
H   -1.060682   -0.884515   1.738393
H    0.636462   -3.178532   2.918802
H   -1.115065   -3.081939   2.924412
H    0.799210   -1.220500   4.470521
H   -0.149551   -2.540981   5.128899
H   -2.265362   -1.339879   4.419168
H   -1.277045    0.029301   3.891139
H   -1.300456   -0.956734   6.660346
H   -1.957622    0.439195   6.117390
O    2.473790   -2.276159   0.596971
H    3.329344   -2.732595   0.711366
