 24
Energy: -13526.84579115.7 eV PBE+vdW (tier 2 basis)
N   -0.577258   -1.424489   1.122625
C    0.290304   -0.299181   1.522808
C    1.541602   -0.270409   0.609636
O    1.575894   -1.300028  -0.251614
H   -0.764884   -2.054312   1.917715
H    0.713709   -1.779509  -0.032365
H   -0.217611    0.666327   1.365617
C    0.725182   -0.399302   2.990432
C   -0.420989   -0.163318   3.998341
C   -0.478642   -1.165532   5.163937
C   -1.308997   -2.422619   4.890837
N   -0.837082   -3.178613   3.713682
H    1.537086    0.320729   3.152729
H    1.169070   -1.395704   3.139110
H   -1.389967   -0.189607   3.473562
H   -0.329533    0.854970   4.401278
H   -0.918065   -0.682012   6.049534
H    0.545212   -1.450282   5.461188
H   -2.347196   -2.119789   4.681816
H   -1.338324   -3.036612   5.810345
H    0.101670   -3.544813   3.885717
H   -1.431779   -3.994939   3.564687
O    2.397107    0.586795   0.676570
H   -1.464507   -1.109752   0.737812
