 24
Energy: -13526.57838515.7 eV PBE+vdW (tier 2 basis)
N    0.081936   -1.175486   0.195412
C   -0.091792   -0.109469   1.183566
C    1.236329    0.418839   1.714930
O    1.347048    1.159427   2.669145
H    0.787779   -0.926745  -0.495636
H   -0.795042   -1.331300  -0.300764
H   -0.564763    0.803494   0.760105
C   -0.988855   -0.575929   2.346320
C   -0.437261   -1.763809   3.136239
C   -1.399104   -2.238483   4.227635
C   -0.860439   -3.391748   5.077643
N    0.333478   -2.985861   5.832536
H   -1.974109   -0.830283   1.919820
H   -1.150642    0.282678   3.013906
H    0.520779   -1.491070   3.602428
H   -0.222765   -2.592301   2.444752
H   -2.351948   -2.558841   3.774204
H   -1.653381   -1.393702   4.892876
H   -0.564916   -4.221315   4.415783
H   -1.680825   -3.774980   5.716409
H    0.085600   -2.293081   6.540718
H    0.731785   -3.780903   6.331250
O    2.307043    0.023843   0.969399
H    3.083392    0.449880   1.381937
