 24
Energy: -13526.61115415.7 eV PBE+vdW (tier 2 basis)
N   -0.307088    0.620881   0.139671
C   -0.106927    0.094996   1.491040
C    1.375572   -0.010639   1.815558
O    1.866546    0.185081   2.906977
H    0.066074   -0.026463  -0.556054
H   -1.303406    0.728824  -0.048331
H   -0.504215    0.835887   2.200332
C   -0.763637   -1.275685   1.812685
C   -2.290263   -1.247451   1.738030
C   -2.928801   -2.597961   2.073934
C   -4.459481   -2.579443   2.072299
N   -4.981588   -1.684792   3.114985
H   -0.452915   -1.578890   2.825613
H   -0.359736   -2.030872   1.117209
H   -2.612987   -0.950473   0.725498
H   -2.684998   -0.483881   2.425332
H   -2.575846   -2.935787   3.064238
H   -2.587056   -3.362459   1.357349
H   -4.827113   -3.620987   2.154638
H   -4.816428   -2.198330   1.102247
H   -5.993157   -1.587919   3.033098
H   -4.802506   -2.077635   4.040396
O    2.110860   -0.426514   0.744076
H    3.030908   -0.494744   1.064509
