 24
Energy: -13526.63666015.7 eV PBE+vdW (tier 2 basis)
N   -0.073403    0.496084   0.364114
C    0.067065   -0.148401   1.671751
C    1.482244   -0.682349   1.897905
O    2.138139   -1.291037   1.077282
H    0.244372   -0.149907  -0.362613
H    0.540585    1.309833   0.304967
H   -0.137872    0.603759   2.447171
C   -0.982385   -1.272270   1.794265
C   -1.081495   -1.969769   3.160846
C   -0.144812   -3.166740   3.356158
C   -0.293885   -3.816040   4.730123
N    0.664933   -4.916639   4.894261
H   -0.789800   -2.016388   1.003673
H   -1.938946   -0.793740   1.543165
H   -2.118662   -2.315186   3.294091
H   -0.909167   -1.232420   3.962911
H    0.908252   -2.881246   3.227556
H   -0.353458   -3.916861   2.573588
H   -1.351886   -4.116944   4.875231
H   -0.074045   -3.067318   5.507748
H    0.582011   -5.328536   5.823750
H    0.462080   -5.664675   4.229150
O    1.951742   -0.386933   3.144445
H    2.841881   -0.788128   3.202169
