 24
Energy: -13526.63074015.7 eV PBE+vdW (tier 2 basis)
N    0.338668    0.274399  -0.246360
C   -0.200225    0.274475   1.115172
C    0.975319    0.438788   2.066059
O    2.044433   -0.122770   1.946000
H    1.127882   -0.373913  -0.292894
H   -0.369156   -0.058611  -0.901449
H   -0.855699    1.148882   1.231855
C   -0.987727   -1.011514   1.491087
C   -1.625351   -1.058968   2.885747
C   -2.692897    0.009202   3.140644
C   -3.401272   -0.170657   4.482196
N   -4.389394    0.893518   4.698972
H   -0.303938   -1.865664   1.366043
H   -1.776227   -1.125941   0.728412
H   -0.842864   -0.986020   3.658515
H   -2.075564   -2.056835   3.014184
H   -3.442262   -0.024739   2.329520
H   -2.254802    1.017455   3.117656
H   -2.658843   -0.102932   5.292999
H   -3.826121   -1.194362   4.531192
H   -5.150527    0.813650   4.022803
H   -4.814585    0.805814   5.621886
O    0.688582    1.264925   3.107865
H    1.485185    1.269229   3.674854
