 24
Energy: -13526.64976015.7 eV PBE+vdW (tier 2 basis)
N    0.318583   -0.361268  -0.228783
C    0.079254   -0.358891   1.211779
C    1.304802   -0.543012   2.108504
O    1.460154   -0.021161   3.193346
H    0.984718    0.366626  -0.486214
H    0.728809   -1.249939  -0.519485
H   -0.320479    0.627284   1.489060
C   -0.960128   -1.436892   1.596112
C   -2.318168   -1.283252   0.903972
C   -3.051332    0.020841   1.228008
C   -4.499895    0.044332   0.732050
N   -5.317344   -0.960390   1.428169
H   -1.090732   -1.409635   2.689009
H   -0.535848   -2.426147   1.357508
H   -2.955682   -2.127418   1.203801
H   -2.182201   -1.357082  -0.185438
H   -2.523343    0.877547   0.781051
H   -3.045035    0.193158   2.319587
H   -4.517724   -0.201764  -0.341388
H   -4.892533    1.075596   0.824746
H   -6.242007   -1.028854   1.004298
H   -5.464115   -0.683882   2.400126
O    2.225393   -1.399425   1.571298
H    2.936547   -1.471135   2.236934
