 24
Energy: -13526.64912815.7 eV PBE+vdW (tier 2 basis)
N    0.175905    0.041215   0.269009
C   -0.244535   -0.114405   1.673834
C    0.979294   -0.417015   2.539264
O    1.609565   -1.456123   2.522421
H    0.658103   -0.807428  -0.036958
H    0.849291    0.804547   0.182992
H   -0.671251    0.845602   1.997498
C   -1.310045   -1.213925   1.775591
C   -2.183797   -1.179936   3.039090
C   -1.488681   -1.435524   4.384049
C   -0.872049   -2.826596   4.533767
N   -0.274821   -2.976932   5.867644
H   -0.818465   -2.193086   1.663556
H   -1.957494   -1.086334   0.896167
H   -2.986910   -1.923532   2.909104
H   -2.690667   -0.202542   3.086922
H   -2.235821   -1.295933   5.183885
H   -0.710898   -0.682188   4.581310
H   -0.064567   -2.959812   3.800597
H   -1.644968   -3.587915   4.299985
H   -1.001774   -3.012952   6.583871
H    0.240289   -3.854491   5.932353
O    1.352730    0.653729   3.297621
H    2.153686    0.373367   3.783653
