 24
Energy: -13526.70321115.7 eV PBE+vdW (tier 2 basis)
N    1.095315   -1.804679   2.227733
C    1.445880   -0.790353   1.246993
C    0.327872    0.209212   0.924151
O   -0.868815   -0.011898   0.936880
H    0.879912   -1.366299   3.123022
H    0.258750   -2.337047   1.949681
H    2.274974   -0.194985   1.658506
C    1.974260   -1.389588  -0.083299
C    0.978191   -2.154410  -0.971404
C    0.632121   -3.598130  -0.522824
C   -0.857859   -3.864356  -0.296804
N   -1.375024   -3.124985   0.865208
H    2.812324   -2.049298   0.187618
H    2.399540   -0.557785  -0.664331
H    1.410656   -2.192235  -1.981306
H    0.055407   -1.562257  -1.084119
H    1.171804   -3.843376   0.403159
H    0.988539   -4.307809  -1.284028
H   -0.992986   -4.936460  -0.091287
H   -1.414074   -3.651402  -1.232017
H   -2.285082   -3.487131   1.146089
H   -1.505584   -2.131338   0.659017
O    0.828215    1.431348   0.582495
H    0.055663    1.986260   0.356863
