 24
Energy: -13526.70367515.7 eV PBE+vdW (tier 2 basis)
N    0.510205    0.255784   0.832891
C    0.157288    0.312608   2.265128
C    1.210924    1.175745   2.993692
O    2.357692    1.310913   2.297689
H    0.212580   -0.623932   0.412377
H    2.153402    0.865453   1.427169
H   -0.822007    0.784021   2.446548
C    0.140960   -1.113089   2.853026
C   -0.393328   -1.209871   4.285894
C   -0.260562   -2.603617   4.911593
C   -1.080252   -3.700629   4.232244
N   -1.006288   -4.948195   5.004705
H    1.161297   -1.529404   2.802811
H   -0.479698   -1.728765   2.180754
H   -1.452069   -0.900736   4.297651
H    0.136960   -0.483261   4.916023
H   -0.570430   -2.556288   5.965999
H    0.803915   -2.898041   4.919806
H   -0.755488   -3.816820   3.178825
H   -2.137707   -3.391374   4.201419
H   -1.561480   -5.679533   4.560241
H   -0.044703   -5.291868   5.028524
O    1.042426    1.656943   4.092377
H    0.072364    1.011953   0.307611
