 24
Energy: -13526.65120715.7 eV PBE+vdW (tier 2 basis)
N    0.318000    0.116967   1.432169
C    1.415853   -0.137907   2.363098
C    2.109472   -1.480559   2.123246
O    3.337125   -1.531576   2.714598
H   -0.241678   -0.730767   1.322023
H    3.682946   -2.429175   2.541814
H    2.171988    0.645060   2.202833
C    0.983040   -0.029324   3.849862
C    0.240404   -1.221461   4.471622
C   -1.133517   -1.586860   3.887727
C   -2.165313   -0.455176   3.876942
N   -2.383646    0.078037   5.229635
H    0.376798    0.883673   3.928783
H    1.890606    0.143840   4.445881
H    0.110269   -0.989589   5.538329
H    0.882724   -2.116283   4.432559
H   -1.537069   -2.429604   4.475195
H   -1.029649   -1.980712   2.864683
H   -3.087786   -0.832012   3.392694
H   -1.800980    0.370071   3.248215
H   -2.849442   -0.616754   5.815653
H   -2.999726    0.889725   5.199028
O    1.642150   -2.416306   1.507133
H    0.696432    0.310691   0.504278
