 24
Energy: -13526.76797615.7 eV PBE+vdW (tier 2 basis)
N   -0.179951    0.517308   1.179868
C    0.436578   -0.727547   1.682467
C    1.320786   -1.343644   0.570595
O    1.467222   -0.538117  -0.497537
H   -1.153060    0.363799   0.912589
H    0.914045    0.260081  -0.256331
H    1.146050   -0.448915   2.477637
C   -0.549057   -1.768792   2.230117
C   -1.338218   -1.323182   3.466473
C   -0.476547   -1.008537   4.692145
C   -1.301992   -0.725619   5.946275
N   -0.434847   -0.325020   7.060790
H    0.023368   -2.680832   2.450352
H   -1.249717   -2.040067   1.422172
H   -2.051053   -2.124058   3.719613
H   -1.959202   -0.443432   3.223685
H    0.168760   -0.134607   4.510205
H    0.204058   -1.855597   4.886901
H   -1.937480   -1.607875   6.164500
H   -1.990347    0.110920   5.745710
H    0.167577   -1.101465   7.338643
H   -0.991886   -0.086074   7.881075
O    1.846822   -2.430531   0.663842
H   -0.170990    1.256427   1.879619
