 24
Energy: -13526.62295515.7 eV PBE+vdW (tier 2 basis)
N    1.081299    0.957110   1.609018
C    1.748019    0.284006   2.718375
C    2.574310   -0.861738   2.157395
O    3.521979   -1.279180   3.040969
H    0.849652    0.279988   0.880667
H    3.971493   -2.034143   2.614270
H    2.458885    0.981987   3.191725
C    0.818089   -0.241678   3.848563
C   -0.114957   -1.384773   3.441855
C   -1.119678   -1.795920   4.528997
C   -2.125865   -0.715181   4.935249
N   -2.967129   -0.310295   3.800509
H    0.237715    0.628487   4.196199
H    1.441046   -0.550534   4.702318
H    0.486279   -2.268094   3.175848
H   -0.658170   -1.119974   2.520539
H   -0.571774   -2.114420   5.431033
H   -1.682561   -2.671217   4.171617
H   -1.594091    0.129278   5.418158
H   -2.791575   -1.134374   5.703748
H   -2.420090    0.201466   3.107272
H   -3.701735    0.325475   4.110266
O    2.411014   -1.381850   1.073444
H    0.221842    1.408578   1.917966
