 24
Energy: -13526.56003615.7 eV PBE+vdW (tier 2 basis)
N    0.293511   -0.552314   0.101259
C   -0.004496    0.220203   1.305829
C    1.219597    0.952770   1.840714
O    1.177056    1.792319   2.716455
H   -0.530007   -1.085776  -0.178817
H    1.043841   -1.222187   0.269017
H   -0.677347    1.041807   1.007962
C   -0.741330   -0.529849   2.455523
C   -0.107540   -1.828451   2.963342
C    1.218998   -1.675119   3.715840
C    1.650989   -2.951561   4.444127
N    0.702122   -3.301121   5.510636
H   -1.750778   -0.756753   2.077367
H   -0.876428    0.178083   3.287637
H    0.031572   -2.530485   2.123075
H   -0.826158   -2.314699   3.638835
H    1.136910   -0.853861   4.448710
H    2.028705   -1.385728   3.029202
H    2.691553   -2.823248   4.800480
H    1.667013   -3.790090   3.729506
H    0.923587   -4.214094   5.906354
H    0.767756   -2.628675   6.276185
O    2.388054    0.572495   1.252067
H    3.081005    1.106805   1.686756
