 24
Energy: -13526.67354615.7 eV PBE+vdW (tier 2 basis)
N    0.592056    0.008085   0.220608
C   -0.241752    0.057405   1.423881
C    0.492386    0.519724   2.684549
O    0.155518    1.444786   3.396425
H    1.369986   -0.639618   0.355164
H    0.996837    0.923482   0.022206
H   -1.016130    0.817974   1.256393
C   -0.907207   -1.314499   1.647821
C   -1.708470   -1.451930   2.947117
C   -2.896528   -0.492595   3.079434
C   -3.542638   -0.509361   4.466681
N   -2.573694   -0.105105   5.494494
H   -0.115993   -2.080909   1.632020
H   -1.541880   -1.502217   0.768347
H   -1.047501   -1.313002   3.815677
H   -2.075140   -2.488265   3.019090
H   -3.662449   -0.732258   2.324465
H   -2.575647    0.541148   2.870212
H   -3.877771   -1.531699   4.707471
H   -4.452072    0.122559   4.436822
H   -2.217243    0.831742   5.296155
H   -3.013997   -0.068057   6.413024
O    1.605837   -0.228894   2.938946
H    1.988802    0.133193   3.761071
