 24
Energy: -13526.68156815.7 eV PBE+vdW (tier 2 basis)
N    0.114129   -1.073153  -0.266260
C    0.190553   -0.306435   0.972046
C    1.625809    0.034775   1.389456
O    2.630970   -0.485999   0.952190
H    0.403302   -0.489488  -1.051686
H    0.792606   -1.836774  -0.236238
H   -0.328894    0.650830   0.813231
C   -0.534908   -1.027675   2.131986
C    0.085677   -2.369070   2.530686
C   -0.674751   -3.087009   3.654172
C   -0.663214   -2.376505   5.011901
N    0.709399   -2.162620   5.490245
H   -1.575556   -1.178128   1.806843
H   -0.553622   -0.348053   2.995429
H    1.128001   -2.218529   2.849157
H    0.111765   -3.035661   1.655182
H   -0.246386   -4.095516   3.782797
H   -1.724201   -3.243974   3.355487
H   -1.294926   -2.957939   5.711844
H   -1.137101   -1.387130   4.922062
H    0.707780   -1.635485   6.362900
H    1.157953   -3.057575   5.692697
O    1.656676    1.006193   2.345030
H    2.597297    1.121827   2.582704
