 24
Energy: -13526.73932815.7 eV PBE+vdW (tier 2 basis)
N    2.070253    1.377202   2.273494
C    1.347636    0.089875   2.266307
C    1.405714   -0.500676   0.841640
O    1.707487    0.414454  -0.100597
H    1.658908    2.031392   2.938566
H    1.907110    1.235828   0.431946
H    1.806963   -0.654437   2.934539
C   -0.116437    0.326349   2.691881
C   -1.029590   -0.906734   2.733787
C   -0.582064   -2.040128   3.668159
C   -0.387465   -1.650475   5.143337
N   -1.555452   -1.129879   5.863457
H   -0.553707    1.074262   2.010956
H   -0.081965    0.800178   3.687975
H   -1.138673   -1.315384   1.720090
H   -2.033546   -0.560180   3.027991
H    0.352112   -2.482789   3.287411
H   -1.332790   -2.845472   3.612620
H    0.414760   -0.900412   5.237608
H   -0.026566   -2.531840   5.694584
H   -1.908197   -0.280203   5.421679
H   -2.320717   -1.805601   5.832212
O    1.174862   -1.662704   0.588524
H    3.050361    1.257375   2.526834
