 24
Energy: -13526.57911715.7 eV PBE+vdW (tier 2 basis)
N    1.485970    0.370737   0.891835
C    0.349140    0.219225   1.798344
C    0.610828   -0.833013   2.867072
O    0.019313   -0.894819   3.924497
H    1.741681   -0.520391   0.467700
H    1.244558    1.012007   0.135856
H    0.241326    1.160252   2.358901
C   -1.034432   -0.070502   1.146717
C   -1.130940   -1.399505   0.393317
C   -2.431263   -1.574257  -0.401094
C   -3.693923   -1.649897   0.458370
N   -4.873514   -1.881115  -0.384505
H   -1.244732    0.763258   0.456036
H   -1.793595   -0.017980   1.940852
H   -1.023263   -2.236181   1.103716
H   -0.283836   -1.484490  -0.305683
H   -2.357871   -2.500269  -0.995970
H   -2.547805   -0.754834  -1.128210
H   -3.850000   -0.694521   0.981266
H   -3.544628   -2.416870   1.246164
H   -4.824129   -2.804242  -0.818478
H   -5.724336   -1.871587   0.177758
O    1.546364   -1.751597   2.496239
H    1.602666   -2.384056   3.238761
