 24
Energy: -13526.68588115.7 eV PBE+vdW (tier 2 basis)
N    0.710295   -0.764795  -0.030600
C    0.168720   -0.237706   1.216241
C    1.245299    0.284596   2.169878
O    2.396089   -0.099837   2.208398
H    1.487072   -1.395123   0.181653
H    1.107042   -0.010219  -0.590911
H   -0.500386    0.603356   0.978236
C   -0.656254   -1.315937   1.955224
C   -1.918133   -1.733031   1.199282
C   -2.688408   -2.847625   1.911346
C   -3.953987   -3.302556   1.179868
N   -3.633590   -3.902100  -0.122741
H   -0.921244   -0.938256   2.955157
H   -0.004040   -2.191393   2.115553
H   -1.652047   -2.053949   0.184278
H   -2.577149   -0.855035   1.085027
H   -2.973892   -2.521145   2.925203
H   -2.025934   -3.720141   2.054156
H   -4.596385   -2.427786   0.990567
H   -4.527202   -3.973812   1.849696
H   -3.143772   -4.788721   0.006784
H   -4.485616   -4.114871  -0.640646
O    0.760215    1.237688   3.017483
H    1.500791    1.474527   3.609745
