 24
Energy: -13526.49135215.7 eV PBE+vdW (tier 2 basis)
N    0.315693    1.426096   3.142926
C    0.792273    0.483945   2.141941
C    0.617727    0.978018   0.692654
O    1.442327    0.404196  -0.239581
H    0.802958    2.317461   3.044691
H    2.044338   -0.220632   0.201905
H    1.872287    0.333129   2.318262
C    0.069417   -0.876310   2.286880
C    0.202219   -1.528052   3.667485
C    1.638486   -1.876005   4.065085
C    1.747815   -2.675746   5.365970
N    1.187732   -1.929227   6.499453
H    0.443122   -1.564862   1.510807
H   -0.996277   -0.714270   2.057268
H   -0.402050   -2.449843   3.665181
H   -0.236246   -0.873426   4.430453
H    2.231873   -0.951589   4.172727
H    2.122594   -2.459486   3.262989
H    2.805474   -2.975784   5.506098
H    1.168504   -3.607785   5.266746
H    1.731244   -1.081713   6.670573
H    1.234157   -2.483479   7.353858
O   -0.193538    1.802914   0.347874
H   -0.670127    1.632451   2.965754
