 24
Energy: -13526.67762115.7 eV PBE+vdW (tier 2 basis)
N   -0.532727   -0.672702  -0.423208
C   -0.119091   -0.330654   0.954766
C    1.395379   -0.003888   0.940113
O    1.889190    0.165549  -0.298880
H   -0.530259   -1.684358  -0.560927
H    1.102007   -0.027386  -0.886450
H   -0.600613    0.632214   1.194781
C   -0.498209   -1.359642   2.048288
C   -1.201937   -0.763902   3.279555
C   -0.342939    0.158842   4.155694
C    0.751418   -0.572144   4.950240
N    1.689637    0.279286   5.684215
H    0.400447   -1.912596   2.354929
H   -1.177115   -2.094082   1.589187
H   -1.580077   -1.595862   3.896377
H   -2.096960   -0.216958   2.937757
H   -1.001229    0.690235   4.862852
H    0.137614    0.933586   3.537778
H    1.351518   -1.191607   4.269862
H    0.277758   -1.262846   5.667971
H    2.239515    0.828778   5.021921
H    1.187206    0.946534   6.272071
O    2.065507    0.120006   1.942321
H   -1.475771   -0.344717  -0.623774
