 24
Energy: -13526.61960515.7 eV PBE+vdW (tier 2 basis)
N   -0.795356    0.837258   0.340697
C   -0.045041    0.466631   1.535518
C    1.437517    0.500959   1.206474
O    1.912738    0.521793   0.088796
H   -1.695937    0.362627   0.311443
H   -0.266766    0.575712  -0.492823
H   -0.187684    1.241393   2.310043
C   -0.469487   -0.874615   2.202428
C   -0.348156   -2.152062   1.363528
C    1.070849   -2.709445   1.200626
C    1.097537   -4.119861   0.603731
N    0.455385   -5.091942   1.500716
H   -1.523388   -0.736780   2.493094
H    0.088708   -0.986454   3.144867
H   -0.788094   -1.986968   0.365389
H   -0.962830   -2.931450   1.836399
H    1.573982   -2.727860   2.183657
H    1.678812   -2.057567   0.557447
H    2.142959   -4.377697   0.346201
H    0.534147   -4.122238  -0.342808
H    0.350999   -5.994610   1.038668
H    1.038816   -5.253057   2.323010
O    2.205439    0.505290   2.330178
H    3.131374    0.510003   2.020009
