 24
Energy: -13526.61457815.7 eV PBE+vdW (tier 2 basis)
N    0.521894    0.254342  -0.104183
C   -0.461667    0.191671   0.983504
C    0.212970    0.551964   2.301040
O   -0.196965    1.363000   3.104416
H    1.204371   -0.499088  -0.003810
H    0.050925    0.110873  -0.998329
H   -1.188241    0.996057   0.811242
C   -1.210025   -1.161780   1.115242
C   -2.127582   -1.310701   2.335135
C   -3.276525   -0.299109   2.406859
C   -4.077303   -0.375738   3.708755
N   -3.211901   -0.114452   4.866445
H   -0.452227   -1.960938   1.132715
H   -1.786429   -1.296567   0.184319
H   -1.537080   -1.238298   3.260320
H   -2.546733   -2.329899   2.332268
H   -3.963232   -0.445708   1.557279
H   -2.884473    0.726510   2.311298
H   -4.496503   -1.388632   3.826828
H   -4.939267    0.315845   3.629346
H   -3.754085   -0.104472   5.729481
H   -2.771296    0.803362   4.779535
O    1.338105   -0.187609   2.512829
H    1.686928    0.095813   3.379962
