 24
Energy: -13526.64553115.7 eV PBE+vdW (tier 2 basis)
N    0.462398    0.242812  -0.235143
C   -0.098539    0.140561   1.108958
C    0.760455    0.685956   2.251822
O    0.331733    1.219325   3.253948
H    0.630917    1.217083  -0.483938
H    1.364530   -0.232965  -0.281683
H   -1.018580    0.741351   1.140863
C   -0.456839   -1.326283   1.440052
C   -1.482018   -1.951837   0.487462
C   -2.868984   -1.307174   0.537877
C   -3.898810   -2.049958  -0.311388
N   -5.196279   -1.362249  -0.280491
H   -0.832004   -1.363871   2.474389
H    0.472150   -1.919430   1.421791
H   -1.567999   -3.020750   0.742161
H   -1.093004   -1.904639  -0.540536
H   -2.828955   -0.264760   0.188017
H   -3.220766   -1.270514   1.584414
H   -3.944386   -3.107391   0.020958
H   -3.557656   -2.066974  -1.358442
H   -5.866203   -1.833549  -0.888347
H   -5.590768   -1.393424   0.661039
O    2.096857    0.482459   2.046408
H    2.541253    0.830721   2.843398
