 24
Energy: -13526.66033715.7 eV PBE+vdW (tier 2 basis)
N   -0.115904    1.280486   1.673317
C    0.965453    0.315983   1.512521
C    1.891380    0.631981   0.332220
O    1.647668    1.406577  -0.569261
H   -0.543205    1.471637   0.765032
H    0.261867    2.175146   1.985877
H    1.588463    0.346932   2.419248
C    0.424787   -1.128224   1.387548
C   -0.441470   -1.378892   0.148430
C   -1.021395   -2.797232   0.065018
C    0.010896   -3.896437  -0.186885
N   -0.656693   -5.193467  -0.369244
H   -0.168255   -1.319487   2.294390
H    1.280645   -1.817162   1.405169
H    0.139137   -1.171691  -0.766596
H   -1.279558   -0.665589   0.145696
H   -1.764514   -2.843112  -0.744931
H   -1.570609   -3.020593   0.996799
H    0.764827   -3.900126   0.624272
H    0.554690   -3.669294  -1.117880
H   -1.128731   -5.470116   0.493354
H    0.028660   -5.923054  -0.566098
O    3.051873   -0.083115   0.392043
H    3.561990    0.163846  -0.404035
