 24
Energy: -13526.74018915.7 eV PBE+vdW (tier 2 basis)
N    1.595990   -1.224715   4.154489
C    0.730021   -1.188493   2.957157
C    1.548917   -1.657360   1.727739
O    2.748509   -2.172170   2.055085
H    1.950852   -0.293506   4.376349
H    2.774573   -2.072076   3.050203
H   -0.045576   -1.961463   3.089025
C    0.042214    0.153184   2.681643
C   -1.004980    0.532717   3.731911
C   -1.775647    1.825404   3.425422
C   -0.920910    3.092578   3.326937
N   -0.216678    3.371154   4.587993
H   -0.418762    0.092258   1.685495
H    0.822755    0.930241   2.603103
H   -0.538774    0.617033   4.727967
H   -1.731955   -0.291673   3.818132
H   -2.529595    1.978611   4.212116
H   -2.321914    1.703960   2.476000
H   -1.589378    3.943272   3.131443
H   -0.248198    3.022708   2.449685
H    0.197765    4.302544   4.562573
H    0.559655    2.722078   4.720775
O    1.139482   -1.590989   0.590201
H    1.097637   -1.561297   4.975559
