 24
Energy: -13526.71797615.7 eV PBE+vdW (tier 2 basis)
N    2.094373    1.400131   2.360106
C    1.372099    0.113477   2.307006
C    1.409755   -0.414088   0.857519
O    1.693486    0.542445  -0.049053
H    1.694020    2.022529   3.061397
H    1.899104    1.340646   0.514999
H    1.840558   -0.659070   2.935577
C   -0.085261    0.330462   2.765124
C   -0.999343   -0.902397   2.764856
C   -0.549547   -2.075457   3.650183
C   -0.313176   -1.738633   5.123737
N   -1.544550   -1.279122   5.781045
H   -0.531726    1.109259   2.125945
H   -0.033992    0.758192   3.781554
H   -1.111368   -1.272404   1.736600
H   -2.003542   -0.570464   3.072832
H    0.369386   -2.514634   3.233526
H   -1.319913   -2.858891   3.595166
H    0.530881   -1.022588   5.214510
H    0.011503   -2.653502   5.640549
H   -1.391451   -1.153386   6.781307
H   -1.835967   -0.370547   5.419218
O    1.179851   -1.565042   0.557752
H    3.078822    1.270081   2.590544
