 24
Energy: -13526.55885415.7 eV PBE+vdW (tier 2 basis)
N    0.264682   -0.582516   0.003090
C   -0.059212    0.050361   1.279242
C    1.132575    0.786882   1.880967
O    1.057723    1.508699   2.854126
H   -0.526245   -1.139025  -0.321582
H    1.063922   -1.209315   0.091630
H   -0.775422    0.862703   1.068943
C   -0.746944   -0.843796   2.352943
C   -0.046084   -2.157620   2.716712
C    1.292962   -2.017521   3.447256
C    1.824530   -3.352437   3.966036
N    3.147600   -3.182526   4.580168
H   -1.751029   -1.077890   1.965376
H   -0.898165   -0.230713   3.254385
H    0.094857   -2.767625   1.808188
H   -0.739765   -2.734766   3.349784
H    1.178370   -1.316999   4.292031
H    2.059960   -1.583233   2.789760
H    1.939027   -4.050873   3.121590
H    1.069282   -3.801400   4.643245
H    3.077121   -2.596336   5.413556
H    3.516895   -4.081037   4.891129
O    2.304240    0.555227   1.229397
H    2.980580    1.061750   1.720054
