 24
Energy: -13526.71216315.7 eV PBE+vdW (tier 2 basis)
N    0.262476    1.512747   1.186335
C    0.146625    0.226434   1.902014
C    1.515945   -0.485483   1.850795
O    1.841595   -1.371939   2.607466
H    0.561572    2.262781   1.808945
H   -0.629579    1.789902   0.777662
H   -0.106688    0.348143   2.967460
C   -0.936607   -0.637973   1.227896
C   -1.256291   -1.959262   1.927766
C   -2.396079   -2.714760   1.238944
C   -2.717956   -4.069077   1.876776
N   -1.590207   -4.999289   1.745448
H   -0.636467   -0.827168   0.183499
H   -1.853194   -0.022746   1.180160
H   -1.534547   -1.759065   2.975955
H   -0.365114   -2.598290   1.969616
H   -2.144511   -2.873561   0.175068
H   -3.312810   -2.101587   1.241982
H   -3.664170   -4.449073   1.443083
H   -2.903826   -3.925920   2.953008
H   -1.482382   -5.297379   0.775145
H   -1.748034   -5.842855   2.295087
O    2.307291   -0.039404   0.852003
H    1.793953    0.728822   0.474889
