 24
Energy: -13526.69362215.7 eV PBE+vdW (tier 2 basis)
N    1.974462   -0.273228   2.620740
C    2.181732   -0.253595   1.177476
C    1.430692    0.880640   0.470555
O    0.522969    1.530683   0.945944
H    2.421638    0.539443   3.045781
H    0.978579   -0.169315   2.824831
H    3.253387   -0.089485   0.988298
C    1.813539   -1.612001   0.536216
C    0.335977   -1.995932   0.645657
C    0.033740   -3.351912   0.003599
C   -1.433762   -3.759097   0.119662
N   -1.673463   -5.044449  -0.549835
H    2.431523   -2.370761   1.038537
H    2.114714   -1.594200  -0.521707
H   -0.289918   -1.221987   0.170279
H    0.037678   -2.024101   1.706216
H    0.662309   -4.126729   0.476593
H    0.311841   -3.340550  -1.061987
H   -2.059658   -3.003564  -0.380883
H   -1.726860   -3.749389   1.189282
H   -1.180475   -5.794246  -0.062151
H   -2.664213   -5.284997  -0.518328
O    1.891953    1.081103  -0.797314
H    1.343613    1.796672  -1.174460
