 24
Energy: -13526.57365715.7 eV PBE+vdW (tier 2 basis)
N   -0.060007    0.326662  -0.057327
C   -0.056609    0.057500   1.381229
C    1.337140   -0.288721   1.896047
O    1.570725   -0.859047   2.940883
H    0.663373    0.998795  -0.307767
H   -0.958740    0.722328  -0.331927
H   -0.322413    0.950178   1.991934
C   -1.068025   -1.042661   1.745953
C   -0.833953   -2.387898   1.056107
C   -1.854715   -3.445455   1.482438
C   -1.702546   -4.786989   0.761040
N   -1.994227   -4.658029  -0.674259
H   -2.073280   -0.665231   1.493030
H   -1.049667   -1.166042   2.838616
H    0.177141   -2.752304   1.301822
H   -0.862822   -2.263014  -0.033680
H   -2.878304   -3.065002   1.311962
H   -1.778672   -3.622844   2.567804
H   -2.330910   -5.541223   1.274505
H   -0.660732   -5.131652   0.856052
H   -1.770265   -5.522547  -1.166128
H   -2.991738   -4.493498  -0.817963
O    2.328389    0.180638   1.085399
H    3.164960   -0.052327   1.532662
