 24
Energy: -13526.73215415.7 eV PBE+vdW (tier 2 basis)
N    0.433699   -1.327281   0.491675
C    0.185685   -0.320344   1.545245
C    1.448909    0.563996   1.708993
O    2.380922    0.338212   0.765742
H    0.648714   -2.238696   0.896541
H    1.972685   -0.391985   0.216109
H   -0.585434    0.369399   1.167962
C   -0.285788   -0.871515   2.899605
C    0.698965   -1.845022   3.559836
C    0.304959   -2.276791   4.978319
C   -0.971856   -3.113076   5.064946
N   -1.167877   -3.603556   6.435980
H   -1.267629   -1.346957   2.754532
H   -0.440829   -0.011492   3.567117
H    1.690845   -1.369596   3.605235
H    0.820981   -2.753353   2.942576
H    0.196406   -1.377492   5.608882
H    1.122663   -2.864569   5.421119
H   -0.869837   -3.993623   4.409529
H   -1.831189   -2.530545   4.678680
H   -2.012151   -4.173019   6.495507
H   -1.306479   -2.818221   7.074245
O    1.570335    1.393002   2.583718
H   -0.374698   -1.445477  -0.115095
