 24
Energy: -13526.76939315.7 eV PBE+vdW (tier 2 basis)
N   -0.046910   -1.106156  -0.367014
C   -0.930783   -0.834445   0.786492
C   -0.692338    0.617100   1.277103
O   -1.199033    1.071529   2.279148
H   -0.532662   -1.614944  -1.102422
H    0.759583   -1.665822  -0.089032
H   -1.967920   -0.833949   0.416576
C   -0.837638   -1.833844   1.949386
C    0.547242   -1.929865   2.596673
C    0.578713   -2.901740   3.778378
C    1.949649   -2.995153   4.445217
N    1.928460   -3.972419   5.541250
H   -1.568435   -1.521652   2.708875
H   -1.155398   -2.824546   1.586863
H    0.859702   -0.928766   2.934895
H    1.301258   -2.255177   1.857340
H    0.275314   -3.910062   3.455219
H   -0.166541   -2.580645   4.526241
H    2.269294   -1.979670   4.754913
H    2.689611   -3.343019   3.706758
H    1.320177   -3.645417   6.293685
H    2.858225   -4.072894   5.948501
O    0.111014    1.326626   0.464400
H    0.348416    0.665930  -0.249445
