 24
Energy: -13526.69340015.7 eV PBE+vdW (tier 2 basis)
N   -0.075493    1.216430   1.248498
C    0.986956    0.293612   1.630956
C    2.155194    0.265784   0.638726
O    2.126132    0.689638  -0.498233
H   -0.300830    1.087678   0.260117
H    0.257008    2.178035   1.325052
H    1.397630    0.626028   2.596257
C    0.441584   -1.138422   1.840224
C   -0.124351   -1.801021   0.581877
C   -0.633035   -3.221412   0.846994
C   -1.278372   -3.888188  -0.368801
N   -0.304224   -4.109902  -1.447497
H   -0.344231   -1.064880   2.606467
H    1.246013   -1.763150   2.256112
H    0.653979   -1.828539  -0.198129
H   -0.952575   -1.192901   0.181042
H   -1.374695   -3.193388   1.662227
H    0.201101   -3.852471   1.193101
H   -2.158478   -3.289079  -0.681366
H   -1.662694   -4.873888  -0.068295
H   -0.052043   -3.227615  -1.893827
H   -0.712641   -4.690621  -2.179369
O    3.262381   -0.320832   1.176112
H    3.937683   -0.323899   0.469753
