 24
Energy: -13526.69192115.7 eV PBE+vdW (tier 2 basis)
N    2.429377   -0.836056   1.946783
C    2.036892   -0.355544   0.629324
C    1.045269    0.814596   0.667928
O    0.432492    1.195535   1.643002
H    2.878435   -0.085526   2.472386
H    1.598827   -1.085779   2.486351
H    2.939271    0.022492   0.123156
C    1.476477   -1.502860  -0.241099
C    0.163316   -2.105836   0.262700
C   -0.354587   -3.224458  -0.644839
C   -1.622790   -3.907239  -0.126523
N   -1.372139   -4.597682   1.146588
H    2.254821   -2.279825  -0.272458
H    1.347115   -1.130103  -1.268176
H   -0.608255   -1.320498   0.336638
H    0.287188   -2.513003   1.276534
H    0.433904   -3.986731  -0.776145
H   -0.557262   -2.826035  -1.652411
H   -2.020476   -4.569376  -0.920480
H   -2.394737   -3.143795   0.059513
H   -2.243284   -4.945298   1.545990
H   -0.776142   -5.413027   0.995967
O    0.915523    1.406893  -0.555986
H    0.263768    2.125155  -0.437745
