 24
Energy: -13526.65294615.7 eV PBE+vdW (tier 2 basis)
N    0.040321    0.095710   0.183052
C    0.244104   -0.206571   1.596514
C    1.650158   -0.750551   1.767195
O    2.278928   -1.343272   0.914708
H    0.488851   -0.629169  -0.381086
H   -0.953137    0.099077  -0.044274
H    0.185301    0.726893   2.178843
C   -0.742305   -1.234028   2.223856
C   -2.216684   -0.822501   2.152285
C   -2.560004    0.474952   2.890043
C   -4.065515    0.738271   2.990548
N   -4.731990   -0.292480   3.799053
H   -0.460607   -1.388705   3.277603
H   -0.605225   -2.198363   1.709336
H   -2.824214   -1.635266   2.575304
H   -2.537825   -0.738148   1.099164
H   -2.092094    1.340886   2.395630
H   -2.133641    0.443833   3.908529
H   -4.507220    0.702773   1.982011
H   -4.223331    1.767922   3.365586
H   -4.485614   -0.184314   4.783974
H   -5.745244   -0.196588   3.741965
O    2.129368   -0.541133   3.024463
H    3.005652   -0.972231   3.051240
