 24
Energy: -13526.63302215.7 eV PBE+vdW (tier 2 basis)
N    0.010326    0.781896   0.437446
C   -0.375012    0.288272   1.754860
C    0.823135    0.434764   2.677072
O    1.983557    0.389498   2.325546
H   -0.619601    0.432423  -0.282871
H    0.955133    0.459089   0.219811
H   -1.181965    0.923378   2.156550
C   -0.854467   -1.188925   1.829722
C   -2.152861   -1.438140   1.056813
C   -2.602882   -2.904721   1.038967
C   -2.989726   -3.468618   2.406953
N   -3.469279   -4.849186   2.273059
H   -0.994775   -1.452741   2.888779
H   -0.051995   -1.836366   1.439157
H   -2.031365   -1.109054   0.012128
H   -2.953706   -0.809666   1.482518
H   -1.815093   -3.540258   0.604962
H   -3.472055   -2.995447   0.365959
H   -3.719318   -2.781475   2.883893
H   -2.108887   -3.493246   3.065806
H   -3.667278   -5.252404   3.188553
H   -4.346064   -4.872390   1.750137
O    0.450784    0.575199   3.979074
H    1.281119    0.603304   4.493288
