 24
Energy: -13526.61914415.7 eV PBE+vdW (tier 2 basis)
N   -0.172004    0.128622   0.071442
C   -0.552784    0.239387   1.490739
C    0.684913    0.196064   2.385767
O    1.173993    1.152743   2.952026
H    0.497327    0.859792  -0.173856
H    0.292351   -0.765733  -0.098150
H   -0.977978    1.242622   1.637238
C   -1.621101   -0.812238   1.818707
C   -2.333327   -0.648859   3.171584
C   -1.521047   -0.966011   4.436448
C   -1.087872   -2.426289   4.557864
N   -0.239288   -2.613631   5.742620
H   -1.180322   -1.817233   1.728608
H   -2.366182   -0.732671   1.013689
H   -3.227185   -1.293340   3.157587
H   -2.713949    0.382361   3.246329
H   -2.140612   -0.708358   5.312194
H   -0.630193   -0.325931   4.512929
H   -0.486257   -2.710168   3.682538
H   -1.991763   -3.069698   4.545855
H   -0.763011   -2.397615   6.592579
H    0.050923   -3.588122   5.824315
O    1.250621   -1.047838   2.429646
H    2.032440   -0.966293   3.009149
