 24
Energy: -13526.63875415.7 eV PBE+vdW (tier 2 basis)
N   -0.783564    0.390267   0.953390
C    0.397444   -0.248956   1.520905
C    1.517932   -0.470220   0.504160
O    1.364311   -0.621074  -0.690300
H   -1.045034   -0.091429   0.089979
H   -0.572430    1.352021   0.686610
H    0.794702    0.401902   2.311890
C    0.022174   -1.621388   2.132700
C   -0.918627   -1.533173   3.346195
C   -0.227517   -1.483825   4.715877
C    0.650803   -0.260000   4.981173
N    1.163935   -0.294446   6.356709
H    0.941584   -2.162700   2.404239
H   -0.453545   -2.206405   1.329828
H   -1.577647   -2.413700   3.337861
H   -1.581000   -0.663726   3.213269
H    0.384884   -2.387570   4.864632
H   -1.009256   -1.519128   5.494047
H    0.075317    0.657645   4.739188
H    1.525579   -0.271313   4.312805
H    1.792929    0.490137   6.526820
H    0.395908   -0.200677   7.023256
O    2.744706   -0.508906   1.100190
H    3.386757   -0.699629   0.388316
