 24
Energy: -13526.76568915.7 eV PBE+vdW (tier 2 basis)
N   -0.468720    0.678964   0.991032
C    0.551425   -0.189583   1.615763
C    1.680032   -0.467085   0.592727
O    1.553020    0.243189  -0.543366
H    0.710495    0.761995  -0.390758
H   -0.772823    1.422040   1.616239
H    1.039860    0.387683   2.416746
C    0.009394   -1.502497   2.198289
C   -0.945862   -1.339121   3.384564
C   -0.311313   -0.710972   4.629172
C   -1.212858   -0.758851   5.866838
N   -1.472913   -2.144647   6.279011
H    0.873183   -2.118058   2.486800
H   -0.496381   -2.054360   1.387464
H   -1.338052   -2.328327   3.659194
H   -1.825788   -0.741448   3.087702
H   -0.042658    0.342136   4.445166
H    0.638437   -1.226242   4.856769
H   -2.184470   -0.298860   5.625559
H   -0.759322   -0.135497   6.661773
H   -2.176619   -2.176353   7.015806
H   -0.626773   -2.564072   6.667062
O    2.596846   -1.229791   0.804204
H   -1.297628    0.142083   0.733185
