 24
Energy: -13526.71780915.7 eV PBE+vdW (tier 2 basis)
N   -0.450608   -1.244869   0.593855
C    0.596027   -0.557414   1.384677
C    1.782401   -0.211768   0.443909
O    1.540970   -0.513333  -0.843115
H   -0.516060   -2.228570   0.852918
H    0.620459   -0.912429  -0.805687
H    0.202234    0.420586   1.706844
C    1.092013   -1.319511   2.622645
C    0.216254   -1.221154   3.876510
C   -1.192659   -1.817917   3.785945
C   -1.893354   -1.918956   5.146078
N   -1.202515   -2.868674   6.027735
H    2.090781   -0.927724   2.858669
H    1.239598   -2.378371   2.342765
H    0.137531   -0.160911   4.172241
H    0.740123   -1.726755   4.700778
H   -1.143936   -2.828141   3.339996
H   -1.832535   -1.220392   3.117538
H   -2.961496   -2.160261   4.981922
H   -1.868287   -0.933412   5.637062
H   -1.551712   -2.797908   6.982515
H   -1.374035   -3.828181   5.724747
O    2.810112    0.298404   0.832586
H   -1.370308   -0.833338   0.732869
