 24
Energy: -13526.50618915.7 eV PBE+vdW (tier 2 basis)
N   -0.966689    0.290046   2.159834
C    0.367807    0.868105   2.253100
C    0.807022    1.595617   0.967316
O    1.768162    2.560045   1.116774
H   -1.028777   -0.248740   1.292157
H    1.990262    2.653739   2.059797
H    0.355687    1.599685   3.081255
C    1.407702   -0.225878   2.585525
C    1.196496   -0.865908   3.958451
C    2.181958   -2.003674   4.240707
C    2.039195   -2.616604   5.635127
N    0.754133   -3.310904   5.792033
H    2.423742    0.196854   2.521502
H    1.350943   -0.995133   1.797654
H    0.160350   -1.229493   4.010016
H    1.298118   -0.091472   4.739595
H    3.214053   -1.630989   4.130271
H    2.047977   -2.801425   3.492897
H    2.214961   -1.825613   6.394000
H    2.833540   -3.364409   5.774864
H   -0.017398   -2.644129   5.825697
H    0.730451   -3.820521   6.674795
O    0.375698    1.344234  -0.131893
H   -1.663394    1.030566   2.071525
