 24
Energy: -13526.69814815.7 eV PBE+vdW (tier 2 basis)
N   -0.280947    0.501864   0.516956
C   -0.335395   -0.276454   1.747590
C    1.029815   -0.470821   2.409289
O    2.100466   -0.441650   1.838148
H    0.410456    0.089799  -0.113674
H    0.049664    1.447268   0.711825
H   -0.971980    0.258523   2.468294
C   -0.949972   -1.673002   1.488814
C   -2.358551   -1.643053   0.888382
C   -3.412982   -0.977233   1.775984
C   -4.845326   -1.171109   1.269873
N   -5.241958   -2.585999   1.322424
H   -0.958106   -2.229432   2.438577
H   -0.274126   -2.221402   0.812004
H   -2.671314   -2.678102   0.688777
H   -2.327250   -1.124888  -0.081522
H   -3.221039    0.104595   1.850908
H   -3.341951   -1.373389   2.805411
H   -4.901589   -0.851392   0.217453
H   -5.519539   -0.501290   1.838354
H   -5.368777   -2.881697   2.291468
H   -6.138261   -2.726522   0.857451
O    0.917561   -0.710564   3.748329
H    1.827026   -0.862487   4.072162
