 24
Energy: -13526.65361915.7 eV PBE+vdW (tier 2 basis)
N    0.535749   -0.097729  -0.051212
C   -0.014505   -0.133219   1.299663
C    1.027531    0.440947   2.244064
O    2.227748    0.387564   2.073840
H    0.039874   -0.742639  -0.664357
H    1.518339   -0.376938  -0.021895
H   -0.900434    0.521756   1.346003
C   -0.429950   -1.530064   1.839783
C   -1.583208   -2.162777   1.058503
C   -1.988950   -3.535391   1.600979
C   -3.145360   -4.169620   0.829994
N   -3.459127   -5.500843   1.364030
H   -0.724603   -1.427025   2.896271
H    0.452816   -2.189626   1.814761
H   -1.306039   -2.271841  -0.004027
H   -2.451395   -1.482412   1.079928
H   -2.272425   -3.437757   2.663465
H   -1.130476   -4.224463   1.575556
H   -2.850718   -4.297281  -0.223670
H   -4.006722   -3.470683   0.831577
H   -3.825535   -5.424557   2.314201
H   -4.189753   -5.946719   0.809381
O    0.462528    0.991600   3.353414
H    1.206271    1.277309   3.918995
