 24
Energy: -13526.61281215.7 eV PBE+vdW (tier 2 basis)
N   -0.496050   -0.846367  -0.076127
C   -0.367048   -0.164952   1.206542
C    0.978943    0.510676   1.523068
O    1.235847    1.081064   2.563158
H    0.177382   -1.609204  -0.149169
H   -0.283012   -0.208997  -0.842517
H   -1.070567    0.685519   1.193173
C   -0.818637   -1.068590   2.375619
C   -0.150090   -2.446960   2.465525
C    1.363277   -2.440490   2.703185
C    1.929729   -3.838629   2.943429
N    3.391446   -3.792112   3.078977
H   -1.901811   -1.214012   2.262050
H   -0.660036   -0.512283   3.310177
H   -0.381212   -3.030283   1.558720
H   -0.638476   -2.992034   3.289604
H    1.597491   -1.797825   3.568727
H    1.900694   -2.005104   1.846380
H    1.697733   -4.478947   2.077366
H    1.412223   -4.290788   3.814068
H    3.651468   -3.265828   3.914761
H    3.770105   -4.731284   3.201621
O    1.863756    0.454588   0.485208
H    2.659003    0.929422   0.796336
