 24
Energy: -13526.73703315.7 eV PBE+vdW (tier 2 basis)
N    0.017319   -1.920739   0.974229
C   -0.013767   -0.770207   1.894356
C   -0.446336    0.487745   1.093716
O   -0.375272    1.619916   1.521946
H   -0.221356   -2.790326   1.477123
H    0.960844   -2.039498   0.600433
H   -0.855121   -0.937961   2.588984
C    1.263077   -0.506914   2.707630
C    1.414674   -1.247571   4.043968
C    1.385484   -2.790800   4.047798
C   -0.009259   -3.445802   4.179218
N   -0.428865   -4.141359   2.944512
H    2.129744   -0.728153   2.060242
H    1.303215    0.572257   2.913421
H    0.645926   -0.879754   4.744375
H    2.374349   -0.923934   4.474922
H    2.001517   -3.134633   4.890365
H    1.880464   -3.178245   3.142642
H   -0.762848   -2.672371   4.386288
H   -0.012629   -4.118824   5.054711
H   -1.378269   -4.502753   3.049637
H    0.165682   -4.957280   2.786597
O   -0.950877    0.177130  -0.111869
H   -0.830696   -0.823923  -0.140243
