 24
Energy: -13526.65080115.7 eV PBE+vdW (tier 2 basis)
N   -0.236015   -0.380054  -0.293432
C   -0.693592    0.046574   1.036570
C    0.271462    1.040981   1.683168
O    0.052375    2.219938   1.871975
H    0.675517   -0.835796  -0.223626
H   -0.120278    0.426158  -0.908698
H   -1.631128    0.603918   0.901262
C   -0.957463   -1.174672   1.923878
C   -1.516371   -0.821681   3.304446
C   -1.721005   -2.035164   4.220829
C   -2.751712   -3.059076   3.733529
N   -4.068180   -2.437863   3.537595
H   -0.022075   -1.748901   2.031423
H   -1.661655   -1.811281   1.369809
H   -2.475108   -0.296143   3.182889
H   -0.836113   -0.119147   3.811941
H   -2.025238   -1.677198   5.218999
H   -0.761315   -2.556831   4.369767
H   -2.758915   -3.908383   4.444733
H   -2.436785   -3.474204   2.764040
H   -4.727766   -3.107744   3.143289
H   -4.457514   -2.139266   4.433248
O    1.474026    0.464982   1.995546
H    2.026118    1.185966   2.354397
