 24
Energy: -13526.58202615.7 eV PBE+vdW (tier 2 basis)
N   -0.159503    0.284340   0.477076
C    0.489629   -0.007644   1.758438
C    1.993825   -0.179513   1.632121
O    2.706347   -0.644315   2.500358
H    0.329771    1.033293  -0.011802
H   -1.111051    0.611387   0.644148
H    0.408553    0.824453   2.490890
C   -0.124327   -1.259329   2.408914
C   -1.557905   -1.075338   2.924505
C   -1.795126    0.053897   3.941108
C   -0.979724   -0.009084   5.241893
N    0.373379    0.556276   5.105022
H    0.535813   -1.583883   3.224515
H   -0.111385   -2.064226   1.658618
H   -1.871123   -2.029465   3.378389
H   -2.240420   -0.926921   2.071452
H   -2.863723    0.032048   4.207407
H   -1.618398    1.040171   3.482065
H   -0.988658   -1.049797   5.624747
H   -1.498626    0.599494   5.996242
H    0.752681    0.783776   6.023294
H    1.025649   -0.107590   4.685991
O    2.495631    0.306223   0.463446
H    3.463578    0.188781   0.523969
