 24
Energy: -13526.49591115.7 eV PBE+vdW (tier 2 basis)
N   -0.280110   -0.860478   0.078678
C   -0.090641   -0.129220   1.325357
C    0.716707    1.181227   1.239027
O    0.609567    2.084574   2.035650
H    0.497840   -1.454458  -0.199063
H   -0.637685   -0.316024  -0.701222
H   -1.081002    0.172312   1.697088
C    0.556212   -1.084585   2.354095
C    0.715207   -0.561518   3.785581
C   -0.597656   -0.211535   4.490351
C   -0.426954    0.160958   5.974128
N    0.052148   -0.883006   6.885448
H    1.545761   -1.383046   1.966200
H   -0.065618   -1.993482   2.356902
H    1.375167    0.319274   3.796270
H    1.238782   -1.347084   4.354436
H   -1.301739   -1.059302   4.411695
H   -1.072628    0.641869   3.981372
H   -1.393565    0.517749   6.360778
H    0.264176    1.014605   6.055653
H   -0.545259   -1.709463   6.832899
H    0.993770   -1.185903   6.636863
O    1.602420    1.262473   0.206419
H    1.468102    0.463065  -0.343605
