 24
Energy: -13526.56029715.7 eV PBE+vdW (tier 2 basis)
N    0.466341   -1.178345   0.495426
C   -0.047157   -0.082017   1.315366
C    1.064750    0.834329   1.818317
O    0.934138    1.665698   2.692104
H   -0.309886   -1.692650   0.079438
H    1.047186   -0.828005  -0.264729
H   -0.684509    0.629730   0.744156
C   -0.928566   -0.602531   2.471413
C   -0.376816   -1.796153   3.261300
C    0.965914   -1.556932   3.955878
C    1.428536   -2.731142   4.821125
N    1.609158   -3.948716   4.017333
H   -1.901496   -0.886909   2.040275
H   -1.123985    0.249402   3.138350
H   -0.284099   -2.672642   2.607255
H   -1.128736   -2.064109   4.022050
H    0.914119   -0.655956   4.587108
H    1.744191   -1.358065   3.199206
H    0.660708   -2.948392   5.581493
H    2.339257   -2.422954   5.371960
H    2.334264   -3.799357   3.313501
H    1.925285   -4.721724   4.602377
O    2.227045    0.692382   1.117228
H    2.833800    1.364771   1.483079
