 24
Energy: -13526.69096515.7 eV PBE+vdW (tier 2 basis)
N    1.884956   -0.250763   2.546750
C    2.026244   -0.221368   1.096136
C    1.178312    0.864407   0.423091
O    0.259258    1.465372   0.939344
H    2.291281    0.592855   2.951977
H    0.894537   -0.219038   2.795999
H    3.076666    0.007249   0.860088
C    1.713541   -1.600699   0.470578
C    0.267914   -2.072868   0.644154
C    0.014414   -3.435864  -0.004125
C   -1.424703   -3.920985   0.158589
N   -1.601789   -5.244791  -0.452634
H    2.398067   -2.320427   0.942762
H    1.965447   -1.564909  -0.599822
H   -0.424752   -1.329387   0.215016
H    0.024774   -2.136269   1.717274
H    0.690867   -4.193216   0.421867
H    0.256996   -3.378184  -1.079936
H   -2.113139   -3.147723  -0.239426
H   -1.654049   -4.018568   1.231398
H   -2.548261   -5.589553  -0.292151
H   -1.485786   -5.185047  -1.465564
O    1.566123    1.084075  -0.866506
H    0.962084    1.767698  -1.216855
