 24
Energy: -13526.64306415.7 eV PBE+vdW (tier 2 basis)
N    0.373979   -0.984130  -0.320752
C    0.075410   -0.267276   0.915519
C    1.321119    0.311705   1.593012
O    2.464372   -0.046838   1.394574
H    0.682867   -0.324899  -1.035830
H    1.169783   -1.607114  -0.169010
H   -0.576865    0.583515   0.668416
C   -0.703793   -1.152494   1.916704
C    0.058616   -2.393602   2.393175
C   -0.735429   -3.320568   3.327595
C   -0.896519   -2.855399   4.778433
N   -1.776150   -1.682637   4.903856
H   -1.622929   -1.467266   1.399159
H   -1.005906   -0.548400   2.781229
H    0.991142   -2.093566   2.900416
H    0.366255   -2.983980   1.515782
H   -0.230495   -4.298712   3.357575
H   -1.732822   -3.517315   2.895584
H    0.091570   -2.568863   5.172946
H   -1.234360   -3.721365   5.381914
H   -2.728358   -1.928174   4.627487
H   -1.828761   -1.380453   5.876752
O    1.005860    1.292633   2.485695
H    1.851391    1.573009   2.887327
