 24
Energy: -13526.69051315.7 eV PBE+vdW (tier 2 basis)
N    0.734522    0.757011   1.396385
C    0.156276   -0.571011   1.691587
C   -0.627115   -1.073209   0.452941
O   -1.273425   -2.097629   0.448274
H    1.708817    0.824792   1.681100
H    0.222460    1.497179   1.876913
H    0.989074   -1.281480   1.800894
C   -0.727797   -0.615546   2.947115
C    0.021341   -0.468985   4.282953
C    0.499529   -1.780180   4.923212
C    1.517385   -2.592708   4.119739
N    1.981488   -3.738671   4.907331
H   -1.475757    0.189461   2.847504
H   -1.298146   -1.554997   2.927963
H   -0.646301    0.025584   5.003570
H    0.875842    0.219720   4.160812
H   -0.364909   -2.427208   5.138201
H    0.947093   -1.539818   5.902626
H    2.335083   -1.919540   3.781461
H    1.043229   -2.997089   3.212747
H    2.578807   -4.347242   4.348661
H    2.539732   -3.426426   5.702882
O   -0.494239   -0.273574  -0.620553
H    0.093009    0.462567  -0.280319
