 24
Energy: -13526.49543315.7 eV PBE+vdW (tier 2 basis)
N    0.525076   -0.803436  -0.105669
C   -0.259810   -0.013223   0.860770
C    0.595314    1.013799   1.597807
O    0.218764    1.676515   2.540270
H   -0.051244   -1.033560  -0.913430
H    1.312348   -0.256034  -0.451178
H   -1.022819    0.614815   0.353912
C   -0.992332   -0.886799   1.900382
C   -2.196198   -1.686927   1.378091
C   -1.962824   -2.843581   0.390206
C   -1.186551   -4.059703   0.905957
N    0.183690   -3.737709   1.325015
H   -1.354479   -0.206387   2.683231
H   -0.260761   -1.565530   2.358624
H   -2.911734   -0.983112   0.917907
H   -2.715450   -2.099088   2.258898
H   -1.483757   -2.481203  -0.533534
H   -2.952249   -3.208909   0.071998
H   -1.229101   -4.833893   0.113952
H   -1.724175   -4.479501   1.774348
H    0.618834   -3.072786   0.679321
H    0.761354   -4.576326   1.352564
O    1.847096    1.153366   1.068947
H    2.280944    1.845369   1.604349
