 24
Energy: -13526.71515315.7 eV PBE+vdW (tier 2 basis)
N    0.950074    0.330121   1.618360
C    0.053924   -0.842398   1.669930
C   -0.639425   -1.015402   0.295047
O   -1.511604   -1.829905   0.088536
H    1.842185    0.149512   2.074613
H    0.529406    1.134410   2.085192
H    0.682034   -1.741274   1.771360
C   -0.986326   -0.818341   2.797563
C   -0.434313   -0.837024   4.229444
C    0.333145   -2.108843   4.641359
C    1.855152   -2.057784   4.414492
N    2.623619   -3.214225   4.876001
H   -1.611358    0.081428   2.663147
H   -1.658949   -1.673670   2.643156
H   -1.292580   -0.705239   4.904095
H    0.206486    0.045221   4.403772
H   -0.085924   -2.984804   4.117630
H    0.168296   -2.294579   5.714806
H    2.260417   -1.164484   4.917475
H    2.082326   -1.929182   3.344264
H    2.478991   -3.363568   5.875720
H    2.306803   -4.065041   4.408949
O   -0.155237   -0.189961  -0.650327
H    0.537859    0.337032  -0.156588
