 24
Energy: -13526.71554215.7 eV PBE+vdW (tier 2 basis)
N    2.941364   -0.341153   3.028879
C    1.581887   -0.470534   2.456762
C    0.846097    0.887176   2.596375
O    1.638332    1.874842   3.053481
H    2.996164   -0.785283   3.945899
H    2.515813    1.410662   3.189533
H    1.690602   -0.616601   1.370898
C    0.730771   -1.623315   3.009237
C    0.450539   -1.524382   4.512858
C   -0.431459   -2.642096   5.089390
C   -1.883203   -2.669119   4.591978
N   -2.000231   -3.282933   3.259841
H    1.237424   -2.575351   2.781918
H   -0.218356   -1.644734   2.461525
H   -0.028359   -0.554721   4.727221
H    1.398463   -1.524774   5.080321
H   -0.451053   -2.529444   6.184454
H    0.032219   -3.625548   4.897613
H   -2.255683   -1.635907   4.513577
H   -2.507293   -3.169293   5.357897
H   -1.848448   -4.290637   3.320952
H   -2.941525   -3.154079   2.889076
O   -0.318305    1.048573   2.303754
H    3.641240   -0.781349   2.435560
