 24
Energy: -13526.61269415.7 eV PBE+vdW (tier 2 basis)
N    1.044425    0.057945  -0.039579
C    0.403922    0.213936   1.258952
C    1.330030    0.353909   2.473966
O    1.014024    0.875398   3.524465
H    1.313378   -0.920930  -0.178771
H    1.881801    0.633705  -0.110183
H   -0.183159    1.148845   1.265279
C   -0.566769   -0.950087   1.556974
C   -1.793392   -1.051566   0.636551
C   -1.601841   -1.578309  -0.796036
C   -0.967076   -2.972503  -0.913000
N    0.508739   -2.908316  -0.955091
H   -0.926113   -0.812207   2.586511
H    0.005200   -1.890850   1.543499
H   -2.276585   -0.062081   0.584306
H   -2.520503   -1.709468   1.141719
H   -1.007258   -0.862996  -1.382757
H   -2.596794   -1.614961  -1.266220
H   -1.389182   -3.487650  -1.795711
H   -1.246526   -3.582894  -0.039487
H    0.904627   -3.846728  -0.889796
H    0.804440   -2.539221  -1.860854
O    2.569876   -0.182253   2.272532
H    3.046151   -0.049167   3.115153
