 24
Energy: -13526.70045915.7 eV PBE+vdW (tier 2 basis)
N    0.863586   -0.554444  -0.322949
C    0.109263   -0.029494   0.810348
C    1.002454    0.503118   1.931928
O    2.134531    0.130850   2.163935
H    1.610007   -1.160237   0.026351
H    1.330311    0.205633  -0.818255
H   -0.517396    0.803810   0.457907
C   -0.820392   -1.115691   1.398153
C   -1.929053   -1.537651   0.433931
C   -2.768776   -2.700862   0.966584
C   -3.953331   -3.070502   0.069789
N   -4.939096   -1.980750   0.013632
H   -1.260325   -0.741014   2.335258
H   -0.196690   -1.984440   1.670614
H   -1.476934   -1.818322  -0.529075
H   -2.590181   -0.681135   0.232877
H   -3.148929   -2.458794   1.975495
H   -2.133922   -3.593236   1.092082
H   -4.377173   -4.033195   0.416908
H   -3.590426   -3.239945  -0.956164
H   -5.656205   -2.180202  -0.683108
H   -5.422096   -1.895574   0.909298
O    0.370553    1.448089   2.685872
H    0.997594    1.691675   3.394953
