 24
Energy: -13526.56923615.7 eV PBE+vdW (tier 2 basis)
N    0.226336   -1.194678  -0.113805
C    0.139275   -0.574581   1.208361
C    1.478288   -0.365280   1.921393
O    1.803763    0.633265   2.529213
H    0.688784   -2.102267  -0.048474
H    0.788386   -0.623038  -0.744696
H   -0.272649    0.437749   1.082940
C   -0.797513   -1.368499   2.145501
C   -2.301852   -1.167812   1.896619
C   -2.885909   -1.701843   0.581451
C   -2.771946   -3.215945   0.413261
N   -3.482621   -3.653804  -0.794916
H   -0.585981   -1.057263   3.179922
H   -0.523437   -2.434276   2.090741
H   -2.521865   -0.090652   1.970494
H   -2.837679   -1.637411   2.738598
H   -2.410867   -1.218375  -0.281979
H   -3.954708   -1.427941   0.553821
H   -3.121552   -3.712156   1.343268
H   -1.714958   -3.494177   0.286229
H   -3.372327   -4.658274  -0.933396
H   -4.484729   -3.483440  -0.696415
O    2.293127   -1.459111   1.821835
H    3.099174   -1.235855   2.326067
