 24
Energy: -13526.44606915.7 eV PBE+vdW (tier 2 basis)
N    0.313277   -0.116980   0.772475
C    0.334318    0.024835   2.236388
C    1.734401   -0.274833   2.805789
O    2.045589   -1.599329   3.003649
H    0.522949   -1.076936   0.491593
H    1.253024   -2.141465   2.832770
H    0.162298    1.087505   2.459968
C   -0.777523   -0.808601   2.875237
C   -0.917874   -0.589955   4.387822
C   -1.717552   -1.681891   5.112340
C   -1.020903   -3.044915   5.187256
N    0.216875   -2.975707   5.971763
H   -0.614657   -1.882195   2.652673
H   -1.717284   -0.562177   2.360225
H   -1.399404    0.384611   4.557591
H    0.076208   -0.501138   4.856105
H   -2.694761   -1.811282   4.618785
H   -1.919260   -1.349719   6.141179
H   -0.882316   -3.454022   4.163634
H   -1.694989   -3.748087   5.697336
H    0.951403   -2.468727   5.476950
H    0.582713   -3.909792   6.151451
O    2.571472    0.570523   3.013004
H    1.027996    0.477275   0.350018
