 24
Energy: -13526.80951715.7 eV PBE+vdW (tier 2 basis)
N   -0.320943    0.830736   0.122112
C   -0.101367    0.169076   1.424861
C    1.210371   -0.654918   1.348212
O    1.541653   -1.466822   2.186651
H   -0.725901    1.757765   0.235497
H   -0.959726    0.287879  -0.460179
H    0.111277    0.962345   2.159456
C   -1.250598   -0.695754   1.956183
C   -1.611850   -1.873479   1.041194
C   -2.451212   -2.960299   1.724862
C   -1.762115   -3.658690   2.918559
N   -0.438845   -4.235158   2.695012
H   -2.132678   -0.060280   2.131611
H   -0.933491   -1.071058   2.938085
H   -0.685877   -2.337400   0.663504
H   -2.157772   -1.515706   0.152661
H   -2.711726   -3.722716   0.972447
H   -3.408915   -2.535566   2.072738
H   -2.432836   -4.457189   3.273794
H   -1.671299   -2.958290   3.762515
H    0.268296   -3.512884   2.546980
H   -0.430253   -4.847002   1.878617
O    1.956849   -0.362688   0.270732
H    1.392650    0.302073  -0.221559
