 24
Energy: -13526.56591915.7 eV PBE+vdW (tier 2 basis)
N   -0.916077   -0.651029  -0.293246
C   -0.370088   -0.136012   0.961329
C    1.146985   -0.007194   0.919170
O    1.802673    0.562471   1.768210
H   -1.922298   -0.791678  -0.198606
H   -0.506810   -1.554567  -0.529835
H   -0.705339    0.910594   1.056698
C   -0.831689   -0.842381   2.270216
C   -0.641124   -2.361834   2.351881
C    0.803432   -2.875161   2.453599
C    1.578705   -2.406892   3.689694
N    0.895898   -2.807405   4.928141
H   -1.906862   -0.625878   2.371422
H   -0.345010   -0.342683   3.120287
H   -1.125858   -2.839380   1.484812
H   -1.191964   -2.711282   3.236565
H    1.382083   -2.604495   1.557327
H    0.773329   -3.978374   2.454132
H    1.654797   -1.310407   3.690856
H    2.616441   -2.786144   3.610719
H    1.347583   -2.385417   5.738640
H    0.953546   -3.818714   5.057363
O    1.719777   -0.602190  -0.163850
H    2.679712   -0.448938  -0.065104
