 24
Energy: -13526.66359615.7 eV PBE+vdW (tier 2 basis)
N    0.416170    0.377306  -0.324518
C   -0.123598    0.538422   1.027975
C    0.927795    0.873925   2.087155
O    0.903140    1.836282   2.827271
H    1.106503   -0.374942  -0.344118
H    0.892529    1.227167  -0.627715
H   -0.798156    1.404968   1.013884
C   -0.915895   -0.721729   1.420329
C   -1.517080   -0.713921   2.831049
C   -2.533653    0.401817   3.090997
C   -3.178258    0.303681   4.472124
N   -4.151415    1.385936   4.669748
H   -0.248950   -1.592167   1.315657
H   -1.707440   -0.839662   0.665266
H   -0.709622   -0.655829   3.580382
H   -2.001918   -1.689615   2.995441
H   -3.327750    0.380236   2.327769
H   -2.042171    1.384696   3.004092
H   -2.377882    0.276084   5.239439
H   -3.722137   -0.650931   4.553540
H   -4.612330    1.291547   5.574835
H   -3.673688    2.288607   4.683880
O    1.940828   -0.044014   2.118241
H    2.553931    0.259956   2.814826
