 24
Energy: -13526.66019815.7 eV PBE+vdW (tier 2 basis)
N   -0.264424    1.116865   1.062579
C    0.728678    0.169448   1.553482
C    2.150513    0.463056   1.059319
O    2.443921    1.213919   0.152636
H   -0.159209    1.233150   0.052935
H   -0.088327    2.040456   1.458885
H    0.757226    0.244729   2.651398
C    0.334424   -1.286395   1.211823
C    0.310492   -1.606130  -0.287233
C    0.012356   -3.076367  -0.610519
C   -1.401066   -3.537086  -0.253922
N   -1.624102   -4.912158  -0.724214
H   -0.658241   -1.445076   1.654986
H    1.032981   -1.967489   1.721008
H    1.283590   -1.344811  -0.732893
H   -0.435954   -0.971429  -0.792274
H    0.745642   -3.718270  -0.090549
H    0.161175   -3.252717  -1.686271
H   -2.128960   -2.888276  -0.766622
H   -1.577320   -3.409468   0.831712
H   -2.578164   -5.208872  -0.517841
H   -1.010169   -5.558284  -0.225074
O    3.085581   -0.240430   1.761347
H    3.949358   -0.007362   1.368303
