 24
Energy: -13526.62985915.7 eV PBE+vdW (tier 2 basis)
N    0.206289   -0.852382  -0.364845
C    0.082146   -0.217309   0.944183
C    1.376486    0.144206   1.666417
O    1.498108    1.057895   2.458613
H    0.614111   -0.209040  -1.042219
H    0.823427   -1.663895  -0.314703
H   -0.454737    0.732017   0.799660
C   -0.774844   -1.110598   1.877311
C   -2.276021   -1.027259   1.558948
C   -3.054913   -0.000178   2.398945
C   -2.549609    1.446045   2.379689
N   -2.482466    1.988384   1.014623
H   -0.592933   -0.833131   2.927230
H   -0.414286   -2.144860   1.764789
H   -2.738039   -2.011293   1.727622
H   -2.393725   -0.819675   0.485624
H   -3.065568   -0.327831   3.451562
H   -4.109897   -0.012419   2.074631
H   -1.534306    1.496485   2.803649
H   -3.194881    2.038335   3.057090
H   -3.403612    1.965332   0.574448
H   -2.192777    2.966071   1.034325
O    2.412675   -0.695491   1.363767
H    3.163791   -0.390881   1.908980
