 24
Energy: -13526.71149115.7 eV PBE+vdW (tier 2 basis)
N   -0.164738    1.042648   1.494323
C    0.310550   -0.269562   1.985251
C    1.773258   -0.477745   1.527023
O    2.474014   -1.378273   1.931708
H   -0.162105    1.748171   2.228731
H   -1.114870    0.985832   1.131007
H    0.326516   -0.308031   3.086539
C   -0.549417   -1.431657   1.467588
C   -1.958554   -1.475015   2.070830
C   -2.868805   -2.584281   1.517385
C   -2.640207   -3.989026   2.084831
N   -1.322790   -4.531357   1.729805
H   -0.028710   -2.371179   1.687047
H   -0.613670   -1.357248   0.367376
H   -2.466423   -0.508864   1.908442
H   -1.876524   -1.586694   3.165366
H   -2.785096   -2.616713   0.416698
H   -3.916986   -2.318590   1.725400
H   -3.485699   -4.630544   1.764991
H   -2.688632   -3.938967   3.184288
H   -1.270959   -4.720465   0.727734
H   -1.158620   -5.419911   2.201954
O    2.178938    0.431113   0.619474
H    1.384534    1.036360   0.541207
