 24
Energy: -13526.60969415.7 eV PBE+vdW (tier 2 basis)
N    0.309869    0.247808  -0.043344
C    0.015674   -0.496771   1.179373
C    1.214372   -0.378384   2.101879
O    2.366375   -0.260076   1.736638
H   -0.271552   -0.081361  -0.812945
H    1.286414    0.089023  -0.300787
H   -0.834929   -0.022367   1.693667
C   -0.300060   -2.009156   1.009685
C   -1.511310   -2.298188   0.109773
C   -2.872964   -1.745387   0.562101
C   -3.526268   -2.439320   1.761346
N   -2.787751   -2.217408   3.013216
H   -0.478047   -2.441511   2.003058
H    0.589291   -2.495087   0.577193
H   -1.593524   -3.391665  -0.001224
H   -1.306925   -1.925585  -0.908518
H   -3.573375   -1.831851  -0.283254
H   -2.801549   -0.662702   0.764898
H   -3.543814   -3.525953   1.578731
H   -4.584639   -2.114369   1.811495
H   -2.807796   -1.228659   3.268252
H   -3.229298   -2.721181   3.782256
O    0.862754   -0.464417   3.413603
H    1.700535   -0.440782   3.915721
