 24
Energy: -13526.68898915.7 eV PBE+vdW (tier 2 basis)
N    1.803398   -0.196985   2.552591
C    1.976706   -0.259375   1.106250
C    1.019801    0.660218   0.337504
O    0.054729    1.226758   0.805444
H    2.064905    0.728969   2.892398
H    0.812820   -0.295802   2.782903
H    2.996119    0.084539   0.871549
C    1.858395   -1.710303   0.586649
C    0.469660   -2.334411   0.737056
C    0.421759   -3.782504   0.242627
C   -0.976562   -4.404111   0.277749
N   -1.883563   -3.722621  -0.657281
H    2.600517   -2.301401   1.144011
H    2.156598   -1.727580  -0.472228
H   -0.279392   -1.747540   0.184148
H    0.161248   -2.315312   1.795337
H    1.099965   -4.406577   0.846993
H    0.808253   -3.832239  -0.791017
H   -1.398405   -4.289670   1.288771
H   -0.888190   -5.493081   0.095954
H   -1.630328   -3.945109  -1.621082
H   -2.842504   -4.043676  -0.528467
O    1.372989    0.775471  -0.975691
H    0.700084    1.354341  -1.384167
