 24
Energy: -13526.70433215.7 eV PBE+vdW (tier 2 basis)
N   -0.538377    0.277529   0.266072
C   -0.048097    0.019952   1.615770
C    1.457231   -0.248452   1.668886
O    2.121425   -0.697668   0.757632
H   -0.156370   -0.428968  -0.367279
H   -0.186460    1.173548  -0.071874
H   -0.250071    0.906597   2.236084
C   -0.782649   -1.186347   2.243541
C   -2.275159   -0.932089   2.459552
C   -3.018464   -2.163775   2.980125
C   -4.509254   -1.915844   3.202390
N   -5.164345   -3.117602   3.736716
H   -0.301573   -1.441625   3.199884
H   -0.639949   -2.055461   1.579288
H   -2.717739   -0.592651   1.511494
H   -2.397638   -0.100090   3.174056
H   -2.576848   -2.512059   3.927322
H   -2.895326   -2.993328   2.261580
H   -4.956819   -1.543134   2.258792
H   -4.635706   -1.112561   3.945366
H   -6.148205   -2.931762   3.931795
H   -5.146477   -3.866925   3.042907
O    1.987744    0.052124   2.888662
H    2.932952   -0.192210   2.841166
