 24
Energy: -13526.71736215.7 eV PBE+vdW (tier 2 basis)
N    1.622673    0.264268   2.754066
C    1.831356   -0.779708   1.726689
C    0.805765   -0.579114   0.585776
O   -0.153786    0.314589   0.886131
H    2.322316    1.000796   2.683039
H    0.121920    0.642350   1.792104
H    2.823054   -0.676476   1.260535
C    1.726435   -2.221382   2.264817
C    0.335575   -2.720784   2.685315
C   -0.265071   -2.098885   3.950241
C   -1.569977   -2.773384   4.373635
N   -2.119194   -2.138656   5.578320
H    2.438658   -2.326663   3.100679
H    2.094076   -2.874541   1.461860
H    0.415788   -3.809690   2.834995
H   -0.364414   -2.591823   1.844108
H   -0.471783   -1.028042   3.811172
H    0.461486   -2.176507   4.780292
H   -1.395202   -3.863388   4.480022
H   -2.311035   -2.654092   3.568361
H   -3.047041   -2.507259   5.786186
H   -1.537104   -2.351086   6.389943
O    0.853975   -1.185500  -0.461814
H    1.666534   -0.113024   3.698529
