 24
Energy: -13526.63128415.7 eV PBE+vdW (tier 2 basis)
N   -0.917452    0.380646   0.515437
C   -0.301716   -0.089884   1.751880
C    1.203796   -0.146434   1.550631
O    1.769527   -0.181580   0.477429
H   -1.856875    0.001235   0.408802
H   -0.356911    0.080725  -0.283783
H   -0.482059    0.647036   2.552900
C   -0.815020   -1.457952   2.282787
C   -0.478729   -2.663737   1.400784
C   -1.071152   -3.988277   1.898867
C   -2.595601   -4.075846   1.810432
N   -3.059425   -5.397343   2.249013
H   -1.905594   -1.352713   2.397289
H   -0.415162   -1.614229   3.296641
H    0.615364   -2.771164   1.338289
H   -0.819044   -2.477683   0.368800
H   -0.765678   -4.179718   2.939629
H   -0.642050   -4.809332   1.300399
H   -2.908348   -3.807563   0.779633
H   -3.056163   -3.332910   2.479059
H   -4.078132   -5.443890   2.239663
H   -2.730106   -6.120129   1.607182
O    1.870043   -0.188187   2.736694
H    2.817302   -0.259852   2.509497
