 24
Energy: -13526.61088015.7 eV PBE+vdW (tier 2 basis)
N   -0.446037    0.626287   0.313213
C    0.377582   -0.108746   1.280500
C    1.825325   -0.126965   0.811517
O    2.793178    0.116836   1.500312
H   -1.402392    0.693967   0.663749
H   -0.489543    0.115233  -0.570172
H    0.388528    0.472570   2.211897
C   -0.100757   -1.553690   1.583502
C    0.747659   -2.366502   2.568653
C    0.871810   -1.754790   3.968192
C    1.511296   -2.701588   4.987509
N    0.666941   -3.882660   5.222993
H   -0.171482   -2.093429   0.625814
H   -1.130552   -1.467246   1.969390
H    1.758416   -2.517887   2.154470
H    0.306060   -3.368808   2.664667
H   -0.128802   -1.460701   4.334348
H    1.471082   -0.832760   3.932763
H    1.742157   -2.131833   5.908119
H    2.475325   -3.057779   4.591747
H    1.164179   -4.574738   5.782522
H   -0.163567   -3.622173   5.756826
O    1.931571   -0.509430  -0.493812
H    2.886795   -0.505671  -0.696922
