 24
Energy: -13526.58776615.7 eV PBE+vdW (tier 2 basis)
N    0.362754   -0.111877   0.197370
C   -0.173203   -0.100185   1.567330
C    1.009570   -0.477608   2.454596
O    1.590205   -1.542360   2.397537
H    0.721652   -1.045192  -0.015201
H   -0.387355    0.080779  -0.467394
H   -0.464966    0.933006   1.806167
C   -1.380323   -1.040628   1.793433
C   -2.196615   -0.827831   3.079119
C   -1.513382   -1.163697   4.412594
C   -1.068036   -2.619048   4.559104
N   -0.468677   -2.833698   5.882894
H   -1.028881   -2.081236   1.713019
H   -2.053102   -0.879930   0.935910
H   -3.115911   -1.429791   2.991678
H   -2.532447    0.221488   3.112996
H   -2.224917   -0.932312   5.223440
H   -0.647281   -0.510847   4.590881
H   -0.295259   -2.853493   3.813570
H   -1.930318   -3.283665   4.343032
H   -1.179036   -2.764173   6.613161
H   -0.073784   -3.771384   5.950021
O    1.363733    0.512353   3.312761
H    2.116494    0.164162   3.831413
