 24
Energy: -13526.68195615.7 eV PBE+vdW (tier 2 basis)
N    3.254346   -2.355358   2.800678
C    1.902189   -1.830177   2.605270
C    1.855325   -0.721769   1.550275
O    0.827342   -0.885977   0.667688
H    3.594470   -2.787791   1.940627
H    0.876745   -0.126202   0.053686
H    1.260380   -2.654354   2.261990
C    1.359081   -1.296072   3.942868
C   -0.095308   -0.822735   3.910597
C   -0.594578   -0.362467   5.283631
C   -2.076108    0.016822   5.312682
N   -2.354767    1.190349   4.472196
H    2.011964   -0.472486   4.276239
H    1.480130   -2.110176   4.672891
H   -0.739119   -1.639332   3.540054
H   -0.197899    0.003987   3.189679
H   -0.002181    0.503566   5.618832
H   -0.429249   -1.168200   6.017717
H   -2.352157    0.281065   6.343911
H   -2.679745   -0.874756   5.044024
H   -3.304907    1.523600   4.632795
H   -2.303049    0.946904   3.482704
O    2.633532    0.207420   1.480522
H    3.890557   -1.579858   3.000443
