 24
Energy: -13526.60351215.7 eV PBE+vdW (tier 2 basis)
N    0.204794   -0.298669  -0.035963
C   -0.015005   -0.283885   1.411311
C    1.304801   -0.255873   2.164933
O    1.491493    0.312102   3.220276
H   -0.691850   -0.294849  -0.522423
H    0.692621   -1.151634  -0.313897
H   -0.503002    0.667446   1.665667
C   -0.865745   -1.448427   1.995003
C   -2.290381   -1.533446   1.438504
C   -3.170073   -0.316232   1.740518
C   -4.643529   -0.522307   1.376413
N   -5.248001   -1.584092   2.193089
H   -0.906350   -1.331443   3.089983
H   -0.337205   -2.394577   1.796084
H   -2.776558   -2.425295   1.858636
H   -2.259394   -1.700649   0.347744
H   -2.806672    0.574734   1.203842
H   -3.097845   -0.067374   2.814142
H   -4.716145   -0.835364   0.322651
H   -5.168576    0.449589   1.451804
H   -6.182402   -1.811612   1.855071
H   -5.357283   -1.269403   3.158253
O    2.265390   -1.010074   1.557441
H    3.050553   -0.955249   2.135648
