 24
Energy: -13526.59158815.7 eV PBE+vdW (tier 2 basis)
N   -0.054330   -0.051472   0.159055
C    0.051849    0.022308   1.624366
C    1.354656   -0.692675   1.964760
O    1.582993   -1.858523   1.717368
H   -0.066838   -1.032918  -0.126959
H   -0.939256    0.359407  -0.141026
H    0.162735    1.080918   1.901329
C   -1.150124   -0.579743   2.388760
C   -1.220239   -0.320873   3.899517
C   -0.218271   -1.099335   4.760455
C   -0.548752   -1.057242   6.255651
N   -1.820992   -1.737431   6.537566
H   -1.182101   -1.662898   2.185993
H   -2.049086   -0.149439   1.918644
H   -2.230551   -0.582979   4.245730
H   -1.102679    0.759670   4.092141
H    0.801334   -0.709752   4.626737
H   -0.186992   -2.152264   4.430196
H   -0.657752   -0.008264   6.574287
H    0.309063   -1.469409   6.821624
H   -1.717620   -2.745561   6.412994
H   -2.101541   -1.592016   7.506732
O    2.258783    0.122872   2.571324
H    3.052120   -0.427195   2.727863
