 24
Energy: -13526.74306615.7 eV PBE+vdW (tier 2 basis)
N   -1.059877    1.104711  -0.298579
C   -0.864575    0.867637   1.145992
C    0.631257    0.559046   1.413369
O    1.415579    0.768307   0.339014
H    0.761469    1.045154  -0.366065
H   -1.687703    1.886750  -0.472372
H   -1.024588    1.828404   1.660292
C   -1.805027   -0.163979   1.798355
C   -1.962066   -1.502842   1.063255
C   -0.688723   -2.340242   0.910429
C   -0.925064   -3.708476   0.247977
N   -1.354477   -3.715485  -1.154117
H   -2.798530    0.298339   1.902122
H   -1.428125   -0.340629   2.815925
H   -2.420286   -1.333120   0.071421
H   -2.710445   -2.094118   1.616025
H   -0.235703   -2.496070   1.902487
H    0.069494   -1.798526   0.320526
H   -1.677301   -4.269739   0.825824
H    0.003346   -4.295332   0.309267
H   -2.252395   -3.246558  -1.271835
H   -0.680389   -3.223309  -1.742044
O    1.056369    0.208381   2.491468
H   -1.462240    0.284700  -0.753737
