 24
Energy: -13526.63270015.7 eV PBE+vdW (tier 2 basis)
N    0.639040    0.777750   2.325918
C    1.795744    0.079107   2.864980
C    2.269373   -1.092817   1.990397
O    3.493817   -1.556233   2.386469
H   -0.152520    0.129097   2.236724
H    3.708886   -2.290224   1.778791
H    2.644382    0.782281   2.899342
C    1.551006   -0.404252   4.314085
C    0.296424   -1.283432   4.479796
C   -0.974974   -0.513131   4.893370
C   -2.248614   -1.061741   4.246654
N   -2.258867   -0.745335   2.806904
H    1.467865    0.488618   4.951070
H    2.447589   -0.945358   4.643515
H    0.497403   -2.065368   5.226059
H    0.097423   -1.816413   3.536141
H   -0.875555    0.546958   4.612574
H   -1.084535   -0.528724   5.988537
H   -3.136330   -0.676488   4.781976
H   -2.273335   -2.157669   4.349671
H   -2.566784    0.216972   2.661712
H   -2.912914   -1.341227   2.301674
O    1.671607   -1.569197   1.048859
H    0.841867    1.098825   1.378781
