 24
Energy: -13526.64912115.7 eV PBE+vdW (tier 2 basis)
N   -0.575399    0.946054   0.819229
C   -0.014265    0.157129   1.922719
C    1.514729    0.181629   1.970023
O    2.187574    0.599246   2.890114
H   -0.239166    0.586062  -0.075622
H   -0.267779    1.917371   0.880856
H   -0.335766    0.624187   2.864517
C   -0.548161   -1.281006   1.866244
C   -0.071236   -2.163976   3.022272
C   -0.720601   -3.553744   3.049563
C   -0.390033   -4.454624   1.854838
N    1.058569   -4.665969   1.731603
H   -0.250993   -1.723691   0.902716
H   -1.646935   -1.209922   1.860051
H   -0.284389   -1.656963   3.976711
H    1.020914   -2.285790   2.971361
H   -1.816653   -3.454104   3.112978
H   -0.412607   -4.070134   3.974529
H   -0.733621   -3.980688   0.922718
H   -0.971464   -5.391998   1.956265
H    1.406373   -5.210204   2.522703
H    1.273665   -5.203961   0.892790
O    2.069566   -0.308733   0.821197
H    3.036106   -0.253317   0.946759
