 24
Energy: -13526.57815915.7 eV PBE+vdW (tier 2 basis)
N    3.270629   -2.414059   2.972787
C    1.978122   -1.811068   2.650630
C    2.182947   -0.887931   1.455554
O    1.113878   -0.083453   1.216067
H    3.147488   -3.347514   3.360109
H    1.347212    0.434831   0.421565
H    1.228356   -2.551866   2.294952
C    1.381077   -1.115137   3.897562
C   -0.140721   -0.963806   3.915318
C   -0.652780   -0.361624   5.226286
C   -2.170660   -0.170524   5.276038
N   -2.620612    0.801492   4.269142
H    1.873167   -0.139341   4.033382
H    1.696962   -1.725883   4.757925
H   -0.603235   -1.956632   3.772501
H   -0.482441   -0.343490   3.077820
H   -0.164676    0.614215   5.398675
H   -0.354040   -0.998078   6.075581
H   -2.460992    0.096502   6.311276
H   -2.663999   -1.129558   5.050932
H   -2.294474    1.737984   4.513162
H   -3.638872    0.847716   4.244382
O    3.175015   -0.873662   0.754562
H    3.837651   -2.486115   2.126793
