 24
Energy: -13526.51512415.7 eV PBE+vdW (tier 2 basis)
N   -0.703795    1.247025   2.990303
C    0.414741    0.606899   2.310810
C    0.650045    1.140400   0.885901
O    1.916078    0.988641   0.386574
H   -0.483428    2.224204   3.184701
H    2.487291    0.590788   1.067186
H    1.322342    0.802745   2.907292
C    0.187634   -0.922361   2.232166
C    0.158793   -1.617728   3.597392
C    1.519469   -1.685972   4.294869
C    1.469738   -2.417478   5.635423
N    2.791521   -2.424320   6.275814
H    0.963318   -1.379732   1.596174
H   -0.767897   -1.083500   1.708657
H   -0.226557   -2.639788   3.454234
H   -0.565737   -1.096395   4.240777
H    1.921066   -0.677297   4.479075
H    2.245914   -2.193099   3.634201
H    1.041829   -3.428569   5.479360
H    0.777856   -1.887111   6.307792
H    3.438607   -3.012320   5.748110
H    2.734409   -2.828811   7.210367
O   -0.208732    1.643993   0.202392
H   -1.504508    1.266788   2.353431
