 24
Energy: -13526.63612315.7 eV PBE+vdW (tier 2 basis)
N    0.016516   -0.211734   0.271730
C   -0.145244   -0.256759   1.736073
C    0.999422   -1.066619   2.343436
O    1.167659   -2.266827   2.228059
H    0.010805   -1.163999  -0.100818
H    0.918131    0.197852   0.021844
H   -0.063916    0.775121   2.107381
C   -1.530312   -0.819792   2.077050
C   -1.987338   -0.649531   3.535273
C   -1.316685   -1.518294   4.613963
C   -1.749970   -2.987037   4.672858
N   -1.478804   -3.716684   3.428183
H   -1.578202   -1.880730   1.794305
H   -2.228875   -0.277381   1.423015
H   -3.071455   -0.843597   3.567892
H   -1.867503    0.409938   3.817827
H   -1.549818   -1.079984   5.597154
H   -0.219148   -1.466651   4.535515
H   -2.837694   -3.026805   4.851227
H   -1.272077   -3.440129   5.565433
H   -0.490327   -3.650918   3.176227
H   -1.696935   -4.706148   3.539959
O    1.899682   -0.270166   2.990973
H    2.617304   -0.863163   3.290593
