 24
Energy: -13526.72211015.7 eV PBE+vdW (tier 2 basis)
N    0.064278    1.733164   2.106912
C   -0.438630    0.375651   2.415928
C    0.709108   -0.429124   3.081490
O    1.765392    0.336219   3.412228
H    0.335618    1.803105   1.124988
H    1.498110    1.244818   3.085687
H   -1.206376    0.480892   3.200158
C   -1.060109   -0.354137   1.210973
C   -1.950018   -1.551821   1.556773
C   -2.544949   -2.217444   0.314415
C   -3.448980   -3.403342   0.645426
N   -4.017936   -3.982672  -0.579326
H   -0.251256   -0.676147   0.533364
H   -1.658281    0.386564   0.654439
H   -2.766345   -1.210454   2.216977
H   -1.365879   -2.278969   2.136910
H   -1.724896   -2.563078  -0.339406
H   -3.123782   -1.490621  -0.278091
H   -4.288771   -3.055705   1.267695
H   -2.880430   -4.127664   1.262291
H   -3.279108   -4.403070  -1.145606
H   -4.664989   -4.737089  -0.349566
O    0.660917   -1.618994   3.305244
H   -0.646687    2.442919   2.273103
