 24
Energy: -13526.68539015.7 eV PBE+vdW (tier 2 basis)
N   -0.524595   -0.179843  -0.014798
C   -0.032562    0.032318   1.364814
C    1.437479    0.522353   1.286935
O    1.811562    0.868775   0.041062
H   -0.454518   -1.164728  -0.275570
H    0.999411    0.661787  -0.506583
H   -0.595436    0.883217   1.783640
C   -0.207857   -1.181445   2.295554
C   -0.136711   -0.863186   3.794790
C   -0.396785   -2.071087   4.703599
C    0.717942   -3.117931   4.702719
N    0.426215   -4.178472   5.677678
H    0.543113   -1.941608   2.026905
H   -1.194852   -1.622388   2.075189
H   -0.885145   -0.085152   4.018488
H    0.842444   -0.420936   4.024985
H   -1.349278   -2.553425   4.417699
H   -0.530496   -1.726846   5.739839
H    1.659664   -2.635132   5.006306
H    0.879395   -3.498370   3.674756
H   -0.396720   -4.709340   5.387496
H    1.196735   -4.845597   5.720712
O    2.174138    0.609766   2.244641
H   -1.503145    0.086265  -0.107856
