35
Energy: -243352.517782 eV PBE+vdW (tier 2 basis)
C    0.516848  2.156108  0.260570
C    0.387774  1.530153  1.606689
O    1.390413  1.398807  2.366205
H    1.324228  1.627830  -0.269505
H    0.845968  3.201720  0.344398
H    -0.392467  2.098095  -0.344018
N    -0.815589  1.062398  2.042174
C    -2.049059  1.853314  1.988149
C    -1.814915  3.087514  2.911686
O    -0.914453  3.016272  3.811688
H    -0.725258  0.528473  2.907563
H    -2.200031  2.198577  0.956233
C    -3.234428  0.929445  2.389025
C    -4.645564  1.450461  2.063261
C    -5.744807  0.367026  1.964226
C    -6.172535  -0.253501  3.293303
N    -7.364925  -1.182599  3.095767
H    -3.143238  0.678588  3.458154
H    -3.058538  -0.001611  1.828721
H    -4.629353  1.935952  1.077657
H    -4.955655  2.222344  2.783267
H    -5.415374  -0.423644  1.271049
H    -6.622197  0.843405  1.499188
H    -6.499489  0.503338  4.017682
H    -5.390073  -0.866256  3.757296
H    -7.666613  -1.608734  3.985055
H    -7.148341  -1.953026  2.445609
H    -8.177770  -0.679383  2.708514
N    -2.503492  4.210465  2.755339
C    -3.461799  4.611266  1.721020
H    -2.279604  4.929815  3.445088
H    -3.219076  5.631549  1.403161
H    -4.485171  4.603830  2.114338
H    -3.398837  3.955030  0.849589
Ba    1.480680  2.611101  4.526905
