35
Energy: -243352.100269 eV PBE+vdW (tier 2 basis)
C    0.323349  -0.616127  0.881472
C    0.271623  0.784214  1.390904
O    1.272559  1.586417  1.206384
H    1.350123  -0.903957  0.641734
H    -0.286544  -0.694586  -0.033007
H    -0.097932  -1.335045  1.595672
N    -0.811089  1.231744  2.014999
C    -2.033481  0.457841  2.336876
C    -2.855983  -0.012171  1.102325
O    -3.345467  -1.136620  1.146721
H    -0.784868  2.205468  2.321795
H    -1.713591  -0.479156  2.810773
C    -2.893847  1.276141  3.326394
C    -4.324463  0.760119  3.567774
C    -4.451009  -0.623830  4.233657
C    -5.925486  -0.952435  4.455708
N    -6.116834  -2.331750  5.072976
H    -2.991581  2.303458  2.937673
H    -2.352200  1.349647  4.282138
H    -4.873946  0.752121  2.614487
H    -4.823096  1.511430  4.197728
H    -3.916462  -0.627710  5.197528
H    -3.999099  -1.391225  3.586033
H    -6.486770  -0.966805  3.513000
H    -6.413344  -0.245974  5.139043
H    -5.653781  -2.406558  5.990159
H    -5.731112  -3.072683  4.469938
H    -7.115871  -2.541552  5.216749
N    -2.998464  0.856810  0.076558
C    -3.831358  0.562479  -1.092067
H    -2.663745  1.808049  0.188338
H    -3.405416  1.047809  -1.976019
H    -4.859803  0.919281  -0.948356
H    -3.852999  -0.520660  -1.243283
Ba    3.344001  2.576861  0.709086
