35
Energy: -243351.992803 eV PBE+vdW (tier 2 basis)
C    -0.825832  1.750697  -0.096558
C    -0.582890  0.735178  0.977271
O    0.592332  0.210266  1.106370
H    -0.153172  2.608590  0.044836
H    -1.855139  2.123707  -0.111791
H    -0.612103  1.307805  -1.079925
N    -1.593973  0.407079  1.760381
C    -1.667733  -0.570183  2.854732
C    -3.124648  -1.071442  2.833923
O    -4.021207  -0.230647  2.597066
H    -2.504636  0.838729  1.569314
H    -0.953977  -1.376008  2.648680
C    -1.351655  0.057453  4.243458
C    -2.155272  1.325952  4.637549
C    -3.042641  1.224108  5.893358
C    -4.284543  0.337377  5.856259
N    -5.306568  0.788138  4.825789
H    -0.277927  0.287449  4.254250
H    -1.483449  -0.740038  4.990373
H    -2.749964  1.690346  3.787643
H    -1.439036  2.132213  4.839648
H    -3.348633  2.242327  6.181801
H    -2.441264  0.863657  6.741898
H    -4.785396  0.357877  6.831219
H    -4.062610  -0.710574  5.617240
H    -4.975491  0.524811  3.863119
H    -5.466444  1.803448  4.870371
H    -6.216094  0.334089  4.982772
N    -3.382078  -2.350319  3.122249
C    -2.434887  -3.441404  3.372171
H    -4.368213  -2.601908  3.059835
H    -2.993719  -4.290287  3.777047
H    -1.682436  -3.156927  4.116604
H    -1.946223  -3.769765  2.445194
Ba    2.852794  -0.135030  0.483755
