35
Energy: -243351.972072 eV PBE+vdW (tier 2 basis)
C    1.099779  -0.438700  0.077339
C    0.627747  -0.024161  1.438839
O    1.406718  0.413084  2.302621
H    1.955694  -1.115940  0.192402
H    1.479057  0.448026  -0.449502
H    0.331252  -0.917259  -0.539372
N    -0.717942  -0.128849  1.693861
C    -1.364383  0.087908  2.994670
C    -1.305887  1.564918  3.446530
O    -2.387407  2.201154  3.775189
H    -1.319389  -0.402615  0.924420
H    -2.427911  -0.130650  2.835277
C    -0.820760  -0.816292  4.141352
C    -0.687412  -2.323837  3.855057
C    -2.000374  -3.100595  3.640659
C    -1.959669  -4.573930  4.045625
N    -1.002616  -5.419896  3.209182
H    -1.477998  -0.666512  5.012403
H    0.171939  -0.454346  4.435216
H    -0.164530  -2.735407  4.733368
H    -0.004953  -2.467672  3.002937
H    -2.363857  -3.006896  2.604840
H    -2.795035  -2.672977  4.272413
H    -2.942794  -5.046791  3.935749
H    -1.631240  -4.699498  5.085254
H    -1.015737  -6.402377  3.522862
H    -0.029263  -5.092526  3.283355
H    -1.260555  -5.417648  2.212053
N    -0.128999  2.133498  3.509933
C    0.107067  3.509301  3.918126
H    0.671564  1.514654  3.156857
H    1.182872  3.706210  3.890521
H    -0.238303  3.677251  4.949668
H    -0.379070  4.216516  3.227657
Ba    -3.833507  3.942077  4.362491
