35
Energy: -243352.215523 eV PBE+vdW (tier 2 basis)
C    -0.342393  -1.640100  1.148680
C    -0.143079  -0.443921  2.018769
O    1.008532  -0.285367  2.606329
H    -1.363487  -1.738771  0.771685
H    -0.085070  -2.546608  1.712632
H    0.343962  -1.587925  0.291187
N    -1.078960  0.455986  2.214988
C    -2.335987  0.701348  1.489875
C    -2.418065  2.262187  1.540772
O    -1.729777  2.839260  2.398129
H    -0.867551  1.333145  2.748906
H    -2.229380  0.353905  0.454571
C    -3.591637  0.038748  2.114231
C    -3.981737  0.540616  3.516977
C    -5.465083  0.343517  3.896975
C    -5.890219  -1.108844  4.096917
N    -7.336436  -1.188224  4.574491
H    -3.440413  -1.051528  2.109804
H    -4.415226  0.230259  1.409708
H    -3.794140  1.621217  3.587619
H    -3.339125  0.079622  4.282348
H    -6.100999  0.812683  3.128322
H    -5.642494  0.898564  4.831712
H    -5.292239  -1.613242  4.866497
H    -5.847326  -1.703052  3.175906
H    -7.985655  -0.764562  3.895236
H    -7.466303  -0.690590  5.468093
H    -7.637832  -2.163214  4.719693
N    -3.234747  2.906633  0.698345
C    -4.040548  2.386076  -0.403398
H    -3.243610  3.916585  0.838032
H    -5.090969  2.255617  -0.109584
H    -3.645894  1.432244  -0.768601
H    -4.003472  3.097372  -1.235548
Ba    3.194302  0.051718  3.314317
