35
Energy: -243351.921251 eV PBE+vdW (tier 2 basis)
C    0.524332  -1.262035  0.774741
C    0.077715  -0.100350  1.607046
O    0.916826  0.834277  1.906458
H    0.884069  -0.904170  -0.200560
H    -0.268224  -1.996146  0.593935
H    1.357622  -1.776728  1.274069
N    -1.182355  -0.073864  2.019349
C    -1.872561  0.950269  2.827392
C    -2.723131  0.267873  3.949223
O    -3.944306  0.466567  4.013343
H    -1.755328  -0.854755  1.702732
H    -1.086987  1.545934  3.313293
C    -2.743481  1.880602  1.963226
C    -3.804856  1.182463  1.087071
C    -5.060246  2.027411  0.794251
C    -5.890329  2.484885  1.992769
N    -6.325385  1.332424  2.875977
H    -3.210699  2.579968  2.669478
H    -2.081443  2.489628  1.331333
H    -4.112735  0.231294  1.546460
H    -3.365931  0.911782  0.116433
H    -5.704284  1.465220  0.101124
H    -4.783348  2.943693  0.251419
H    -5.347147  3.171535  2.653334
H    -6.797661  2.998132  1.653892
H    -6.955622  1.656013  3.621694
H    -6.832353  0.614263  2.342247
H    -5.482132  0.898076  3.327789
N    -2.096259  -0.512965  4.846479
C    -0.674682  -0.787954  5.013491
H    -2.726955  -0.920989  5.536446
H    -0.352652  -1.657870  4.423697
H    -0.485379  -1.005278  6.069690
H    -0.071192  0.087473  4.743317
Ba    2.986714  2.002519  1.821753
