35
Energy: -243352.603989 eV PBE+vdW (tier 2 basis)
C    0.388718  -0.273801  0.215737
C    0.125670  0.802367  1.218180
O    0.833198  1.847752  1.251772
H    1.471105  -0.334941  0.048377
H    -0.066511  -0.013895  -0.753333
H    0.009862  -1.254065  0.521802
N    -0.890164  0.665812  2.117721
C    -2.227054  0.232982  1.708896
C    -2.816366  1.365574  0.792549
O    -2.140251  2.416266  0.565749
H    -0.903565  1.426511  2.799373
H    -2.121648  -0.659916  1.073107
C    -3.125108  -0.111351  2.918100
C    -2.874714  -1.475764  3.603151
C    -1.711652  -1.527310  4.609032
C    -1.465296  -2.889359  5.260913
N    -2.533858  -3.292543  6.274730
H    -4.167500  -0.108527  2.572633
H    -3.070829  0.708167  3.653508
H    -2.734280  -2.250955  2.832686
H    -3.818391  -1.730570  4.111258
H    -1.842133  -0.760812  5.391040
H    -0.764265  -1.277924  4.109003
H    -0.522109  -2.890461  5.819693
H    -1.428708  -3.703920  4.526308
H    -2.613731  -2.605298  7.038651
H    -2.300256  -4.199244  6.708035
H    -3.465534  -3.395330  5.849115
N    -4.004798  1.173286  0.247715
C    -4.679900  2.123085  -0.646167
H    -4.486179  0.297260  0.434091
H    -5.702021  1.773282  -0.812804
H    -4.160715  2.178067  -1.611111
H    -4.711585  3.116412  -0.185708
Ba    -0.159017  3.951750  0.368806
