35
Energy: -243351.877760 eV PBE+vdW (tier 2 basis)
C    -0.850400  -0.866487  0.273079
C    -0.576559  -0.738811  1.741547
O    0.454499  -1.156620  2.283305
H    -0.853684  -1.934218  0.011770
H    -1.797770  -0.419322  -0.047268
H    -0.029575  -0.411110  -0.297057
N    -1.556296  -0.124125  2.500454
C    -1.368642  0.120859  3.927160
C    -2.660337  -0.219352  4.689068
O    -2.860659  0.188158  5.894165
H    -2.229740  0.449188  1.995396
H    -0.646982  -0.656481  4.246636
C    -0.752591  1.492611  4.287857
C    0.772701  1.581225  4.046461
C    1.202314  1.957319  2.614653
C    2.645605  1.618331  2.249249
N    2.920921  0.113890  2.247157
H    -0.933352  1.661676  5.358291
H    -1.284131  2.295324  3.753819
H    1.214605  0.620592  4.353970
H    1.185294  2.331978  4.734445
H    1.104693  3.044497  2.479863
H    0.536880  1.517872  1.860340
H    3.371616  2.072064  2.934424
H    2.872273  1.975362  1.238599
H    3.302488  -0.203672  3.145764
H    3.617051  -0.131241  1.531737
H    2.045154  -0.447231  2.077388
N    -3.539382  -0.998636  4.091775
C    -4.778250  -1.502637  4.679239
H    -3.290148  -1.298796  3.148143
H    -5.293173  -2.118070  3.936247
H    -5.442225  -0.671186  4.951040
H    -4.565359  -2.130596  5.555162
Ba    -3.553282  0.736904  8.084145
