35
Energy: -243351.857927 eV PBE+vdW (tier 2 basis)
C    0.711422  1.610323  1.109791
C    0.554676  0.572352  2.173113
O    1.583782  -0.087292  2.602920
H    0.262095  2.565504  1.414573
H    0.206808  1.294628  0.183780
H    1.768433  1.773076  0.885399
N    -0.642277  0.318589  2.690942
C    -1.934453  0.933225  2.310198
C    -2.287087  2.265245  3.039659
O    -3.334664  2.806988  2.702485
H    -0.677300  -0.407484  3.408039
H    -1.850770  1.207256  1.249696
C    -3.099307  -0.083536  2.488789
C    -4.022847  -0.268953  1.264787
C    -4.827819  0.948394  0.772262
C    -5.948360  1.460691  1.673355
N    -7.230969  0.640896  1.531086
H    -3.678562  0.201661  3.377296
H    -2.672154  -1.073294  2.710093
H    -4.694282  -1.112203  1.497430
H    -3.418283  -0.626950  0.417596
H    -5.235060  0.722815  -0.226682
H    -4.161990  1.808421  0.626095
H    -6.227596  2.486901  1.409922
H    -5.688691  1.449480  2.737563
H    -7.974658  0.999957  2.147266
H    -7.090082  -0.350782  1.766502
H    -7.590839  0.678372  0.566262
N    -1.436008  2.744252  3.968935
C    -1.707387  3.972115  4.722468
H    -0.650486  2.174976  4.259477
H    -0.770520  4.513340  4.889908
H    -2.174419  3.745738  5.689620
H    -2.387846  4.596412  4.137033
Ba    3.710391  -1.049501  2.933723
