35
Energy: -243352.006333 eV PBE+vdW (tier 2 basis)
C    -0.174102  0.872448  -0.036475
C    -0.076033  0.484275  1.400234
O    1.070348  0.536841  2.000413
H    -0.939108  0.306207  -0.578924
H    0.788662  0.730752  -0.536437
H    -0.446720  1.938202  -0.095239
N    -1.143719  0.091540  2.076505
C    -2.539835  0.094316  1.593896
C    -2.952327  1.565598  1.284463
O    -2.437988  2.485601  1.916659
H    -0.995699  -0.092786  3.067936
H    -2.569884  -0.514279  0.677818
C    -3.470298  -0.586632  2.627338
C    -3.799053  0.204341  3.916747
C    -5.048233  1.109604  3.849330
C    -6.404009  0.412046  3.952405
N    -6.761280  0.031169  5.388055
H    -3.017052  -1.555113  2.886616
H    -4.394122  -0.845636  2.089821
H    -2.950952  0.844898  4.199811
H    -3.895557  -0.518614  4.742679
H    -5.061336  1.665146  2.901708
H    -4.983255  1.891546  4.622365
H    -6.460426  -0.518619  3.373427
H    -7.215886  1.069319  3.619902
H    -7.681082  -0.432535  5.433405
H    -6.810287  0.864288  5.992941
H    -6.074704  -0.612410  5.805012
N    -3.902862  1.699686  0.334583
C    -4.446581  2.995008  -0.077396
H    -4.204736  0.877492  -0.179514
H    -5.542340  2.968921  -0.059892
H    -4.117085  3.247477  -1.093029
H    -4.084007  3.758169  0.616841
Ba    3.320214  0.923925  2.517642
