35
Energy: -243352.888554 eV PBE+vdW (tier 2 basis)
C    -0.714897  -1.342490  -0.502053
C    -0.398479  -0.890290  0.884665
O    0.794631  -0.661475  1.244401
H    -0.416789  -0.548741  -1.203432
H    -1.774012  -1.571837  -0.659005
H    -0.112204  -2.225955  -0.750144
N    -1.415929  -0.716825  1.747632
C    -1.322083  -0.125206  3.098648
C    -0.626484  -1.135791  4.045971
O    0.631092  -1.084968  4.182096
H    -2.350266  -0.918462  1.397423
H    -0.628279  0.726774  3.035163
C    -2.727070  0.392672  3.480330
C    -2.870064  1.425374  4.620487
C    -2.819960  0.899914  6.070899
C    -3.705824  1.651517  7.067477
N    -3.293226  3.100248  7.316076
H    -3.419750  -0.448163  3.657261
H    -3.106240  0.886411  2.573025
H    -3.855515  1.887911  4.452024
H    -2.133599  2.230748  4.470693
H    -1.788101  0.838867  6.450450
H    -3.208429  -0.129428  6.109771
H    -3.689804  1.169333  8.052179
H    -4.747980  1.696877  6.725904
H    -3.927604  3.543716  7.998738
H    -3.329402  3.671439  6.460040
H    -2.340720  3.169912  7.702035
N    -1.363431  -2.054780  4.654783
C    -0.837013  -3.124917  5.508029
H    -2.360909  -2.068274  4.459108
H    -1.612449  -3.423200  6.219901
H    0.039464  -2.762567  6.052469
H    -0.559270  -3.999245  4.904477
Ba    2.676048  -0.909579  2.747778
