35
Energy: -243352.086595 eV PBE+vdW (tier 2 basis)
C    -0.170658  0.528703  -0.035548
C    -0.636860  -0.850816  0.317025
O    -0.416578  -1.828135  -0.499694
H    0.919488  0.527407  -0.177568
H    -0.411115  1.276022  0.728055
H    -0.638583  0.846863  -0.978218
N    -1.268330  -1.016650  1.468213
C    -1.827931  -2.233334  2.090845
C    -3.177567  -1.798402  2.730910
O    -3.142583  -1.117748  3.773328
H    -1.367400  -0.177986  2.043253
H    -1.974776  -2.983497  1.302929
C    -0.884086  -2.739213  3.201735
C    -1.514056  -3.825876  4.097325
C    -1.044527  -3.809716  5.564958
C    -1.246290  -2.520496  6.360708
N    -2.685046  -2.035984  6.366335
H    -0.610648  -1.860258  3.802032
H    0.048098  -3.101085  2.747088
H    -1.294424  -4.821655  3.689716
H    -2.612755  -3.751308  4.069691
H    0.033033  -4.026315  5.620295
H    -1.532266  -4.642469  6.093954
H    -0.657159  -1.680171  5.974199
H    -0.954782  -2.675037  7.406172
H    -2.803933  -1.255405  7.025918
H    -3.332521  -2.778858  6.660786
H    -2.965662  -1.691123  5.410536
N    -4.299550  -2.164590  2.105252
C    -5.646710  -1.813558  2.562547
H    -4.225206  -2.745240  1.275857
H    -6.250747  -1.500063  1.704356
H    -5.574342  -0.989206  3.276683
H    -6.129092  -2.676010  3.040230
Ba    0.480941  -2.774836  -2.482186
