35
Energy: -243351.864554 eV PBE+vdW (tier 2 basis)
C    0.046245  -0.485606  -0.218651
C    0.075034  -0.016243  1.198212
O    1.178751  0.465127  1.673841
H    -0.814359  -1.114606  -0.457808
H    0.964176  -1.049376  -0.428887
H    0.039097  0.386505  -0.890190
N    -0.981000  -0.088962  2.006265
C    -2.417425  -0.424889  1.744630
C    -2.734415  -1.934195  1.574483
O    -3.922416  -2.265526  1.460480
H    -0.797179  0.254369  2.949091
H    -2.900798  -0.168836  2.698186
C    -2.998607  0.506515  0.643448
C    -4.490094  0.436482  0.260431
C    -5.555140  0.926720  1.260479
C    -5.996857  0.009371  2.399964
N    -6.447726  -1.343604  1.894479
H    -2.439790  0.339727  -0.286374
H    -2.766354  1.534211  0.963632
H    -4.729381  -0.562366  -0.127428
H    -4.575533  1.097758  -0.614033
H    -6.451778  1.192331  0.678853
H    -5.237252  1.872656  1.725345
H    -6.837243  0.457502  2.942857
H    -5.203541  -0.203651  3.126496
H    -6.909685  -1.889292  2.633048
H    -5.588733  -1.862252  1.583770
H    -7.111413  -1.260436  1.113314
N    -1.740206  -2.833021  1.584304
C    -1.992767  -4.276355  1.488974
H    -0.801652  -2.533051  1.815002
H    -2.682457  -4.476064  0.662837
H    -2.432839  -4.658658  2.418719
H    -1.044131  -4.786015  1.299803
Ba    3.337588  1.374678  2.051955
