35
Energy: -243352.560798 eV PBE+vdW (tier 2 basis)
C    -1.925892  1.703373  -1.671481
C    -1.267390  0.891824  -0.608574
O    -0.076595  0.486904  -0.737892
H    -1.774247  1.178765  -2.626701
H    -1.432601  2.679834  -1.782335
H    -2.999081  1.846607  -1.517322
N    -1.949028  0.543183  0.520553
C    -2.676338  1.520704  1.330158
C    -1.599462  2.363201  2.087610
O    -0.372684  2.028430  2.002763
H    -1.417112  -0.120605  1.083770
H    -3.185422  2.212959  0.642770
C    -3.775309  0.856616  2.197404
C    -3.310111  -0.205895  3.206846
C    -4.415858  -0.714329  4.162586
C    -5.476663  -1.589389  3.492853
N    -6.452073  -2.153163  4.518814
H    -4.491497  0.428099  1.481457
H    -4.316682  1.650122  2.729974
H    -2.515768  0.209294  3.845931
H    -2.870368  -1.072278  2.687030
H    -4.897898  0.144902  4.656132
H    -3.923374  -1.296272  4.957008
H    -5.035974  -2.459107  2.989104
H    -6.092328  -1.044033  2.767492
H    -7.165303  -2.749236  4.071644
H    -6.952638  -1.407531  5.025089
H    -5.971949  -2.731210  5.225051
N    -1.948790  3.441484  2.774077
C    -3.256889  4.092247  2.905560
H    -1.172779  3.909028  3.244528
H    -3.095476  5.174395  2.952813
H    -3.761799  3.777919  3.827715
H    -3.892490  3.882138  2.040100
Ba    1.711588  1.295581  0.779594
