35
Energy: -243351.936943 eV PBE+vdW (tier 2 basis)
C    0.208792  0.718229  2.588095
C    -0.059921  -0.618452  1.978803
O    0.855572  -1.536848  1.981198
H    1.184613  0.727561  3.079426
H    -0.563026  0.991797  3.320928
H    0.198428  1.503675  1.816738
N    -1.235389  -0.877027  1.423222
C    -2.366603  0.071920  1.293848
C    -3.122730  0.365026  2.621550
O    -3.414127  1.538041  2.843506
H    -1.356418  -1.813253  1.036158
H    -1.933244  1.045680  1.032680
C    -3.301380  -0.361697  0.140470
C    -4.149348  0.767151  -0.486336
C    -5.397515  1.225109  0.294601
C    -6.170481  2.259264  -0.520427
N    -7.393892  2.769268  0.230343
H    -3.949758  -1.192226  0.458428
H    -2.662459  -0.754203  -0.665391
H    -4.468211  0.401940  -1.473834
H    -3.500496  1.635331  -0.681122
H    -5.101820  1.659914  1.260810
H    -6.043942  0.356167  0.499987
H    -6.545745  1.853607  -1.468473
H    -5.564002  3.146817  -0.740797
H    -7.132299  3.209534  1.124458
H    -8.054304  2.007867  0.443257
H    -7.906231  3.473239  -0.321532
N    -3.462311  -0.646142  3.459071
C    -3.289643  -2.087408  3.323685
H    -3.944912  -0.316455  4.293000
H    -2.278634  -2.417626  3.604927
H    -3.520705  -2.436344  2.309327
H    -3.996923  -2.583010  3.996345
Ba    2.864105  -2.741835  2.138807
