35
Energy: -243352.112042 eV PBE+vdW (tier 2 basis)
C    0.241187  -2.018742  0.758978
C    0.075370  -1.475403  2.146204
O    0.998293  -1.708444  3.030518
H    0.316763  -3.115159  0.795805
H    1.165955  -1.624944  0.313932
H    -0.592142  -1.761719  0.097011
N    -1.008443  -0.781371  2.409939
C    -1.540017  -0.192937  3.647606
C    -3.029026  -0.661497  3.611095
O    -3.585453  -0.635179  2.511175
H    -1.748475  -0.745286  1.688893
H    -0.979601  -0.570411  4.512589
C    -1.481248  1.355133  3.545182
C    -2.160693  2.079624  4.718792
C    -2.229696  3.617787  4.587740
C    -3.321805  4.095027  3.631056
N    -3.461738  5.612389  3.666768
H    -1.962192  1.623361  2.592200
H    -0.427375  1.662458  3.470354
H    -1.617784  1.856342  5.648800
H    -3.180032  1.691441  4.864545
H    -1.251586  4.017917  4.275989
H    -2.432612  4.027452  5.589564
H    -4.307455  3.698102  3.904899
H    -3.125379  3.837047  2.583493
H    -3.702641  5.947022  4.611720
H    -4.203228  5.938530  3.029020
H    -2.589045  6.085232  3.390108
N    -3.592669  -1.034679  4.771202
C    -4.985762  -1.474730  4.882023
H    -3.026772  -1.032561  5.613388
H    -5.540179  -0.818989  5.564016
H    -5.028257  -2.502568  5.261035
H    -5.439365  -1.436609  3.888069
Ba    2.940765  -2.793295  3.764165
