35
Energy: -243351.538277 eV PBE+vdW (tier 2 basis)
C    0.258540  0.669661  0.365330
C    -0.038616  0.262119  1.766877
O    0.966702  0.113491  2.583237
H    0.902419  1.558853  0.377086
H    -0.626763  0.885174  -0.231121
H    0.824293  -0.136653  -0.124221
N    -1.250596  0.029483  2.244837
C    -2.660177  0.036477  1.750955
C    -3.299237  -1.392525  1.832713
O    -4.344500  -1.487082  2.462074
H    -1.227776  -0.251610  3.227290
H    -3.192384  0.555852  2.559356
C    -3.010906  0.770568  0.445342
C    -4.544301  0.824983  0.254196
C    -4.956645  1.667000  -0.964706
C    -6.401922  1.491734  -1.424116
N    -7.429157  2.032437  -0.431627
H    -2.572680  0.276959  -0.433116
H    -2.609576  1.794960  0.488476
H    -5.000466  1.218721  1.176968
H    -4.928658  -0.199516  0.139449
H    -4.352612  1.378312  -1.839145
H    -4.740187  2.735176  -0.801299
H    -6.663420  0.437030  -1.577109
H    -6.586274  2.031853  -2.360208
H    -8.386204  1.920940  -0.798601
H    -7.288674  3.036721  -0.249946
H    -7.392601  1.541640  0.472556
N    -2.721657  -2.441132  1.191704
C    -1.538968  -2.497795  0.345228
H    -3.237096  -3.309289  1.326522
H    -1.588267  -3.411554  -0.255375
H    -0.605639  -2.535932  0.928313
H    -1.495798  -1.657097  -0.357440
Ba    2.972634  0.026150  3.787836
