35
Energy: -243353.075274 eV PBE+vdW (tier 2 basis)
C    -0.399989  0.013888  0.317018
C    -0.072057  -0.041056  1.776952
O    1.113198  -0.266122  2.159750
H    0.201861  0.797016  -0.164019
H    -1.457584  0.202160  0.104820
H    -0.104786  -0.937835  -0.146665
N    -1.081510  0.162750  2.643914
C    -1.124667  0.065116  4.120342
C    -0.197628  1.073120  4.835913
O    1.064198  1.019614  4.745612
H    -1.978657  0.361033  2.209214
H    -2.151362  0.375216  4.360035
C    -0.974950  -1.379008  4.666645
C    -2.150263  -2.275213  4.217796
C    -2.472624  -3.506486  5.094716
C    -1.530599  -4.696611  4.924606
N    -2.068771  -5.919441  5.660053
H    -0.963411  -1.299534  5.764995
H    -0.003292  -1.796267  4.367499
H    -2.012431  -2.592063  3.173102
H    -3.068253  -1.668176  4.223053
H    -3.490899  -3.827540  4.823460
H    -2.513792  -3.208038  6.154464
H    -0.527599  -4.518561  5.331121
H    -1.434757  -4.999415  3.874160
H    -2.174296  -5.745603  6.670766
H    -1.445797  -6.734008  5.552694
H    -2.995862  -6.196699  5.302690
N    -0.802043  1.976677  5.596231
C    -0.123961  2.985966  6.413764
H    -1.818884  1.995155  5.604297
H    -0.709089  3.152334  7.323873
H    -0.046933  3.933131  5.863863
H    0.874584  2.631182  6.681069
Ba    3.043901  0.602317  3.365197
