35
Energy: -243352.672784 eV PBE+vdW (tier 2 basis)
C    -2.121863  1.530285  0.995802
C    -1.122615  0.859781  1.877723
O    -0.480680  1.511626  2.750703
H    -2.383967  0.945572  0.109080
H    -1.700339  2.494635  0.680430
H    -3.039048  1.764013  1.558464
N    -0.877719  -0.473572  1.753956
C    -1.945828  -1.469109  1.669790
C    -2.700853  -1.431750  3.040093
O    -2.200026  -0.807529  4.025099
H    -0.084132  -0.776339  2.320623
H    -2.654598  -1.156761  0.887731
C    -1.327390  -2.838261  1.274550
C    -2.322471  -3.939526  0.869917
C    -1.679087  -5.251719  0.359070
C    -1.149072  -5.178598  -1.073907
N    -0.697633  -6.549919  -1.561745
H    -0.692889  -3.199698  2.099943
H    -0.653026  -2.607768  0.436573
H    -3.020211  -3.559358  0.105610
H    -2.932820  -4.225496  1.738057
H    -2.452601  -6.033549  0.408893
H    -0.874897  -5.563690  1.044361
H    -0.277614  -4.521771  -1.182876
H    -1.921765  -4.850635  -1.780845
H    -0.345204  -6.508207  -2.530251
H    -1.471510  -7.231659  -1.549569
H    0.058605  -6.938052  -0.978424
N    -3.874581  -2.038801  3.126421
C    -4.700828  -2.092803  4.338751
H    -4.260432  -2.458269  2.284962
H    -4.084392  -2.368278  5.200411
H    -5.478046  -2.848457  4.195986
H    -5.181010  -1.123116  4.522547
Ba    -0.950858  1.091090  5.144919
