35
Energy: -243351.682610 eV PBE+vdW (tier 2 basis)
C    -0.152044  0.471574  0.060421
C    -0.092295  0.204670  1.525644
O    0.996435  0.534865  2.152886
H    -1.137245  0.343831  -0.384088
H    0.548179  -0.211109  -0.445290
H    0.193119  1.494771  -0.134691
N    -1.054770  -0.369813  2.239200
C    -2.461075  -0.842475  2.022066
C    -2.631435  -2.336859  2.412085
O    -3.573884  -2.616902  3.172614
H    -0.785303  -0.477677  3.219233
H    -3.009789  -0.324442  2.819477
C    -3.150827  -0.528148  0.682575
C    -4.605058  -1.042326  0.548249
C    -5.750522  -0.267812  1.231078
C    -5.971838  -0.370966  2.740078
N    -6.163372  -1.796282  3.211624
H    -2.590724  -0.990756  -0.140614
H    -3.137857  0.560419  0.521175
H    -4.648488  -2.115729  0.788040
H    -4.823168  -0.998788  -0.527524
H    -6.685092  -0.571128  0.733312
H    -5.656802  0.806488  1.009530
H    -6.872030  0.189714  3.018450
H    -5.139219  0.024301  3.334746
H    -6.530610  -1.825908  4.171628
H    -5.224082  -2.278785  3.206950
H    -6.825746  -2.311631  2.617206
N    -1.822970  -3.288276  1.920498
C    -0.734407  -3.197361  0.951898
H    -2.056411  -4.221257  2.260897
H    -0.607416  -4.180928  0.488708
H    0.217132  -2.923937  1.429190
H    -0.967994  -2.489670  0.149421
Ba    3.080975  1.433510  2.815919
