35
Energy: -243352.944078 eV PBE+vdW (tier 2 basis)
C    -0.790327  0.558128  -0.680670
C    -0.398296  0.691226  0.755552
O    0.756683  0.349124  1.144274
H    -1.803744  0.910694  -0.898519
H    -0.711652  -0.500045  -0.969281
H    -0.076432  1.110205  -1.306773
N    -1.312966  1.186016  1.610341
C    -1.254642  1.309423  3.084920
C    -0.066660  2.195487  3.526971
O    1.095002  1.710211  3.678913
H    -2.208956  1.425758  1.193691
H    -2.172678  1.856301  3.333793
C    -1.316256  -0.053039  3.811476
C    -1.866892  0.033400  5.249352
C    -1.955868  -1.357441  5.906696
C    -2.419528  -1.405068  7.363652
N    -3.932654  -1.291513  7.535532
H    -0.322017  -0.521892  3.814981
H    -1.966311  -0.705344  3.210647
H    -2.859742  0.513728  5.216052
H    -1.225919  0.683527  5.866370
H    -0.954812  -1.814802  5.912837
H    -2.573610  -2.037087  5.296403
H    -1.984743  -0.602518  7.972751
H    -2.152965  -2.363889  7.823532
H    -4.192532  -1.356590  8.532008
H    -4.426707  -2.052621  7.046254
H    -4.308179  -0.400256  7.184281
N    -0.290802  3.484372  3.757149
C    -1.535014  4.252593  3.607061
H    0.527497  4.005415  4.073764
H    -1.298809  5.307422  3.773979
H    -2.283483  3.952541  4.351063
H    -1.943384  4.155666  2.594533
Ba    2.849670  0.583535  2.336188
