35
Energy: -243351.684984 eV PBE+vdW (tier 2 basis)
C    1.053657  0.294676  1.081066
C    0.389416  0.284219  2.428891
O    1.013908  0.164642  3.485698
H    1.943790  0.933962  1.114093
H    0.405682  0.623791  0.261028
H    1.406266  -0.724545  0.862722
N    -0.991902  0.433147  2.410785
C    -1.912041  0.107373  3.510046
C    -3.296965  0.674711  3.195221
O    -4.350338  0.071111  3.626249
H    -1.380938  0.273817  1.482827
H    -2.050656  -0.986757  3.560922
C    -1.498557  0.541970  4.954658
C    -1.250751  2.029346  5.282287
C    0.160793  2.603694  5.047487
C    1.242247  1.968842  5.941678
N    2.512753  1.694848  5.166682
H    -0.633341  -0.073963  5.222572
H    -2.320400  0.184130  5.593387
H    -1.496045  2.161622  6.346833
H    -1.969502  2.675513  4.755693
H    0.123130  3.683258  5.243873
H    0.440265  2.498529  3.991760
H    0.934654  0.994628  6.338301
H    1.505972  2.609001  6.790683
H    3.226447  1.242376  5.753860
H    2.929538  2.557288  4.792535
H    2.268631  1.054716  4.370737
N    -3.383138  1.797751  2.512132
C    -4.615313  2.506749  2.160681
H    -2.493140  2.201706  2.217006
H    -4.350063  3.413348  1.610150
H    -5.165106  2.794810  3.065342
H    -5.246574  1.883239  1.514891
Ba    -6.293117  -1.123364  4.255285
