35
Energy: -243352.720641 eV PBE+vdW (tier 2 basis)
C    -0.293292  -0.180296  0.012343
C    -0.424222  0.143831  1.467276
O    0.533652  0.675600  2.096325
H    0.598249  0.312090  -0.387039
H    -1.172283  0.147534  -0.554018
H    -0.183012  -1.265497  -0.140082
N    -1.578790  -0.121750  2.139122
C    -2.306272  -1.398541  2.053174
C    -1.279825  -2.546619  2.337957
O    -0.126842  -2.265400  2.789678
H    -1.571457  0.279695  3.075926
H    -2.970036  -1.390960  2.933110
C    -3.217367  -1.583276  0.817197
C    -4.240600  -0.444785  0.647818
C    -5.251271  -0.718737  -0.485389
C    -6.272303  0.413330  -0.603886
N    -7.295426  0.146022  -1.700214
H    -3.772702  -2.524852  0.951292
H    -2.620529  -1.710775  -0.095996
H    -3.713478  0.501638  0.454781
H    -4.786651  -0.304552  1.594299
H    -5.775655  -1.667766  -0.288172
H    -4.716703  -0.839736  -1.441390
H    -5.803101  1.372106  -0.857468
H    -6.850229  0.546202  0.319304
H    -7.978108  0.916420  -1.767992
H    -7.829932  -0.717861  -1.525088
H    -6.852766  0.050403  -2.626134
N    -1.658505  -3.798855  2.149873
C    -0.833790  -4.972740  2.464756
H    -2.593940  -3.971610  1.793839
H    -1.392826  -5.870714  2.189670
H    -0.610097  -5.004751  3.537731
H    0.101366  -4.944841  1.893884
Ba    1.838547  -0.876668  3.531727
