35
Energy: -243351.826430 eV PBE+vdW (tier 2 basis)
C    1.222188  0.012678  0.033150
C    0.974962  -0.281584  1.471081
O    1.992118  -0.256249  2.281298
H    0.315889  0.035951  -0.569215
H    1.876092  -0.765266  -0.381546
H    1.742303  0.978521  -0.042014
N    -0.220847  -0.502737  2.001374
C    -1.521248  -0.854638  1.386803
C    -1.353363  -2.261086  0.738824
O    -0.321347  -2.515670  0.120681
H    -0.194958  -0.643557  3.010402
H    -2.185131  -0.928850  2.254582
C    -2.125636  0.233975  0.435187
C    -2.332465  -0.085260  -1.066740
C    -3.686479  -0.742313  -1.393716
C    -3.953835  -1.017362  -2.872232
N    -4.309129  0.238091  -3.666797
H    -1.495847  1.127883  0.525420
H    -3.091440  0.531423  0.865925
H    -1.522099  -0.723979  -1.449370
H    -2.244223  0.875395  -1.599636
H    -4.516207  -0.151401  -0.970719
H    -3.748534  -1.725757  -0.907457
H    -4.810057  -1.689785  -3.000768
H    -3.088897  -1.461771  -3.380935
H    -4.497759  0.007996  -4.654026
H    -3.553207  0.936107  -3.656691
H    -5.156047  0.691749  -3.293958
N    -2.383928  -3.125369  0.871455
C    -3.571636  -3.007113  1.720366
H    -2.200631  -4.036492  0.453943
H    -4.267152  -3.807434  1.449809
H    -4.092670  -2.054370  1.562671
H    -3.331755  -3.119172  2.786882
Ba    4.077031  -0.299824  3.325245
