35
Energy: -243351.742744 eV PBE+vdW (tier 2 basis)
C    -0.126333  -0.069560  -0.382581
C    -0.378055  -0.270633  1.082807
O    0.048276  -1.249935  1.718585
H    -0.636651  0.801559  -0.807799
H    -0.443284  -0.971131  -0.922724
H    0.953384  0.040120  -0.554192
N    -1.116621  0.694686  1.716768
C    -1.410039  0.624160  3.148415
C    -2.829848  1.119590  3.442782
O    -3.662796  0.321938  4.034903
H    -1.376179  1.509421  1.172189
H    -1.418874  -0.449222  3.379578
C    -0.365291  1.312718  4.078827
C    1.079883  0.819614  3.890054
C    1.413051  -0.538459  4.535639
C    2.705166  -1.165782  4.003408
N    2.452276  -2.028703  2.772646
H    -0.685241  1.157082  5.121861
H    -0.381821  2.398482  3.918476
H    1.742147  1.580300  4.327297
H    1.318320  0.816797  2.816283
H    0.589345  -1.259336  4.413902
H    1.537270  -0.402277  5.618828
H    3.184392  -1.814168  4.744589
H    3.434316  -0.400395  3.711474
H    3.284456  -2.084978  2.172219
H    1.629906  -1.683787  2.205530
H    2.222094  -2.991730  3.047334
N    -3.238666  2.339847  3.144323
C    -2.550345  3.464307  2.495314
H    -4.207122  2.537966  3.398258
H    -1.478545  3.281314  2.404582
H    -2.695515  4.362875  3.106794
H    -2.989182  3.641367  1.504433
Ba    -5.313426  -1.049824  5.023447
