35
Energy: -243351.929309 eV PBE+vdW (tier 2 basis)
C    0.141426  0.953390  0.062072
C    0.342559  1.084439  1.531490
O    1.489209  1.519258  1.965742
H    1.006152  0.431745  -0.369675
H    0.108230  1.960448  -0.381477
H    -0.759869  0.390828  -0.202534
N    -0.584669  0.792188  2.436914
C    -1.988449  0.289152  2.304880
C    -1.998055  -1.112621  1.625433
O    -1.984943  -1.192196  0.398910
H    -0.278558  0.946092  3.396991
H    -2.314446  0.195854  3.347842
C    -2.899325  1.293343  1.570576
C    -4.347399  0.838158  1.304770
C    -5.299858  0.770005  2.515705
C    -6.719950  0.497127  2.020132
N    -7.747794  0.489827  3.145368
H    -2.462766  1.506707  0.587567
H    -2.892414  2.238380  2.134710
H    -4.334243  -0.128089  0.780050
H    -4.761345  1.559174  0.584291
H    -5.274526  1.725095  3.065623
H    -4.992922  -0.021781  3.218714
H    -6.805773  -0.478792  1.526230
H    -7.056948  1.267811  1.315557
H    -7.550045  -0.240484  3.844003
H    -8.695881  0.313197  2.780034
H    -7.776164  1.392379  3.641490
N    -2.040751  -2.195292  2.436062
C    -2.007902  -2.259488  3.894694
H    -2.048441  -3.077767  1.927416
H    -2.027379  -3.312807  4.189836
H    -2.882258  -1.776136  4.352877
H    -1.089873  -1.821779  4.310989
Ba    3.708632  2.252599  2.050138
