35
Energy: -243351.876571 eV PBE+vdW (tier 2 basis)
C    -0.321782  0.068481  -0.932934
C    -0.532942  -0.557011  0.412101
O    0.403980  -0.935434  1.132567
H    -1.243930  0.407964  -1.417361
H    0.185017  -0.653409  -1.587431
H    0.366391  0.916794  -0.820909
N    -1.830845  -0.710378  0.844859
C    -2.138583  -1.161882  2.201771
C    -1.945588  -2.698772  2.305369
O    -2.908784  -3.535522  2.514637
H    -2.596635  -0.494098  0.214665
H    -1.340865  -0.751901  2.844969
C    -3.494749  -0.645991  2.697339
C    -3.514918  0.812532  3.212021
C    -3.310075  1.918884  2.159820
C    -3.766593  3.316906  2.578144
N    -2.899588  3.955713  3.660881
H    -3.812483  -1.283322  3.533938
H    -4.258605  -0.778409  1.913940
H    -2.770431  0.902402  4.020762
H    -4.498388  0.957834  3.685610
H    -3.916908  1.694794  1.268265
H    -2.268046  1.955666  1.805662
H    -4.788716  3.314838  2.977929
H    -3.732076  4.011905  1.730816
H    -2.906571  3.416868  4.537697
H    -3.238788  4.903425  3.886260
H    -1.919184  4.050027  3.358537
N    -0.705420  -3.104900  2.161563
C    -0.281955  -4.495036  2.181509
H    -0.026738  -2.330249  1.901471
H    -0.751795  -5.066498  1.364396
H    -0.500417  -4.957043  3.157521
H    0.801389  -4.539579  2.034109
Ba    -3.937870  -5.623204  2.810663
