35
Energy: -243352.069911 eV PBE+vdW (tier 2 basis)
C    -0.746624  0.850776  0.415334
C    -0.206696  0.384092  1.721785
O    0.937408  0.844816  2.131444
H    0.030800  0.738328  -0.352350
H    -0.979763  1.923366  0.490372
H    -1.635007  0.300216  0.091890
N    -0.839014  -0.484407  2.499477
C    -2.177128  -1.145288  2.375978
C    -2.257999  -2.041999  1.102406
O    -2.755118  -1.598032  0.063607
H    -0.343386  -0.699534  3.364171
H    -2.214620  -1.792819  3.263699
C    -3.337743  -0.140063  2.457787
C    -4.692676  -0.742973  2.884565
C    -5.476417  -1.633141  1.896598
C    -5.931184  -0.891411  0.644022
N    -6.900984  -1.737575  -0.171603
H    -3.423332  0.388193  1.498522
H    -3.072005  0.612398  3.213617
H    -5.339063  0.098785  3.174022
H    -4.552860  -1.323930  3.808398
H    -6.359120  -2.002326  2.443010
H    -4.893785  -2.521163  1.608520
H    -5.093847  -0.661868  -0.025787
H    -6.471172  0.033024  0.885413
H    -7.224083  -1.238004  -1.012797
H    -7.737295  -1.989081  0.376061
H    -6.463917  -2.615894  -0.484985
N    -1.758892  -3.284919  1.244138
C    -1.726305  -4.272643  0.166099
H    -1.439693  -3.583489  2.160433
H    -0.747303  -4.764048  0.144400
H    -1.899664  -3.760426  -0.784088
H    -2.499630  -5.037702  0.314122
Ba    2.986108  1.940051  2.443608
