35
Energy: -243352.045574 eV PBE+vdW (tier 2 basis)
C    0.944023  0.259834  -0.924225
C    0.457113  0.693111  0.424853
O    1.129754  1.587462  1.084389
H    1.955340  -0.162731  -0.836728
H    0.992812  1.127136  -1.597788
H    0.301220  -0.496543  -1.385974
N    -0.640102  0.141986  0.892430
C    -1.322380  0.266757  2.184341
C    -1.864165  -1.175884  2.408223
O    -2.112297  -1.854553  1.405596
H    -1.062731  -0.654762  0.377615
H    -0.594182  0.552464  2.955020
C    -2.468471  1.317373  2.147768
C    -3.573616  1.101454  1.088792
C    -4.798280  0.237071  1.475215
C    -5.875674  1.037816  2.204774
N    -7.159085  0.229303  2.361736
H    -2.000142  2.295780  1.969605
H    -2.890032  1.372364  3.162843
H    -3.135151  0.659860  0.184303
H    -3.933138  2.090542  0.769886
H    -4.496444  -0.635013  2.073598
H    -5.226559  -0.164080  0.543607
H    -6.161978  1.937701  1.645879
H    -5.582999  1.340046  3.217975
H    -7.891053  0.770228  2.845985
H    -7.007747  -0.635016  2.901186
H    -7.540683  -0.048398  1.445023
N    -2.069140  -1.558660  3.678447
C    -2.555450  -2.890967  4.046738
H    -1.757953  -0.947371  4.426966
H    -2.916810  -3.391192  3.144151
H    -3.366825  -2.805366  4.778433
H    -1.745818  -3.488517  4.483709
Ba    3.000419  2.950065  1.463798
