35
Energy: -243352.205873 eV PBE+vdW (tier 2 basis)
C    0.478351  -1.829313  0.879200
C    0.205522  -0.476776  1.447708
O    1.209345  0.247387  1.848121
H    -0.425859  -2.397989  0.648298
H    1.083034  -2.406313  1.591652
H    1.070520  -1.725891  -0.041373
N    -1.009929  0.013326  1.554853
C    -2.306563  -0.500719  1.078985
C    -3.077210  0.814958  0.767528
O    -2.880049  1.777585  1.516742
H    -1.152086  0.965508  1.939151
H    -2.155776  -1.104488  0.174160
C    -3.003917  -1.338795  2.182703
C    -4.412618  -1.859073  1.815106
C    -5.590714  -0.941615  2.215317
C    -6.133461  -1.129800  3.631052
N    -7.039723  -2.353952  3.748424
H    -3.039191  -0.730836  3.099822
H    -2.347823  -2.192657  2.402927
H    -4.530734  -2.854145  2.273166
H    -4.467174  -2.055657  0.734835
H    -6.418305  -1.049214  1.496542
H    -5.295957  0.114560  2.144187
H    -6.753865  -0.280336  3.939538
H    -5.342317  -1.266554  4.379217
H    -7.384768  -2.473519  4.712458
H    -6.557226  -3.224858  3.485946
H    -7.866096  -2.265237  3.138748
N    -3.920080  0.794168  -0.276949
C    -4.720703  1.949746  -0.687313
H    -3.928720  -0.023165  -0.879106
H    -4.350284  2.354059  -1.637349
H    -4.642298  2.719169  0.085367
H    -5.769130  1.655308  -0.811970
Ba    3.166004  1.410392  2.333931
