35
Energy: -243352.200928 eV PBE+vdW (tier 2 basis)
C    0.028105  -0.116474  -0.035929
C    -0.072989  0.045053  1.445951
O    1.020789  0.158723  2.132949
H    -0.925964  -0.297159  -0.536021
H    0.696991  -0.958150  -0.261191
H    0.479868  0.788020  -0.468877
N    -1.236911  0.082866  2.070947
C    -2.593435  0.055002  1.483186
C    -3.482245  0.825112  2.480621
O    -3.304564  0.639771  3.705220
H    -1.242409  0.197327  3.090895
H    -2.556849  0.584356  0.523243
C    -3.121336  -1.387952  1.248335
C    -3.537988  -2.182553  2.500501
C    -5.031021  -2.040380  2.881403
C    -5.323036  -2.249164  4.365592
N    -5.115232  -0.960122  5.156939
H    -2.335571  -1.932341  0.705861
H    -3.965376  -1.317303  0.546177
H    -2.893820  -1.906131  3.349134
H    -3.335797  -3.245646  2.316869
H    -5.615216  -2.785038  2.324146
H    -5.444441  -1.069154  2.564448
H    -4.664095  -3.005105  4.809201
H    -6.357981  -2.559699  4.545626
H    -4.357125  -0.361442  4.736817
H    -5.973173  -0.394342  5.149483
H    -4.895313  -1.148499  6.143055
N    -4.420603  1.615220  1.956020
C    -5.387730  2.385210  2.738735
H    -4.468734  1.703059  0.944282
H    -5.506376  3.377002  2.289887
H    -5.013415  2.497690  3.760269
H    -6.367884  1.889159  2.746590
Ba    3.263191  0.422916  2.794127
