35
Energy: -243351.425474 eV PBE+vdW (tier 2 basis)
C    0.281482  1.625248  1.124820
C    -0.027938  0.342075  1.835895
O    0.936972  -0.432399  2.205247
H    0.885656  2.273760  1.776067
H    -0.611662  2.188084  0.832415
H    0.861482  1.415453  0.214801
N    -1.301261  0.050992  2.056845
C    -1.926429  -1.086699  2.773489
C    -3.233496  -1.445141  2.008212
O    -4.335642  -1.333454  2.562333
H    -1.958999  0.770364  1.755036
H    -1.232984  -1.937091  2.701383
C    -2.113723  -0.662057  4.255456
C    -3.098115  -1.352587  5.225647
C    -3.083502  -2.877753  5.439649
C    -3.866609  -3.765983  4.469308
N    -5.281587  -3.267950  4.253673
H    -2.405344  0.398404  4.252081
H    -1.105109  -0.691470  4.696416
H    -4.111931  -1.000552  5.001783
H    -2.864278  -0.904529  6.201939
H    -3.476643  -3.067790  6.450141
H    -2.054734  -3.268699  5.464651
H    -3.935798  -4.787468  4.861108
H    -3.423307  -3.820976  3.467802
H    -5.232004  -2.415441  3.645262
H    -5.748542  -3.033498  5.140226
H    -5.862520  -3.971649  3.779689
N    -3.125325  -1.870688  0.733061
C    -1.939957  -2.094372  -0.088065
H    -4.027793  -2.022223  0.282230
H    -2.165808  -2.876954  -0.819887
H    -1.099374  -2.444266  0.522558
H    -1.646058  -1.188882  -0.637590
Ba    3.263831  -0.848722  2.502790
