35
Energy: -243352.335659 eV PBE+vdW (tier 2 basis)
C    -0.102967  -0.702586  0.631974
C    -0.079818  0.488606  1.530227
O    1.060911  0.875452  2.026661
H    0.474797  -0.485237  -0.277816
H    -1.111496  -1.006236  0.340054
H    0.388615  -1.546281  1.134244
N    -1.159173  1.167605  1.838356
C    -2.544313  1.081925  1.344411
C    -2.995440  2.573527  1.466668
O    -2.471239  3.233943  2.374353
H    -1.099946  2.018070  2.439353
H    -2.546529  0.726696  0.307338
C    -3.386608  0.156433  2.262027
C    -4.878340  0.058969  1.901290
C    -5.646309  -0.875097  2.858665
C    -7.132292  -0.922644  2.509044
N    -7.909504  -1.831023  3.454084
H    -3.278082  0.526384  3.292993
H    -2.931356  -0.845836  2.234691
H    -4.994429  -0.303841  0.868267
H    -5.333976  1.059534  1.940143
H    -5.520692  -0.519928  3.894323
H    -5.219901  -1.890097  2.810427
H    -7.310439  -1.316107  1.500407
H    -7.606981  0.063685  2.584655
H    -7.838544  -1.514086  4.432090
H    -7.565764  -2.801833  3.419983
H    -8.911587  -1.853161  3.212054
N    -3.915239  3.077801  0.629800
C    -4.540039  2.498772  -0.555354
H    -4.138559  4.052785  0.830673
H    -5.614091  2.336622  -0.395855
H    -4.076942  1.544079  -0.819847
H    -4.416282  3.180807  -1.404968
Ba    3.163495  1.579882  2.705299
