35
Energy: -243351.819626 eV PBE+vdW (tier 2 basis)
C    0.700900  -0.149620  0.028021
C    0.324823  -0.169511  1.479931
O    1.157998  -0.090046  2.397730
H    -0.116080  -0.431399  -0.645459
H    1.561034  -0.810490  -0.133289
H    1.031288  0.864735  -0.240597
N    -1.012470  -0.281941  1.774991
C    -1.486051  -0.087876  3.141614
C    -2.531112  -1.166194  3.463942
O    -2.245413  -2.414330  3.315418
H    -1.672393  -0.159773  1.010122
H    -0.612566  -0.333239  3.770008
C    -1.945575  1.362429  3.426968
C    -0.926105  2.492558  3.140334
C    -0.060869  2.995233  4.312688
C    1.093160  2.149588  4.844628
N    2.212833  1.972186  3.835729
H    -2.261063  1.437766  4.480573
H    -2.834123  1.568615  2.807175
H    -1.513280  3.362037  2.817094
H    -0.312228  2.242307  2.262644
H    -0.708933  3.199722  5.178813
H    0.338722  3.984073  4.035269
H    0.796595  1.135792  5.139576
H    1.532596  2.639462  5.721630
H    1.939336  1.251793  3.118988
H    2.443069  2.859420  3.368658
H    3.072943  1.641637  4.292609
N    -3.715946  -0.803174  3.911578
C    -4.801322  -1.705795  4.297610
H    -3.890914  0.196862  3.995230
H    -4.478064  -2.369258  5.110052
H    -5.140190  -2.292665  3.433947
H    -5.641951  -1.105874  4.657015
Ba    -1.891438  -4.732164  3.098114
