35
Energy: -243351.075872 eV PBE+vdW (tier 2 basis)
C    -2.630361  -1.218059  0.502321
C    -1.440939  -1.159919  1.419181
O    -0.857350  -2.173183  1.817412
H    -2.573701  -2.149399  -0.071035
H    -2.695555  -0.373077  -0.193621
H    -3.565991  -1.252580  1.081698
N    -0.958680  0.078808  1.819184
C    -1.810750  1.226682  2.106618
C    -1.027101  2.542083  1.954036
O    -1.189547  3.511053  2.798316
H    -0.136552  -0.018738  2.412621
H    -2.566205  1.281389  1.300915
C    -2.596808  1.063039  3.433012
C    -1.838904  0.683219  4.726479
C    -1.220836  -0.729138  4.880968
C    -2.190542  -1.908947  4.728762
N    -1.439352  -3.155921  4.316409
H    -3.378633  0.318052  3.225905
H    -3.158969  1.990123  3.619584
H    -2.548983  0.830587  5.554017
H    -1.023296  1.401332  4.908681
H    -0.764367  -0.774184  5.880284
H    -0.389766  -0.867837  4.177174
H    -2.726345  -2.129021  5.659251
H    -2.937189  -1.750685  3.941569
H    -1.041585  -2.993586  3.353870
H    -2.057023  -3.978472  4.277644
H    -0.673183  -3.382107  4.965160
N    -0.211121  2.721069  0.930493
C    0.043629  1.878924  -0.251798
H    0.283765  3.612405  0.932331
H    0.402290  2.538894  -1.048125
H    -0.874407  1.390172  -0.587334
H    0.809804  1.125256  -0.039197
Ba    -1.596140  5.519949  3.985836
