35
Energy: -243353.070887 eV PBE+vdW (tier 2 basis)
C    0.874645  2.748607  0.881383
C    0.581559  1.827319  2.023354
O    1.461397  1.020304  2.439533
H    1.140661  2.144978  0.001886
H    1.755890  3.358696  1.121360
H    0.044147  3.412918  0.620684
N    -0.645861  1.896697  2.577726
C    -1.253980  1.067793  3.642975
C    -0.522362  1.216255  4.998251
O    0.620924  0.710676  5.194660
H    -1.250192  2.614491  2.188131
H    -2.252216  1.506477  3.777564
C    -1.423507  -0.420258  3.253172
C    -2.451412  -0.703232  2.134244
C    -3.922726  -0.637154  2.585519
C    -4.973610  -0.881127  1.499959
N    -5.113234  -2.346792  1.096494
H    -1.703487  -0.974840  4.162041
H    -0.446620  -0.813285  2.943424
H    -2.218913  -1.707424  1.746470
H    -2.287402  -0.015273  1.289489
H    -4.159448  0.365083  2.975174
H    -4.098282  -1.321618  3.432053
H    -4.757204  -0.333618  0.573857
H    -5.969775  -0.583143  1.847571
H    -5.379080  -2.937725  1.898213
H    -4.247158  -2.733676  0.697081
H    -5.850240  -2.458992  0.383053
N    -1.171150  1.865351  5.955560
C    -0.674918  2.073571  7.319182
H    -2.073936  2.275974  5.731880
H    -0.126867  3.022615  7.386514
H    -0.017523  1.246580  7.600485
H    -1.529734  2.108929  8.001669
Ba    2.837615  0.183845  4.272389
