35
Energy: -243351.270585 eV PBE+vdW (tier 2 basis)
C    0.016696  -1.177936  0.075183
C    0.136773  -0.259844  1.241640
O    1.319091  0.056326  1.677453
H    -0.999365  -1.554223  -0.079692
H    0.692292  -2.031437  0.215495
H    0.346786  -0.642715  -0.828451
N    -0.914042  0.267721  1.856385
C    -2.378883  0.142047  1.587955
C    -2.844441  -1.343637  1.711450
O    -3.015809  -2.013744  0.690874
H    -0.675737  0.891105  2.627173
H    -2.830198  0.724174  2.402596
C    -2.804148  0.759383  0.243350
C    -4.267909  1.250586  0.200407
C    -5.400434  0.214994  0.350684
C    -5.600259  -0.777103  -0.793149
N    -6.354657  -0.154814  -1.966916
H    -2.608651  0.031423  -0.555443
H    -2.165226  1.632757  0.051621
H    -4.387947  1.814141  -0.739519
H    -4.410663  2.006724  0.987111
H    -6.344919  0.752875  0.533606
H    -5.258636  -0.390700  1.256008
H    -6.210476  -1.630806  -0.477391
H    -4.657687  -1.167544  -1.193707
H    -6.477648  -0.831811  -2.733894
H    -5.867005  0.663945  -2.355468
H    -7.295137  0.156502  -1.682292
N    -3.053035  -1.824140  2.954961
C    -2.928149  -1.134466  4.237491
H    -3.353366  -2.797221  2.972532
H    -3.222325  -1.830507  5.028428
H    -3.592830  -0.262703  4.305483
H    -1.893130  -0.826027  4.441342
Ba    3.619181  0.290708  2.076340
