35
Energy: -243352.772021 eV PBE+vdW (tier 2 basis)
C    0.190251  -1.042052  -0.058068
C    -0.034833  -0.545350  1.329628
O    0.927515  -0.178240  2.066026
H    0.888858  -1.889563  -0.033818
H    0.676491  -0.249152  -0.644586
H    -0.729052  -1.348187  -0.567993
N    -1.295957  -0.482556  1.808193
C    -1.583526  0.119030  3.114122
C    -0.978416  -0.723625  4.268988
O    -0.031426  -0.185787  4.924117
H    -2.056563  -0.731264  1.182670
H    -0.957012  1.021266  3.161911
C    -3.015772  0.683192  3.281815
C    -4.285259  -0.191508  3.303933
C    -5.511913  0.720073  3.537863
C    -6.858575  0.044678  3.805191
N    -7.626314  -0.341949  2.542685
H    -3.119149  1.441366  2.488985
H    -2.984633  1.256121  4.221508
H    -4.234680  -0.923723  4.121669
H    -4.392745  -0.761510  2.365614
H    -5.614770  1.454581  2.721934
H    -5.318791  1.327132  4.435502
H    -7.528271  0.726267  4.342670
H    -6.765372  -0.873916  4.397892
H    -8.538334  -0.760086  2.784181
H    -7.124682  -1.027209  1.962226
H    -7.821296  0.482015  1.954493
N    -1.360528  -1.960086  4.568356
C    -2.293647  -2.868665  3.905277
H    -0.865105  -2.352354  5.371290
H    -1.776084  -3.810537  3.685166
H    -2.651563  -2.444526  2.966491
H    -3.143697  -3.088870  4.562580
Ba    2.218596  0.456674  4.075125
