35
Energy: -243351.327136 eV PBE+vdW (tier 2 basis)
C    -0.760798  0.846626  0.188448
C    -0.466858  0.526254  1.623091
O    0.680696  0.487794  2.092726
H    -0.391071  1.856503  -0.036168
H    -1.823375  0.794900  -0.072914
H    -0.196532  0.154651  -0.450619
N    -1.539135  0.269574  2.438897
C    -1.349336  -0.114219  3.844783
C    -2.677648  -0.614281  4.416426
O    -2.766540  -1.835876  4.838688
H    -2.454887  0.204839  2.007236
H    -0.675248  -0.983211  3.866507
C    -0.711360  1.018334  4.728147
C    0.392158  0.548138  5.693865
C    1.715929  0.009302  5.112498
C    2.818130  1.005176  4.748597
N    2.523233  1.862977  3.525558
H    -1.488159  1.507186  5.330720
H    -0.351144  1.790937  4.039209
H    -0.029917  -0.236413  6.342282
H    0.606322  1.379371  6.383210
H    1.539892  -0.658392  4.256675
H    2.182053  -0.618422  5.886358
H    3.735336  0.454178  4.511592
H    3.045477  1.691658  5.573422
H    3.394809  2.143850  3.058068
H    2.035918  2.729629  3.779261
H    1.914611  1.346344  2.835524
N    -3.739354  0.167371  4.503706
C    -3.920919  1.581663  4.142018
H    -4.563076  -0.270775  4.917668
H    -4.828645  1.672291  3.533188
H    -3.067075  1.957547  3.576516
H    -4.050547  2.176096  5.055703
Ba    -3.077191  -4.089322  5.507254
