35
Energy: -243352.441378 eV PBE+vdW (tier 2 basis)
C    -0.093549  -0.375514  -0.079698
C    -0.071700  -0.096819  1.390795
O    1.005506  0.224499  1.965650
H    0.872494  -0.102309  -0.513859
H    -0.885062  0.193530  -0.581201
H    -0.276920  -1.442107  -0.280935
N    -1.214333  -0.164672  2.134549
C    -2.166966  -1.287630  2.070297
C    -1.347789  -2.613702  2.265108
O    -0.116006  -2.557233  2.570076
H    -1.053489  0.168898  3.084752
H    -2.760510  -1.194065  2.994444
C    -3.176621  -1.277768  0.899291
C    -4.256536  -0.169204  0.951908
C    -3.854358  1.195388  0.365764
C    -4.913207  2.294913  0.474482
N    -6.109130  2.098030  -0.454812
H    -3.714798  -2.235236  0.925027
H    -2.657824  -1.271863  -0.067938
H    -4.597570  -0.039739  1.991708
H    -5.123915  -0.567640  0.402361
H    -3.540850  1.087840  -0.686042
H    -2.978217  1.593716  0.898184
H    -4.493977  3.270777  0.202848
H    -5.331151  2.371950  1.486326
H    -6.776861  2.878650  -0.358410
H    -6.629680  1.232912  -0.253799
H    -5.823445  2.067362  -1.444648
N    -1.978403  -3.770882  2.170323
C    -1.359322  -5.079457  2.420176
H    -2.969745  -3.766645  1.948439
H    -2.095951  -5.856434  2.200198
H    -1.053737  -5.163279  3.470236
H    -0.488861  -5.217303  1.769177
Ba    2.146750  -1.634727  3.165445
