35
Energy: -243351.998928 eV PBE+vdW (tier 2 basis)
C    -0.274127  -0.522960  -0.781221
C    -0.433945  -0.159023  0.664193
O    0.625183  0.094448  1.372989
H    0.337088  -1.432794  -0.869916
H    0.238822  0.289728  -1.314829
H    -1.229340  -0.710245  -1.282363
N    -1.651322  -0.114968  1.156010
C    -2.169352  0.114000  2.512556
C    -3.244105  -1.013332  2.634613
O    -3.918069  -1.225524  1.622761
H    -2.431980  -0.439262  0.559847
H    -1.352558  0.042278  3.239060
C    -2.880527  1.495339  2.557819
C    -3.619616  1.783561  3.875543
C    -4.500662  3.053129  3.863892
C    -5.837359  2.853615  3.150062
N    -6.734880  4.075000  3.309757
H    -3.583270  1.506544  1.710851
H    -2.134468  2.280437  2.364665
H    -2.887918  1.903450  4.686853
H    -4.246626  0.923620  4.155954
H    -3.951078  3.894356  3.411896
H    -4.696682  3.331616  4.911061
H    -6.402527  2.011255  3.568471
H    -5.734494  2.696105  2.069684
H    -7.641347  3.942758  2.836683
H    -6.303314  4.923149  2.914580
H    -6.934126  4.269471  4.302445
N    -3.418023  -1.659647  3.801190
C    -2.622258  -1.591474  5.024373
H    -4.134060  -2.384287  3.754544
H    -3.250259  -1.898248  5.867118
H    -2.284168  -0.569483  5.225819
H    -1.754399  -2.264820  4.984302
Ba    2.947698  0.145360  1.679844
