35
Energy: -243351.638862 eV PBE+vdW (tier 2 basis)
C    -0.182132  -0.681097  0.442327
C    -0.299065  -0.490945  1.916041
O    0.677454  -0.921844  2.663153
H    0.629811  -0.044982  0.059971
H    -1.091588  -0.446261  -0.109058
H    0.096558  -1.723585  0.240676
N    -1.322920  0.088499  2.523053
C    -2.600213  0.760791  2.125769
C    -3.852792  -0.036562  2.610430
O    -4.687631  0.591661  3.254937
H    -1.212555  0.102724  3.538694
H    -2.619899  1.630398  2.796521
C    -2.716699  1.306102  0.687832
C    -3.649043  2.535235  0.551394
C    -5.169079  2.280300  0.580329
C    -5.922944  3.584809  0.332503
N    -7.430171  3.389120  0.434322
H    -3.027521  0.523027  -0.018607
H    -1.721987  1.649631  0.371329
H    -3.390101  3.010154  -0.406597
H    -3.385879  3.266644  1.331538
H    -5.462814  1.863550  1.554926
H    -5.436914  1.543814  -0.194836
H    -5.738292  3.997751  -0.667279
H    -5.671510  4.352830  1.074905
H    -7.934967  4.273197  0.272560
H    -7.703711  3.043951  1.365967
H    -7.773897  2.709353  -0.259193
N    -4.006961  -1.348011  2.301147
C    -3.215657  -2.222743  1.447937
H    -4.858914  -1.739761  2.698487
H    -3.823093  -3.098072  1.197920
H    -2.305120  -2.586574  1.947163
H    -2.947118  -1.739631  0.500894
Ba    2.655273  -1.698357  3.650972
