35
Energy: -243352.254372 eV PBE+vdW (tier 2 basis)
C    -0.420065  -1.369973  0.578331
C    -0.069345  -0.211332  1.451480
O    1.170386  -0.064464  1.822543
H    -0.116440  -2.302122  1.074373
H    -1.485152  -1.431584  0.341391
H    0.145867  -1.305266  -0.361649
N    -0.957348  0.665124  1.861354
C    -2.342792  0.900416  1.424616
C    -2.469153  2.445787  1.619447
O    -1.646624  2.993606  2.369036
H    -0.662320  1.513364  2.401066
H    -2.436296  0.635337  0.363993
C    -3.412037  0.122265  2.235644
C    -3.547701  0.537640  3.709263
C    -4.593134  -0.257810  4.522297
C    -6.039522  0.122149  4.208142
N    -7.009144  -0.573240  5.157017
H    -3.177839  -0.951613  2.167477
H    -4.363177  0.257047  1.699909
H    -3.771164  1.612937  3.784956
H    -2.581559  0.404109  4.216094
H    -4.401193  -0.062110  5.588926
H    -4.448184  -1.339438  4.368345
H    -6.354106  -0.166774  3.198037
H    -6.217112  1.197596  4.335360
H    -6.822755  -0.320109  6.138908
H    -6.941495  -1.599365  5.089195
H    -7.987268  -0.316717  4.955906
N    -3.460541  3.106148  1.005696
C    -4.448461  2.620078  0.045600
H    -3.473697  4.103258  1.217713
H    -4.613939  3.391457  -0.714133
H    -5.410920  2.402825  0.528906
H    -4.093205  1.722099  -0.470464
Ba    3.453323  0.213176  2.144783
