35
Energy: -243352.079207 eV PBE+vdW (tier 2 basis)
C    -0.246530  0.606208  -0.751823
C    -0.410345  0.137127  0.660374
O    0.624405  -0.269472  1.323106
H    -1.187596  0.929430  -1.208423
H    0.165617  -0.207238  -1.365911
H    0.459809  1.447616  -0.785181
N    -1.620383  0.151131  1.188287
C    -2.066242  -0.304026  2.510273
C    -3.518814  -0.787802  2.287316
O    -4.228293  -0.148733  1.479345
H    -2.408050  0.430510  0.592886
H    -1.409663  -1.128275  2.817225
C    -2.030593  0.813039  3.603809
C    -3.285741  1.685879  3.766195
C    -3.555441  2.754117  2.684268
C    -5.028151  3.152003  2.592183
N    -5.828297  2.143018  1.768766
H    -1.142811  1.438472  3.426627
H    -1.857718  0.300784  4.560578
H    -3.199660  2.198604  4.734671
H    -4.158715  1.024352  3.883913
H    -3.207826  2.440206  1.688670
H    -2.987165  3.664963  2.917747
H    -5.167184  4.126768  2.112625
H    -5.495096  3.196630  3.583415
H    -5.380989  1.191277  1.776634
H    -6.799329  2.067036  2.097098
H    -5.872725  2.431530  0.783392
N    -3.934596  -1.825753  3.009511
C    -5.293885  -2.372602  2.967055
H    -3.273142  -2.274385  3.636920
H    -5.240729  -3.465882  2.992729
H    -5.776780  -2.056571  2.038564
H    -5.878093  -2.025856  3.829185
Ba    2.892091  -0.852366  1.660143
