35
Energy: -243352.072194 eV PBE+vdW (tier 2 basis)
C    -0.726542  0.205756  0.076499
C    -0.586979  0.144352  1.567739
O    0.525309  0.234120  2.122589
H    -0.417046  1.203038  -0.265808
H    -1.737872  -0.000739  -0.289576
H    -0.023344  -0.507124  -0.372568
N    -1.742287  0.006564  2.289739
C    -1.905858  -0.200830  3.739207
C    -1.287384  0.912305  4.607237
O    -2.012656  1.448946  5.545841
H    -2.603332  -0.023168  1.753054
H    -2.984418  -0.089575  3.907968
C    -1.569230  -1.646699  4.226574
C    -0.120153  -2.144420  4.102850
C    0.102919  -3.606045  4.559031
C    -0.338133  -4.645326  3.529041
N    0.080395  -6.050078  3.948581
H    -2.252051  -2.296677  3.658247
H    -1.894323  -1.716690  5.277829
H    0.540252  -1.517660  4.717654
H    0.244247  -2.029884  3.073607
H    -0.403165  -3.789775  5.520659
H    1.181682  -3.729812  4.742396
H    0.131011  -4.475057  2.551788
H    -1.425231  -4.687184  3.390411
H    -0.208083  -6.754667  3.253303
H    -0.336125  -6.321882  4.851079
H    1.103719  -6.123774  4.051112
N    -0.055657  1.284300  4.390379
C    0.638135  2.336859  5.119813
H    0.385384  0.828487  3.511351
H    1.668099  2.393341  4.756072
H    0.663679  2.117388  6.196271
H    0.165541  3.315101  4.944542
Ba    -3.049242  2.882098  7.059818
