35
Energy: -243351.432418 eV PBE+vdW (tier 2 basis)
C    0.354377  -0.386157  -0.175389
C    0.303525  0.050675  1.262461
O    1.283714  0.531821  1.863967
H    0.961281  0.321685  -0.751089
H    -0.631983  -0.483482  -0.642847
H    0.843425  -1.370178  -0.240647
N    -0.887213  -0.110426  1.901645
C    -1.146375  0.170783  3.312759
C    -0.896789  1.632341  3.731746
O    -0.651745  1.882564  4.980753
H    -1.653386  -0.514791  1.371368
H    -2.243810  0.077903  3.411573
C    -0.561675  -0.876599  4.297308
C    0.973990  -1.015152  4.411499
C    1.581411  -2.140583  3.543502
C    3.095127  -2.033479  3.345691
N    3.458784  -1.137175  2.166531
H    -1.005979  -1.841520  4.013163
H    -0.993630  -0.659568  5.284915
H    1.222251  -1.248699  5.457504
H    1.450705  -0.053090  4.182402
H    1.085267  -2.211099  2.563718
H    1.385685  -3.108412  4.025594
H    3.591108  -1.611774  4.228211
H    3.549964  -3.009710  3.145889
H    3.488149  -1.684184  1.296872
H    4.391684  -0.720387  2.278492
H    2.744785  -0.368547  2.018734
N    -1.030582  2.660164  2.913901
C    -1.461614  2.759161  1.510382
H    -0.825052  3.557598  3.351475
H    -1.836434  3.776353  1.359211
H    -2.269639  2.056850  1.294924
H    -0.617069  2.595817  0.830739
Ba    -0.715806  2.452274  7.266192
