35
Energy: -243353.116468 eV PBE+vdW (tier 2 basis)
C    -1.508002  -3.751639  1.365442
C    -0.836119  -2.473947  1.753925
O    0.124180  -2.008773  1.074865
H    -1.913118  -3.640373  0.349371
H    -2.316404  -4.048837  2.041699
H    -0.765829  -4.559973  1.320214
N    -1.291282  -1.827205  2.845536
C    -0.841489  -0.514578  3.342997
C    0.550645  -0.659854  4.019989
O    1.582752  -0.713390  3.287119
H    -2.027538  -2.290596  3.373118
H    -0.655350  0.119568  2.462869
C    -1.933438  0.110412  4.235829
C    -3.248847  0.537398  3.538597
C    -3.202913  1.935182  2.895441
C    -4.501973  2.409224  2.239893
N    -5.575721  2.829124  3.241101
H    -1.499710  0.983654  4.745071
H    -2.192810  -0.609171  5.030214
H    -4.031387  0.503346  4.312290
H    -3.545968  -0.208140  2.784260
H    -2.452653  1.960615  2.090487
H    -2.864732  2.685743  3.629026
H    -4.962827  1.636670  1.611384
H    -4.325884  3.295139  1.618667
H    -6.420110  3.163506  2.751321
H    -5.253097  3.600451  3.844215
H    -5.871694  2.057351  3.854732
N    0.629817  -0.738514  5.338110
C    1.878411  -0.893698  6.093772
H    -0.231349  -0.700205  5.876401
H    2.152493  -1.954096  6.167853
H    1.728875  -0.493414  7.100645
H    2.680369  -0.340810  5.596416
Ba    2.490703  -1.371169  1.092130
