35
Energy: -243352.076216 eV PBE+vdW (tier 2 basis)
C    -0.127791  0.754800  -0.744728
C    0.119390  -0.246126  0.336236
O    1.186360  -0.975268  0.246914
H    -1.108744  1.227178  -0.689753
H    -0.029052  0.282340  -1.727081
H    0.642917  1.536992  -0.655621
N    -0.527620  -0.228185  1.521041
C    -1.995023  -0.186367  1.629577
C    -2.515862  -1.175508  0.529332
O    -1.735427  -1.498480  -0.382683
H    -0.095060  -0.852508  2.200288
H    -2.212675  -0.614640  2.618858
C    -2.661987  1.209002  1.599551
C    -2.182807  2.121137  2.743953
C    -3.120151  3.292059  3.111062
C    -3.181904  4.414498  2.078078
N    -4.017000  5.580345  2.596777
H    -2.527215  1.685576  0.619516
H    -3.743576  1.037524  1.698912
H    -1.173216  2.503316  2.530591
H    -2.082352  1.517762  3.658467
H    -2.762376  3.709122  4.065789
H    -4.134516  2.904258  3.299642
H    -2.190124  4.830438  1.859784
H    -3.648992  4.109180  1.133750
H    -4.065342  6.349952  1.912653
H    -4.985046  5.293697  2.804680
H    -3.622933  5.968427  3.467044
N    -3.763491  -1.652249  0.613549
C    -4.772324  -1.459682  1.653832
H    -4.021488  -2.259835  -0.162792
H    -4.308102  -1.252592  2.624016
H    -5.348050  -2.385667  1.756296
H    -5.468806  -0.650017  1.397095
Ba    2.620419  -2.556198  -0.670787
