35
Energy: -243352.107086 eV PBE+vdW (tier 2 basis)
C    -0.313042  0.211351  -1.113928
C    0.098104  0.156110  0.320774
O    1.355137  0.013976  0.602726
H    -1.391969  0.279666  -1.269935
H    0.050563  -0.690406  -1.625762
H    0.163531  1.076790  -1.596229
N    -0.777212  0.249606  1.307171
C    -2.231245  0.500558  1.227749
C    -2.599668  1.205529  2.543189
O    -2.076888  0.786365  3.602853
H    -0.431350  0.197486  2.271993
H    -2.418371  1.159667  0.373140
C    -3.076925  -0.791984  1.064677
C    -2.888267  -1.895910  2.137058
C    -4.143481  -2.278880  2.944429
C    -4.739121  -1.252159  3.903352
N    -3.788628  -0.871221  5.027217
H    -2.855903  -1.202385  0.069960
H    -4.128572  -0.471783  1.009142
H    -2.066915  -1.637479  2.821077
H    -2.558947  -2.812704  1.632167
H    -3.931129  -3.203146  3.505070
H    -4.955608  -2.552057  2.253467
H    -5.641792  -1.658270  4.374687
H    -5.014512  -0.309553  3.413060
H    -3.021853  -0.251581  4.655213
H    -3.373923  -1.704608  5.464788
H    -4.281094  -0.356829  5.769257
N    -3.501467  2.190785  2.512341
C    -4.157857  2.796751  1.346003
H    -3.681174  2.622972  3.417933
H    -4.649636  2.041123  0.722458
H    -3.449455  3.380028  0.743529
H    -4.930908  3.479294  1.710461
Ba    3.705678  -0.115674  0.542794
