35
Energy: -243351.803522 eV PBE+vdW (tier 2 basis)
C    0.528340  0.745567  -0.264669
C    0.160221  0.463236  1.161668
O    0.982576  0.127702  2.025496
H    1.122958  1.669959  -0.303758
H    -0.334205  0.864541  -0.929587
H    1.172808  -0.059578  -0.638316
N    -1.172458  0.590321  1.501728
C    -1.527283  0.584252  2.919799
C    -2.957761  0.074619  3.099406
O    -3.347551  -1.001293  2.504681
H    -1.761470  1.111598  0.856393
H    -0.898907  -0.215240  3.353358
C    -1.161932  1.908548  3.645721
C    -0.616936  1.755466  5.079025
C    0.761260  1.071943  5.183156
C    1.916803  1.904839  4.604392
N    2.905076  1.028465  3.861485
H    -2.002240  2.621751  3.625913
H    -0.406474  2.398947  3.017737
H    -1.320236  1.187098  5.707399
H    -0.567576  2.754797  5.535354
H    0.728878  0.097118  4.673257
H    0.965265  0.853626  6.239276
H    2.472558  2.439453  5.382593
H    1.578415  2.644466  3.869167
H    3.699741  1.575223  3.502631
H    2.414457  0.576048  3.054809
H    3.294003  0.293768  4.467716
N    -3.773224  0.716479  3.910657
C    -5.137472  0.311960  4.252745
H    -3.421635  1.572952  4.333834
H    -5.540624  1.025592  4.976433
H    -5.138357  -0.685114  4.711476
H    -5.778360  0.324052  3.361736
Ba    -4.153702  -2.955022  1.470574
