35
Energy: -243352.248563 eV PBE+vdW (tier 2 basis)
C    -0.559694  -2.177583  -0.199362
C    0.128112  -1.234755  0.731287
O    1.413285  -1.354045  0.905544
H    -1.649827  -2.107444  -0.161176
H    -0.262971  -3.206976  0.039168
H    -0.233731  -1.975418  -1.230311
N    -0.509172  -0.284471  1.375269
C    -1.892224  0.207972  1.253302
C    -1.696887  1.729923  1.549725
O    -0.793056  2.019658  2.346288
H    0.008064  0.381940  1.986184
H    -2.261329  0.019723  0.238461
C    -2.817211  -0.453697  2.310240
C    -4.284052  -0.002309  2.210229
C    -5.272144  -0.720615  3.155418
C    -5.201722  -0.243728  4.604827
N    -6.340220  -0.834507  5.428955
H    -2.395732  -0.232851  3.302857
H    -2.757650  -1.544778  2.172395
H    -4.644625  -0.179515  1.186915
H    -4.360061  1.082801  2.375184
H    -5.118686  -1.810634  3.107833
H    -6.286658  -0.530364  2.770961
H    -5.310248  0.845372  4.684319
H    -4.276833  -0.538129  5.115163
H    -7.259531  -0.560152  5.051123
H    -6.305358  -0.516233  6.408806
H    -6.311971  -1.864562  5.438696
N    -2.490468  2.645673  0.973144
C    -3.507962  2.507873  -0.065984
H    -2.274445  3.596887  1.272291
H    -4.510815  2.709380  0.332361
H    -3.497711  1.503878  -0.499156
H    -3.305240  3.224580  -0.870446
Ba    3.725950  -1.565079  0.922903
