35
Energy: -243352.086820 eV PBE+vdW (tier 2 basis)
C    0.212491  -1.456019  0.591858
C    0.063753  -0.244053  1.459042
O    1.095712  0.494588  1.708753
H    0.941238  -2.145538  1.041681
H    0.588545  -1.160705  -0.397975
H    -0.725855  -2.002358  0.450756
N    -1.132967  0.027145  1.947732
C    -1.568207  1.107000  2.845563
C    -2.703689  0.489454  3.687917
O    -3.540958  -0.230684  3.102452
H    -1.891467  -0.627043  1.731067
H    -0.715509  1.398032  3.472736
C    -2.085786  2.354300  2.075518
C    -3.202071  2.121018  1.022376
C    -4.538146  2.849783  1.264440
C    -5.411610  2.420196  2.440060
N    -5.892382  0.983711  2.326140
H    -1.215484  2.814151  1.588173
H    -2.407059  3.080968  2.837192
H    -3.383289  1.046515  0.877202
H    -2.835561  2.475328  0.050832
H    -5.137648  2.788762  0.342225
H    -4.351596  3.925478  1.404547
H    -6.305102  3.053174  2.492330
H    -4.898650  2.486705  3.408383
H    -5.099138  0.330715  2.553334
H    -6.250894  0.778458  1.384017
H    -6.657813  0.795157  2.986617
N    -2.742380  0.796436  4.985937
C    -3.769112  0.317079  5.915306
H    -2.005603  1.382013  5.368455
H    -3.293811  0.028244  6.858547
H    -4.263563  -0.556077  5.480449
H    -4.507437  1.103067  6.122138
Ba    3.392906  1.068278  1.602225
