35
Energy: -243352.125824 eV PBE+vdW (tier 2 basis)
C    -0.114216  -0.270879  0.679519
C    -0.155010  0.022824  2.145893
O    0.900378  -0.148279  2.873727
H    0.851777  -0.701155  0.404255
H    -0.261310  0.646950  0.091252
H    -0.906042  -0.975217  0.389999
N    -1.268855  0.463285  2.716715
C    -2.590858  0.680757  2.081481
C    -3.186293  1.998521  2.664612
O    -3.949435  1.943577  3.645172
H    -1.230644  0.609568  3.727228
H    -2.423280  0.797858  1.004143
C    -3.544850  -0.490705  2.355115
C    -4.911122  -0.293198  1.665263
C    -6.106371  -0.962262  2.367518
C    -6.393419  -0.548253  3.809751
N    -6.538179  0.953599  3.975084
H    -3.659158  -0.575662  3.444709
H    -3.078041  -1.424756  2.012370
H    -4.864614  -0.686535  0.640681
H    -5.119573  0.781694  1.542091
H    -5.973772  -2.054449  2.387702
H    -7.005573  -0.792512  1.756031
H    -5.599395  -0.842853  4.506415
H    -7.327835  -1.004079  4.157214
H    -6.867273  1.189126  4.920638
H    -7.221893  1.342613  3.312387
H    -5.608813  1.427076  3.831477
N    -2.838157  3.157160  2.087871
C    -1.971131  3.379417  0.930941
H    -3.257663  3.979447  2.520665
H    -2.357414  2.882372  0.031279
H    -0.940471  3.054691  1.128044
H    -1.945419  4.453612  0.726886
Ba    3.038406  -0.633720  3.759347
