35
Energy: -243351.982434 eV PBE+vdW (tier 2 basis)
C    0.662312  -0.198152  0.895955
C    0.158817  -1.234305  1.838399
O    1.010471  -1.881012  2.577505
H    1.486241  -0.621414  0.305984
H    1.073130  0.640419  1.478111
H    -0.104149  0.163665  0.204056
N    -1.126726  -1.533730  1.973531
C    -2.359298  -0.987337  1.323098
C    -2.329678  -1.224507  -0.219639
O    -1.864461  -0.357417  -0.961623
H    -1.307378  -2.259622  2.666245
H    -3.160789  -1.595149  1.766439
C    -2.617274  0.491807  1.664000
C    -4.094745  0.925610  1.547801
C    -4.755943  0.921976  0.154705
C    -4.273330  1.963337  -0.852043
N    -4.867525  3.344126  -0.577616
H    -1.972314  1.114365  1.028636
H    -2.308531  0.662305  2.704780
H    -4.170896  1.926461  2.003842
H    -4.705746  0.285906  2.202295
H    -5.846192  1.020334  0.282930
H    -4.631043  -0.053458  -0.334358
H    -4.590306  1.709452  -1.869912
H    -3.183784  2.085052  -0.859139
H    -4.535953  4.038476  -1.262929
H    -4.623400  3.695580  0.358342
H    -5.896352  3.324617  -0.637642
N    -2.843753  -2.399551  -0.632817
C    -2.903134  -2.805670  -2.037572
H    -3.257231  -3.023227  0.053217
H    -2.472218  -3.806442  -2.156014
H    -2.330913  -2.087962  -2.631271
H    -3.942107  -2.824802  -2.390174
Ba    2.900488  -2.781364  3.629988
