35
Energy: -243353.231493 eV PBE+vdW (tier 2 basis)
C    0.357565  1.160362  0.329176
C    -0.052125  0.498669  1.606263
O    0.597929  -0.490721  2.055667
H    0.290348  0.422052  -0.483262
H    1.410996  1.463420  0.393496
H    -0.249917  2.032428  0.065873
N    -1.125754  0.994820  2.247235
C    -1.863065  0.483920  3.426351
C    -0.992180  0.464997  4.703970
O    -0.076093  -0.390802  4.878305
H    -1.559181  1.796164  1.795564
H    -2.639661  1.245154  3.584907
C    -2.596969  -0.850611  3.149385
C    -3.785442  -1.091724  4.099902
C    -4.701375  -2.242946  3.633175
C    -5.918049  -2.389767  4.547707
N    -6.876609  -3.467149  4.057289
H    -1.888031  -1.689786  3.184858
H    -2.962840  -0.793916  2.113837
H    -4.385907  -0.169326  4.159278
H    -3.426831  -1.294701  5.121140
H    -4.136251  -3.188203  3.606840
H    -5.037135  -2.040261  2.603330
H    -6.508560  -1.466248  4.597452
H    -5.639916  -2.675936  5.569661
H    -7.241419  -3.256794  3.116287
H    -7.690538  -3.554952  4.685056
H    -6.427092  -4.393422  4.011849
N    -1.276608  1.379090  5.623389
C    -0.586779  1.526359  6.907795
H    -2.001930  2.059913  5.412120
H    -1.294365  1.918861  7.644711
H    0.251610  2.229325  6.814112
H    -0.216502  0.552282  7.238752
Ba    1.851673  -1.535550  3.836532
