35
Energy: -243351.491139 eV PBE+vdW (tier 2 basis)
C    0.145862  0.583942  0.127662
C    0.020444  0.296061  1.597558
O    0.989839  0.281664  2.366050
H    0.707369  -0.237713  -0.339947
H    0.741469  1.493571  -0.019260
H    -0.810995  0.698148  -0.393744
N    -1.260265  0.063793  2.053541
C    -1.609901  -0.517088  3.355452
C    -3.124996  -0.519115  3.579249
O    -3.638862  -1.578039  4.125491
H    -1.939671  -0.081150  1.311002
H    -1.355136  -1.590790  3.336879
C    -0.883971  0.026317  4.632482
C    -0.924710  1.519551  5.010037
C    0.101654  2.457628  4.344317
C    1.558100  2.158048  4.749342
N    2.490443  2.200977  3.558820
H    0.150456  -0.326991  4.557209
H    -1.327200  -0.544947  5.462980
H    -0.770695  1.569060  6.098700
H    -1.928450  1.941092  4.861511
H    -0.143186  3.488839  4.630302
H    0.002621  2.416232  3.251839
H    1.673629  1.150921  5.166025
H    1.935179  2.871838  5.489877
H    3.456462  1.967906  3.825504
H    2.513123  3.131032  3.121007
H    2.147876  1.493430  2.857728
N    -3.931476  0.481458  3.276783
C    -3.675353  1.815498  2.712930
H    -4.914121  0.302028  3.489508
H    -4.179007  1.898594  1.741321
H    -2.606808  1.986742  2.591170
H    -4.099185  2.566012  3.390919
Ba    -4.551556  -3.565855  5.027667
