35
Energy: -243351.594637 eV PBE+vdW (tier 2 basis)
C    1.163220  -0.308971  0.194175
C    0.660634  0.561859  1.309140
O    1.319978  1.506540  1.768643
H    1.994994  -0.920432  0.573497
H    1.572044  0.326041  -0.601244
H    0.407912  -0.980504  -0.228700
N    -0.591862  0.265180  1.785978
C    -1.264968  0.752749  2.993977
C    -2.511655  1.608880  2.711169
O    -3.541314  1.428600  3.483111
H    -1.029681  -0.544594  1.356089
H    -1.697722  -0.150177  3.450192
C    -0.355522  1.363115  4.106370
C    0.003922  2.857845  4.052844
C    1.240104  3.215102  4.923797
C    2.453037  3.761785  4.172719
N    3.195251  2.709213  3.367550
H    0.549097  0.741368  4.112845
H    -0.854697  1.154265  5.064237
H    -0.853317  3.453122  4.397848
H    0.196408  3.165073  3.019698
H    1.544370  2.358591  5.546784
H    0.972122  4.000231  5.643227
H    2.169688  4.547555  3.461335
H    3.182736  4.187768  4.871607
H    3.965187  3.135768  2.834642
H    2.562702  2.213724  2.687546
H    3.617464  2.003450  3.984645
N    -2.600061  2.490082  1.736449
C    -1.617983  2.921046  0.730895
H    -3.511890  2.941348  1.658249
H    -1.812705  3.975744  0.510382
H    -1.743071  2.337941  -0.190128
H    -0.597915  2.817167  1.103569
Ba    -5.490982  0.990437  4.743028
