35
Energy: -243351.867946 eV PBE+vdW (tier 2 basis)
C    -0.434514  -0.500597  -0.190324
C    -0.243723  -0.565395  1.285049
O    0.955152  -0.743083  1.753919
H    0.128374  0.358724  -0.583608
H    -1.482370  -0.430012  -0.498877
H    -0.006520  -1.406503  -0.642759
N    -1.239546  -0.452094  2.156103
C    -2.698965  -0.200880  1.949398
C    -3.339264  -1.295972  1.045038
O    -3.515051  -1.074867  -0.152244
H    -0.947922  -0.516337  3.130979
H    -3.112107  -0.297223  2.961957
C    -2.953674  1.228048  1.429820
C    -4.418887  1.617157  1.142501
C    -5.389059  1.548648  2.334285
C    -6.667540  2.366934  2.164233
N    -7.555718  1.873168  1.024262
H    -2.399928  1.371774  0.493356
H    -2.526719  1.927969  2.164402
H    -4.776025  0.997814  0.306123
H    -4.380489  2.654449  0.773815
H    -4.913695  1.964775  3.236787
H    -5.649462  0.507064  2.585762
H    -6.451317  3.418492  1.936478
H    -7.292818  2.330315  3.064085
H    -8.407002  2.449413  0.946757
H    -7.859114  0.900020  1.171274
H    -7.075007  1.915166  0.114689
N    -3.691910  -2.457123  1.643972
C    -3.542832  -2.852105  3.042046
H    -4.098871  -3.136579  1.003795
H    -3.949722  -3.861025  3.157421
H    -4.102783  -2.194892  3.722001
H    -2.489349  -2.887276  3.353745
Ba    3.264147  -1.074208  1.986731
