35
Energy: -243353.017446 eV PBE+vdW (tier 2 basis)
C    -0.501486  0.036168  0.191996
C    -0.094220  -0.002755  1.631665
O    1.121713  -0.140489  1.951637
H    -0.160287  -0.887490  -0.296378
H    0.014119  0.865770  -0.310837
H    -1.579923  0.145814  0.037443
N    -1.069006  0.115605  2.554779
C    -0.999051  0.026438  4.030701
C    -0.131738  1.142005  4.658355
O    1.128178  1.158542  4.537464
H    -2.000646  0.259635  2.175445
H    -2.032839  0.217747  4.350986
C    -0.604959  -1.373431  4.559735
C    -1.690485  -2.446940  4.342970
C    -1.254611  -3.820502  4.888234
C    -2.190398  -4.998866  4.614403
N    -3.408936  -5.050878  5.533378
H    -0.397214  -1.272682  5.636143
H    0.336150  -1.691633  4.088896
H    -1.913764  -2.540721  3.268603
H    -2.621929  -2.110623  4.829383
H    -1.035046  -3.761299  5.967118
H    -0.300715  -4.105561  4.418523
H    -1.670883  -5.950677  4.776217
H    -2.584761  -4.995880  3.590325
H    -3.133115  -5.117859  6.524284
H    -3.986686  -5.880208  5.325822
H    -4.018124  -4.227614  5.434031
N    -0.773138  2.058771  5.370210
C    -0.133614  3.164975  6.088853
H    -1.788139  2.014181  5.409842
H    0.858796  2.856856  6.429105
H    -0.751895  3.424252  6.953596
H    -0.045641  4.044860  5.438115
Ba    3.079294  0.744488  3.107960
