35
Energy: -243351.177728 eV PBE+vdW (tier 2 basis)
C    0.770679  -0.446567  0.367114
C    0.414877  -0.167012  1.795098
O    1.168741  -0.418065  2.745584
H    -0.016766  -0.186323  -0.348343
H    1.006123  -1.515059  0.268012
H    1.687309  0.102100  0.112304
N    -0.821331  0.388689  2.038897
C    -1.231556  0.690650  3.416224
C    -2.751820  0.876946  3.432102
O    -3.290780  2.052739  3.440432
H    -1.398760  0.659326  1.249968
H    -1.027753  -0.220244  3.999833
C    -0.410293  1.840303  4.029485
C    -0.189774  1.841149  5.555914
C    0.172757  0.550640  6.338655
C    1.206961  -0.477333  5.849211
N    2.414077  0.086389  5.125105
H    -0.848107  2.806604  3.734752
H    0.558564  1.811062  3.519781
H    -1.085266  2.231420  6.063404
H    0.581156  2.602461  5.748582
H    -0.735574  -0.044836  6.516617
H    0.474817  0.891617  7.338916
H    0.783396  -1.190719  5.135187
H    1.580132  -1.043446  6.709943
H    2.156120  0.173106  4.114600
H    3.206747  -0.568169  5.176516
H    2.737616  0.983760  5.505579
N    -3.524072  -0.193559  3.421807
C    -3.121210  -1.608874  3.402085
H    -4.529389  -0.021011  3.435106
H    -3.941403  -2.186927  2.964974
H    -2.945938  -1.970777  4.423689
H    -2.228754  -1.749194  2.786002
Ba    -4.391434  4.153871  3.414825
