35
Energy: -243352.014442 eV PBE+vdW (tier 2 basis)
C    -0.666778  0.091643  -0.784965
C    -0.103805  -0.701979  0.346843
O    1.099293  -1.087139  0.341330
H    -0.359133  1.146281  -0.704631
H    -1.758632  0.046503  -0.844026
H    -0.234895  -0.287848  -1.719838
N    -0.885541  -1.026072  1.414641
C    -1.729757  -0.043627  2.096309
C    -0.770928  1.003701  2.748064
O    0.478246  0.761959  2.787909
H    -0.408321  -1.657078  2.060289
H    -2.339684  0.475743  1.341756
C    -2.652535  -0.750850  3.117610
C    -3.671884  -1.705338  2.462664
C    -4.404199  -2.622972  3.469808
C    -5.679936  -2.085622  4.125418
N    -6.932275  -2.389220  3.304944
H    -3.162121  0.009394  3.725056
H    -2.018087  -1.315220  3.821167
H    -3.143084  -2.349418  1.746707
H    -4.388974  -1.123340  1.859398
H    -3.719385  -2.884022  4.289735
H    -4.628371  -3.588293  2.989404
H    -5.670305  -0.998399  4.272299
H    -5.857498  -2.557633  5.098689
H    -7.778135  -2.014353  3.761163
H    -7.071228  -3.406072  3.202579
H    -6.892865  -1.989352  2.357049
N    -1.247336  2.140594  3.233147
C    -2.616507  2.661715  3.226411
H    -0.545489  2.741879  3.667365
H    -2.577028  3.736818  3.019596
H    -3.092381  2.513343  4.204343
H    -3.214376  2.185904  2.443821
Ba    2.704548  -0.073219  1.945570
