35
Energy: -243353.082398 eV PBE+vdW (tier 2 basis)
C    0.851977  1.601555  1.221715
C    -0.062975  0.863308  2.142818
O    -0.056225  1.086255  3.389045
H    0.604671  2.672452  1.270720
H    0.788595  1.271782  0.179473
H    1.888319  1.501068  1.569829
N    -0.906755  -0.040054  1.609139
C    -1.987097  -0.761963  2.309276
C    -1.372317  -1.864163  3.214005
O    -0.969678  -1.549799  4.372720
H    -0.841573  -0.180795  0.603179
H    -2.454921  -0.052156  3.008374
C    -3.010001  -1.220775  1.247502
C    -4.353884  -1.802483  1.744423
C    -5.419401  -0.737694  2.066818
C    -6.797293  -1.270259  2.467384
N    -7.621733  -1.782289  1.288494
H    -2.530117  -1.950007  0.574039
H    -3.215427  -0.347575  0.609059
H    -4.200651  -2.452674  2.620018
H    -4.716401  -2.466842  0.944691
H    -5.527488  -0.035680  1.223382
H    -5.093499  -0.117321  2.915244
H    -7.405742  -0.478591  2.919914
H    -6.737719  -2.104367  3.177980
H    -8.547543  -2.109550  1.605554
H    -7.175309  -2.572202  0.802218
H    -7.787961  -1.041532  0.590913
N    -1.261223  -3.097304  2.743956
C    -0.655313  -4.221377  3.465110
H    -1.579417  -3.276291  1.795371
H    -1.124214  -5.150569  3.127702
H    -0.819274  -4.098046  4.539049
H    0.422089  -4.273354  3.259980
Ba    0.187018  0.238666  5.653455
