35
Energy: -243352.351084 eV PBE+vdW (tier 2 basis)
C    0.514139  0.386966  0.398506
C    -0.073982  -0.727956  1.203598
O    0.590379  -1.776244  1.438225
H    0.032757  0.458548  -0.589689
H    0.385157  1.354823  0.896960
H    1.581161  0.200286  0.247357
N    -1.340295  -0.636929  1.699728
C    -2.492361  -0.173387  0.911237
C    -2.518913  -1.020118  -0.406963
O    -1.822514  -2.077073  -0.489994
H    -1.556501  -1.409369  2.328531
H    -3.367735  -0.520106  1.483827
C    -2.610645  1.370659  0.755392
C    -4.049761  1.932959  0.867129
C    -4.578274  2.118732  2.308565
C    -4.197118  3.424280  3.012258
N    -5.100414  4.591328  2.621157
H    -2.165514  1.689455  -0.196772
H    -1.983759  1.816696  1.539668
H    -4.761584  1.284274  0.333472
H    -4.081564  2.887616  0.319210
H    -4.213553  1.306831  2.955733
H    -5.673634  2.007672  2.324676
H    -3.171889  3.749906  2.795045
H    -4.301488  3.333399  4.099678
H    -4.818547  5.456595  3.107330
H    -6.082319  4.408307  2.877944
H    -5.079093  4.791358  1.611246
N    -3.303872  -0.632317  -1.398583
C    -3.488127  -1.375188  -2.652386
H    -3.829064  0.229770  -1.290110
H    -4.258813  -0.872000  -3.241834
H    -3.810815  -2.400857  -2.440781
H    -2.554945  -1.393924  -3.227975
Ba    -0.006431  -3.754185  0.064333
