35
Energy: -243351.925674 eV PBE+vdW (tier 2 basis)
C    1.325611  -0.594800  0.803630
C    0.624631  0.348110  1.730747
O    1.260006  1.356201  2.221950
H    1.654086  -0.050544  -0.093837
H    0.697951  -1.431908  0.479272
H    2.220120  -1.005070  1.292965
N    -0.651630  0.109569  2.022919
C    -1.578668  0.931957  2.814124
C    -2.119429  0.233905  4.090616
O    -3.045625  0.791655  4.698730
H    -1.066781  -0.675093  1.520855
H    -0.993448  1.785372  3.183970
C    -2.718805  1.491371  1.929392
C    -3.694542  0.500883  1.264159
C    -4.822370  -0.132225  2.105384
C    -5.827035  0.866941  2.711530
N    -5.727165  0.928957  4.222859
H    -3.258968  2.216685  2.553148
H    -2.241336  2.085942  1.137517
H    -3.147579  -0.318250  0.768174
H    -4.164856  1.042375  0.430121
H    -4.419871  -0.785135  2.894514
H    -5.377547  -0.806160  1.440400
H    -5.664448  1.889662  2.350065
H    -6.862187  0.598322  2.475785
H    -4.715772  0.987685  4.515411
H    -6.244108  1.731544  4.604932
H    -6.125699  0.084599  4.653245
N    -1.537165  -0.898265  4.505974
C    -1.933738  -1.609741  5.725445
H    -0.783063  -1.294786  3.956454
H    -2.345557  -0.893096  6.441656
H    -1.053618  -2.093951  6.159573
H    -2.686638  -2.377260  5.503918
Ba    3.053808  2.882293  2.565803
