35
Energy: -243353.110322 eV PBE+vdW (tier 2 basis)
C    0.338710  1.995773  0.973512
C    0.324658  1.133422  2.193874
O    0.659108  1.593966  3.323343
H    0.044785  1.470484  0.058679
H    1.340589  2.423495  0.834248
H    -0.344849  2.841839  1.135430
N    -0.065085  -0.149756  2.058871
C    -0.253160  -1.123339  3.148861
C    1.131008  -1.621314  3.646714
O    1.776606  -0.900337  4.463760
H    -0.267596  -0.466592  1.113677
H    -0.671080  -0.570927  4.004265
C    -1.244703  -2.224054  2.715599
C    -2.695168  -1.732472  2.516451
C    -3.610305  -2.759998  1.810424
C    -4.241994  -3.862585  2.668770
N    -5.617727  -3.472363  3.204885
H    -1.215187  -3.021218  3.473089
H    -0.896179  -2.678858  1.771234
H    -2.691786  -0.822308  1.900001
H    -3.115598  -1.425453  3.488190
H    -3.041620  -3.266386  1.017019
H    -4.406764  -2.225353  1.269428
H    -3.641088  -4.132369  3.546037
H    -4.414662  -4.773515  2.084238
H    -6.020000  -4.225359  3.783997
H    -6.281011  -3.299019  2.434367
H    -5.591898  -2.621481  3.783659
N    1.610643  -2.770116  3.197974
C    2.910768  -3.340155  3.569441
H    1.052059  -3.296263  2.531750
H    2.847926  -4.430364  3.501961
H    3.157482  -3.051495  4.594805
H    3.694113  -2.984396  2.887483
Ba    2.183003  1.414863  5.228963
