35
Energy: -243352.518917 eV PBE+vdW (tier 2 basis)
C    0.137782  1.663694  1.019300
C    0.238887  0.404089  1.812948
O    1.261871  0.151850  2.511460
H    1.124405  1.874092  0.585726
H    -0.100397  2.514799  1.676731
H    -0.606052  1.614106  0.218331
N    -0.776733  -0.502216  1.798115
C    -2.178848  -0.120138  1.967035
C    -2.304336  0.501274  3.397156
O    -1.366707  0.352303  4.238680
H    -0.530002  -1.369868  2.276650
H    -2.422723  0.660741  1.230747
C    -3.069686  -1.367675  1.716143
C    -4.569722  -1.119173  1.476906
C    -5.366736  -2.425948  1.246371
C    -5.332232  -3.042357  -0.156761
N    -6.460155  -2.534785  -1.052808
H    -2.951169  -2.065812  2.560661
H    -2.630728  -1.864367  0.837504
H    -4.706769  -0.419772  0.634676
H    -5.016535  -0.633411  2.356086
H    -6.414613  -2.273203  1.548286
H    -4.996923  -3.197448  1.937191
H    -5.471030  -4.128820  -0.115843
H    -4.400795  -2.841665  -0.700588
H    -6.412422  -2.964005  -1.989784
H    -6.436952  -1.513992  -1.183517
H    -7.383495  -2.773194  -0.660021
N    -3.395863  1.193072  3.686539
C    -3.664267  1.827439  4.983347
H    -4.077774  1.342236  2.948106
H    -4.715726  2.125453  5.013297
H    -3.039886  2.720665  5.112425
H    -3.467306  1.119690  5.795035
Ba    1.055485  0.193053  4.979270
