35
Energy: -243352.274498 eV PBE+vdW (tier 2 basis)
C    0.233622  0.185123  0.025807
C    0.076497  0.123485  1.506628
O    1.159755  0.081222  2.222933
H    0.815449  -0.678905  -0.315064
H    0.794045  1.100925  -0.218001
H    -0.708567  0.193054  -0.519182
N    -1.080416  0.264062  2.155693
C    -2.420482  -0.165861  1.719615
C    -2.294130  -1.697433  1.401502
O    -1.216544  -2.134060  0.996644
H    -0.967382  0.288745  3.168279
H    -3.052107  -0.015864  2.606856
C    -3.039232  0.655008  0.555588
C    -4.578325  0.681313  0.581493
C    -5.169014  1.562543  -0.538030
C    -6.695395  1.579374  -0.482200
N    -7.294070  2.448727  -1.581246
H    -2.705733  0.254556  -0.411480
H    -2.656782  1.683462  0.632645
H    -4.922924  1.056016  1.558625
H    -4.971393  -0.341042  0.472018
H    -4.837230  1.184054  -1.518383
H    -4.782635  2.589906  -0.440022
H    -7.071652  1.989792  0.463245
H    -7.127396  0.580510  -0.621698
H    -7.032751  2.112544  -2.519719
H    -6.980534  3.427626  -1.507529
H    -8.324196  2.453961  -1.534673
N    -3.409004  -2.428629  1.569538
C    -3.469477  -3.864460  1.283242
H    -4.203785  -2.008694  2.039445
H    -3.224868  -4.454107  2.176308
H    -2.751058  -4.099478  0.493165
H    -4.478976  -4.123500  0.948886
Ba    3.300495  -0.389571  2.994106
