35
Energy: -243351.940714 eV PBE+vdW (tier 2 basis)
C    0.738052  0.405169  0.308484
C    0.446893  0.545383  1.770468
O    1.361632  1.000833  2.563603
H    1.590032  -0.274681  0.165038
H    1.010616  1.382984  -0.113022
H    -0.108119  0.008369  -0.261808
N    -0.749154  0.192114  2.206651
C    -1.264809  0.152857  3.579524
C    -2.265218  -1.024992  3.585194
O    -2.932137  -1.223864  2.545334
H    -1.403415  -0.235822  1.541476
H    -0.413852  -0.047379  4.243240
C    -1.957245  1.477664  4.041136
C    -3.491932  1.637807  3.926392
C    -4.120263  2.246875  2.656614
C    -4.263971  1.424839  1.378872
N    -5.067635  0.155374  1.581087
H    -1.448793  2.318806  3.546303
H    -1.715643  1.570586  5.108784
H    -3.767507  2.330056  4.734020
H    -3.993335  0.698544  4.208965
H    -3.569107  3.156478  2.372060
H    -5.122835  2.610707  2.932816
H    -3.304766  1.099338  0.959703
H    -4.781767  2.016701  0.614871
H    -4.456510  -0.550897  2.064793
H    -5.918073  0.325820  2.134251
H    -5.366200  -0.247231  0.682901
N    -2.383101  -1.727406  4.708085
C    -3.325675  -2.834547  4.899719
H    -1.786536  -1.485083  5.494384
H    -2.815132  -3.654592  5.415470
H    -3.672240  -3.180970  3.922744
H    -4.181123  -2.510689  5.506128
Ba    3.520147  1.760526  3.180516
