35
Energy: -243351.647334 eV PBE+vdW (tier 2 basis)
C    -0.030836  0.309327  0.159326
C    0.026472  0.046695  1.636569
O    1.078072  -0.190988  2.229647
H    0.038020  -0.636325  -0.399271
H    0.856843  0.893535  -0.112734
H    -0.927763  0.848671  -0.163860
N    -1.163263  0.117202  2.377083
C    -2.399362  -0.521320  1.925011
C    -3.602272  0.420447  2.098669
O    -4.799541  0.030788  1.820807
H    -0.960329  -0.041140  3.365871
H    -2.315162  -0.681237  0.837798
C    -2.607497  -1.905201  2.601557
C    -1.355937  -2.821576  2.528767
C    -0.501760  -2.808924  3.813394
C    0.852185  -3.513798  3.756676
N    1.881912  -2.766433  2.912085
H    -3.454787  -2.401296  2.110805
H    -2.900439  -1.756966  3.653138
H    -0.757326  -2.550524  1.644132
H    -1.688845  -3.852108  2.345927
H    -1.065037  -3.310922  4.614353
H    -0.331798  -1.786239  4.183350
H    0.785367  -4.532536  3.356300
H    1.274195  -3.578165  4.765548
H    2.825694  -2.866585  3.308764
H    1.663351  -1.740224  2.833276
H    1.929953  -3.131016  1.953345
N    -3.353511  1.640909  2.516447
C    -4.333704  2.702399  2.729388
H    -2.358826  1.839260  2.663951
H    -3.825427  3.565939  3.167468
H    -5.111802  2.371301  3.429342
H    -4.781308  3.014545  1.775877
Ba    -7.077034  -0.329156  1.308326
