35
Energy: -243352.368267 eV PBE+vdW (tier 2 basis)
C    0.444531  0.140696  1.013450
C    0.074389  -0.501116  2.313943
O    0.331488  -1.724697  2.501281
H    -0.419497  0.155047  0.330596
H    1.230761  -0.459454  0.543212
H    0.797238  1.169146  1.131980
N    -0.504885  0.201633  3.332280
C    -1.694567  1.059220  3.196649
C    -2.872252  0.147941  2.718860
O    -2.622378  -1.005079  2.240654
H    -0.533483  -0.364279  4.181676
H    -1.933898  1.372930  4.224311
C    -1.526146  2.330805  2.332613
C    -0.464808  3.350025  2.804395
C    -0.858492  4.167534  4.053892
C    -0.258613  5.570953  4.157393
N    1.239823  5.598530  4.448679
H    -2.500172  2.836982  2.293705
H    -1.315902  2.048463  1.294770
H    -0.318870  4.039286  1.958212
H    0.499300  2.840803  2.960035
H    -0.666563  3.610775  4.984972
H    -1.944690  4.350919  4.039878
H    -0.723013  6.133800  4.975884
H    -0.392547  6.142718  3.230203
H    1.575865  6.571409  4.523506
H    1.794001  5.146216  3.708638
H    1.465377  5.133673  5.340169
N    -4.126510  0.559457  2.836982
C    -4.668100  1.785253  3.431434
H    -4.818178  -0.092754  2.464528
H    -4.880452  2.534417  2.657788
H    -3.980757  2.197828  4.175908
H    -5.606381  1.534512  3.937922
Ba    -1.546820  -3.279241  2.053251
