35
Energy: -243352.621558 eV PBE+vdW (tier 2 basis)
C    -0.180331  0.111284  0.387754
C    -0.406125  0.364696  1.845975
O    0.516459  0.875775  2.544189
H    -1.055741  0.365177  -0.217983
H    0.060267  -0.948538  0.211552
H    0.673174  0.711725  0.057092
N    -1.596846  0.085954  2.446208
C    -2.326936  -1.185185  2.320196
C    -1.391277  -2.314483  2.860943
O    -0.155699  -2.073625  3.052231
H    -1.629347  0.468314  3.391907
H    -3.157008  -1.099596  3.039079
C    -2.963717  -1.476596  0.939825
C    -3.997186  -0.412665  0.525502
C    -4.735606  -0.772864  -0.780598
C    -5.786359  0.282132  -1.129276
N    -6.548998  -0.067253  -2.400882
H    -3.460938  -2.453281  1.009040
H    -2.191080  -1.596604  0.169991
H    -3.506440  0.566333  0.415820
H    -4.734089  -0.292806  1.335800
H    -5.222347  -1.755223  -0.668821
H    -4.012098  -0.865989  -1.606536
H    -5.341813  1.269316  -1.307071
H    -6.545470  0.383636  -0.343502
H    -7.255013  0.652192  -2.620283
H    -7.047916  -0.965289  -2.315772
H    -5.924984  -0.139411  -3.218048
N    -1.887938  -3.505584  3.162596
C    -3.273396  -3.985713  3.145857
H    -1.191810  -4.178941  3.485210
H    -3.409674  -4.663207  3.995610
H    -3.484167  -4.540503  2.222691
H    -3.979611  -3.157367  3.256511
Ba    1.863706  -0.763873  3.815947
