35
Energy: -243351.220078 eV PBE+vdW (tier 2 basis)
C    0.143183  -1.321953  0.210963
C    -0.210075  -0.821945  1.590523
O    0.623877  -0.436937  2.383772
H    0.765789  -0.573089  -0.293605
H    -0.705624  -1.581356  -0.431655
H    0.776667  -2.212492  0.330653
N    -1.565959  -0.872954  2.018228
C    -2.758390  -0.612886  1.215528
C    -3.278982  -1.924225  0.583417
O    -4.246044  -1.946636  -0.270921
H    -1.627290  -0.559718  2.986645
H    -3.553787  -0.372049  1.944717
C    -2.680146  0.593360  0.244179
C    -2.517403  1.974528  0.933045
C    -1.086749  2.363326  1.357433
C    -0.943991  3.687116  2.107245
N    -1.029116  4.925482  1.215780
H    -3.618956  0.615220  -0.326365
H    -1.878137  0.437902  -0.491082
H    -3.185565  2.024749  1.808466
H    -2.906968  2.718378  0.219690
H    -0.406984  2.351514  0.489108
H    -0.666928  1.621776  2.050079
H    -1.713568  3.819777  2.878406
H    0.037675  3.750504  2.591263
H    -0.293683  4.920254  0.494201
H    -0.900401  5.784459  1.771926
H    -1.936221  5.007984  0.737743
N    -2.737403  -3.037125  1.023246
C    -3.118879  -4.390195  0.643594
H    -1.996517  -2.884500  1.718310
H    -2.457152  -5.099611  1.148854
H    -3.005633  -4.535292  -0.440103
H    -4.149438  -4.608974  0.959720
Ba    -6.028660  -2.615711  -1.654404
