35
Energy: -243351.955349 eV PBE+vdW (tier 2 basis)
C    0.182547  -0.190949  0.614122
C    -0.219613  -0.667103  1.967352
O    0.677489  -1.180638  2.749372
H    0.766292  -0.975633  0.115028
H    0.839872  0.684151  0.727451
H    -0.662034  0.081159  -0.024399
N    -1.467473  -0.584093  2.413947
C    -2.680780  0.056641  1.818505
C    -3.099510  -0.621828  0.482047
O    -2.902189  -0.039240  -0.600409
H    -1.595940  -0.933923  3.363165
H    -3.463905  -0.164089  2.557349
C    -2.544008  1.585851  1.702129
C    -3.873768  2.365897  1.754994
C    -4.840004  2.270210  0.559505
C    -4.304571  2.887794  -0.746657
N    -4.390770  1.908311  -1.899226
H    -1.974057  1.831209  0.795135
H    -1.939782  1.924624  2.555517
H    -3.617839  3.424360  1.910790
H    -4.426623  2.072756  2.660380
H    -5.766251  2.787692  0.839881
H    -5.141111  1.225524  0.386067
H    -3.245808  3.162432  -0.675023
H    -4.862755  3.782684  -1.041896
H    -3.991272  2.299177  -2.762889
H    -3.861092  1.042761  -1.635770
H    -5.365561  1.653171  -2.105194
N    -3.686951  -1.825503  0.552090
C    -4.030726  -2.612603  1.737502
H    -3.929743  -2.223435  -0.354173
H    -4.595305  -3.490485  1.410691
H    -4.670273  -2.048008  2.428261
H    -3.135545  -2.969018  2.264140
Ba    2.633569  -1.950259  3.822999
