35
Energy: -243351.935258 eV PBE+vdW (tier 2 basis)
C    0.313039  -0.667880  0.103965
C    0.025520  -0.388626  1.538383
O    0.965291  -0.630437  2.399690
H    0.699197  -1.686462  -0.006750
H    1.091481  0.037890  -0.227100
H    -0.556782  -0.563248  -0.541759
N    -1.045541  0.287679  1.973331
C    -2.433028  0.158666  1.493521
C    -2.699969  -1.378736  1.343628
O    -1.737654  -2.153467  1.313915
H    -0.984979  0.509890  2.965599
H    -3.024848  0.512521  2.348975
C    -2.875162  1.067677  0.303903
C    -2.823809  0.517079  -1.134318
C    -3.827898  1.176781  -2.106977
C    -3.515288  2.634254  -2.440985
N    -4.475239  3.170617  -3.497116
H    -2.302700  2.001770  0.393177
H    -3.916871  1.341924  0.524130
H    -3.059737  -0.556849  -1.134418
H    -1.814404  0.609501  -1.559869
H    -4.845089  1.102022  -1.688692
H    -3.825192  0.587842  -3.037653
H    -2.509089  2.754570  -2.862243
H    -3.614442  3.305258  -1.579024
H    -4.418302  2.626886  -4.371308
H    -4.269948  4.152848  -3.733856
H    -5.454788  3.131298  -3.178774
N    -3.975447  -1.797550  1.273570
C    -5.213281  -1.031592  1.391426
H    -4.064277  -2.806878  1.169565
H    -6.002024  -1.702547  1.745731
H    -5.532472  -0.614113  0.426167
H    -5.118158  -0.224429  2.127524
Ba    2.639818  -1.684994  3.621224
