35
Energy: -243352.279919 eV PBE+vdW (tier 2 basis)
C    -0.331400  -1.974121  1.102854
C    -0.166360  -0.638153  1.748906
O    1.002897  -0.318631  2.223706
H    -1.356422  -2.188802  0.791043
H    -0.007789  -2.756880  1.802290
H    0.321902  -2.036796  0.220720
N    -1.152833  0.224398  1.852482
C    -2.474340  0.226479  1.204425
C    -2.743183  1.752479  1.019765
O    -2.136676  2.539271  1.758853
H    -0.987629  1.176362  2.244652
H    -2.390903  -0.265760  0.226560
C    -3.595332  -0.469731  2.016267
C    -4.126081  0.272230  3.255582
C    -5.211759  -0.559043  3.963737
C    -5.802091  0.030923  5.242068
N    -6.808732  1.149787  4.982021
H    -3.238293  -1.470030  2.307033
H    -4.425995  -0.644844  1.315730
H    -4.518272  1.254625  2.944292
H    -3.305850  0.479874  3.960186
H    -4.786455  -1.528814  4.264219
H    -6.025590  -0.814062  3.264011
H    -5.038297  0.460584  5.902359
H    -6.356285  -0.728490  5.806053
H    -7.199588  1.507810  5.866354
H    -7.600855  0.815381  4.413993
H    -6.386577  1.948502  4.489660
N    -3.648853  2.092529  0.093887
C    -4.011316  3.478508  -0.212755
H    -4.023158  1.366377  -0.509957
H    -5.101551  3.575933  -0.261604
H    -3.583911  3.781823  -1.176571
H    -3.615442  4.125759  0.574114
Ba    3.243976  0.080129  2.697835
