35
Energy: -243351.545204 eV PBE+vdW (tier 2 basis)
C    1.847921  3.927139  1.344577
C    1.130184  2.741606  1.919865
O    1.663721  1.637345  2.055639
H    2.818683  4.040417  1.843166
H    1.294005  4.869681  1.415865
H    2.063483  3.720469  0.285941
N    -0.183659  2.962308  2.309704
C    -1.172710  1.907099  2.575267
C    -2.433687  2.535045  3.170369
O    -3.588168  2.023048  2.918055
H    -0.569309  3.815432  1.908613
H    -1.494398  1.453373  1.621661
C    -0.712102  0.710193  3.474505
C    -0.240179  0.966059  4.919867
C    1.158245  1.557890  5.202064
C    2.362453  0.614451  5.248335
N    2.779339  0.030956  3.905333
H    0.029561  0.162074  2.885993
H    -1.590933  0.048603  3.527434
H    -0.319944  0.002535  5.447736
H    -0.974505  1.606990  5.432192
H    1.127100  1.975148  6.219890
H    1.381758  2.413777  4.552552
H    2.194617  -0.231808  5.925862
H    3.234374  1.166162  5.617974
H    2.291956  -0.849000  3.701480
H    3.785270  -0.181393  3.893527
H    2.554995  0.696119  3.119671
N    -2.307451  3.580976  3.962091
C    -3.393375  4.286825  4.645706
H    -1.352762  3.911820  4.107696
H    -2.962414  5.099719  5.236325
H    -3.928580  3.608447  5.321731
H    -4.087719  4.722112  3.915766
Ba    -5.739284  1.234997  2.311207
