35
Energy: -243352.422618 eV PBE+vdW (tier 2 basis)
C    0.712131  0.102932  1.273010
C    0.186680  -0.578583  2.497576
O    0.358734  -1.822557  2.643254
H    -0.088591  0.231296  0.527942
H    1.485528  -0.531554  0.827823
H    1.134769  1.089072  1.487144
N    -0.449865  0.107218  3.491895
C    -1.565301  1.046470  3.291006
C    -2.737515  0.242947  2.638536
O    -2.510682  -0.903575  2.134661
H    -0.588177  -0.491203  4.307276
H    -1.894180  1.310539  4.307861
C    -1.224727  2.356596  2.540089
C    -0.110432  3.218128  3.176502
C    -0.547666  4.030206  4.409544
C    0.540773  4.875036  5.075500
N    0.907238  6.134775  4.294376
H    -2.145745  2.950859  2.470561
H    -0.957405  2.128902  1.502045
H    0.242842  3.894032  2.381831
H    0.748846  2.583661  3.443305
H    -0.896511  3.355133  5.206255
H    -1.414250  4.667707  4.167381
H    1.478283  4.320711  5.209785
H    0.211505  5.231790  6.058451
H    1.625593  6.678327  4.797462
H    0.093778  6.755396  4.169503
H    1.287109  5.927355  3.360501
N    -3.967706  0.735849  2.637705
C    -4.493172  1.968317  3.232369
H    -4.653886  0.149024  2.161205
H    -3.871522  2.296935  4.070520
H    -5.498137  1.761773  3.615793
H    -4.565256  2.765085  2.480896
Ba    -1.555036  -3.235546  1.954746
