35
Energy: -243353.208029 eV PBE+vdW (tier 2 basis)
C    -0.210240  0.522426  -0.227527
C    -0.185541  0.472356  1.264473
O    0.858628  0.769340  1.914205
H    -1.167828  0.216737  -0.661791
H    0.586248  -0.118761  -0.628579
H    0.018303  1.548342  -0.550279
N    -1.309485  0.108303  1.914139
C    -1.460144  0.103765  3.376778
C    -0.603837  -1.028838  4.009003
O    0.531346  -0.702201  4.478417
H    -2.116865  -0.139926  1.348107
H    -0.966797  1.014714  3.747030
C    -2.942311  0.153919  3.802667
C    -3.590409  1.543212  3.644445
C    -5.063646  1.547452  4.104547
C    -5.694195  2.933620  3.972160
N    -7.146042  2.942006  4.433445
H    -2.994585  -0.153557  4.857885
H    -3.524195  -0.591846  3.241750
H    -3.534332  1.872851  2.595079
H    -3.021625  2.279556  4.233509
H    -5.118644  1.215373  5.153922
H    -5.638673  0.821176  3.507585
H    -5.706791  3.287697  2.933730
H    -5.179868  3.683424  4.586228
H    -7.561624  3.881510  4.339944
H    -7.236755  2.667040  5.422845
H    -7.729280  2.295921  3.881100
N    -0.993612  -2.295917  4.057174
C    -2.201207  -2.949620  3.543367
H    -0.330335  -2.906642  4.536468
H    -2.497605  -2.530617  2.577109
H    -3.028352  -2.878282  4.260301
H    -1.969556  -4.008275  3.390751
Ba    2.549857  0.465739  3.668011
