35
Energy: -243351.314133 eV PBE+vdW (tier 2 basis)
C    0.433933  -0.125359  0.827818
C    -0.160254  -1.031789  1.869172
O    0.394599  -2.075505  2.223648
H    0.089863  0.912262  0.896723
H    0.221345  -0.509717  -0.180709
H    1.523380  -0.147786  0.948145
N    -1.351292  -0.668638  2.488343
C    -2.479720  -0.060868  1.790579
C    -3.113517  1.125193  2.534451
O    -3.456006  2.168672  1.844215
H    -1.597470  -1.360074  3.194338
H    -2.083517  0.383075  0.868562
C    -3.557445  -1.111584  1.381017
C    -2.968249  -2.269509  0.539505
C    -2.498028  -3.500119  1.349482
C    -1.434574  -4.345976  0.621624
N    -0.287464  -4.694110  1.548919
H    -4.334949  -0.592967  0.802154
H    -4.062926  -1.505231  2.276313
H    -2.135184  -1.881998  -0.068599
H    -3.728775  -2.590434  -0.184245
H    -3.363435  -4.126567  1.602359
H    -2.075759  -3.178546  2.311125
H    -0.978969  -3.796935  -0.211210
H    -1.833876  -5.285726  0.225388
H    0.457845  -5.201754  1.052525
H    -0.590501  -5.291869  2.329316
H    0.114516  -3.805054  1.940579
N    -3.347491  1.121055  3.832367
C    -3.103960  0.078728  4.841079
H    -3.753280  1.982316  4.197084
H    -3.407401  -0.905217  4.469838
H    -3.722129  0.310849  5.713422
H    -2.050724  0.073568  5.146591
Ba    -4.134649  4.147986  0.737463
