35
Energy: -243351.451273 eV PBE+vdW (tier 2 basis)
C    -0.975935  0.737555  -0.378361
C    -0.647678  0.422710  1.049775
O    0.336331  -0.251276  1.391810
H    -0.150940  1.315780  -0.816654
H    -1.907442  1.298756  -0.509987
H    -1.036428  -0.202669  -0.942187
N    -1.491162  0.919046  2.010234
C    -1.279930  0.614115  3.432178
C    -2.520788  1.022885  4.228285
O    -3.191376  0.116333  4.866379
H    -2.338650  1.383634  1.702060
H    -1.215590  -0.479456  3.531038
C    0.039073  1.232712  4.021006
C    0.849092  0.293772  4.933903
C    1.495693  -0.967600  4.324596
C    2.868857  -0.843976  3.662621
N    2.871383  -0.098050  2.334850
H    -0.194876  2.134556  4.601916
H    0.630580  1.584037  3.167633
H    0.195509  -0.032809  5.758755
H    1.623458  0.899567  5.429221
H    0.810625  -1.479984  3.633638
H    1.669895  -1.676367  5.147583
H    3.251479  -1.846775  3.441301
H    3.598818  -0.344746  4.311621
H    3.632244  -0.432882  1.729881
H    3.024204  0.908230  2.465680
H    1.953241  -0.217451  1.828279
N    -2.926899  2.278355  4.295243
C    -2.360173  3.502323  3.708864
H    -3.757184  2.431634  4.868903
H    -1.984877  4.148444  4.512853
H    -3.155615  4.035105  3.173607
H    -1.550157  3.270203  3.016106
Ba    -4.568475  -1.481943  5.948223
