35
Energy: -243351.806550 eV PBE+vdW (tier 2 basis)
C    -1.041225  -3.278731  0.228353
C    -0.876705  -2.642954  1.573501
O    0.147470  -2.779370  2.263327
H    -2.017912  -3.096417  -0.232974
H    -0.872344  -4.359442  0.316704
H    -0.254434  -2.894634  -0.435778
N    -1.916864  -1.874040  2.047286
C    -1.743603  -1.037002  3.234432
C    -1.880444  -1.934509  4.491888
O    -2.906970  -1.927025  5.277776
H    -2.760050  -1.773907  1.490423
H    -0.684466  -0.729022  3.228406
C    -2.642303  0.206095  3.206618
C    -2.103918  1.395214  4.030249
C    -0.987780  2.244066  3.374452
C    -1.524168  3.248551  2.353717
N    -0.425172  4.177706  1.851402
H    -3.650492  -0.053312  3.558824
H    -2.762895  0.498111  2.152941
H    -1.718083  1.031467  4.994095
H    -2.944647  2.055417  4.288456
H    -0.230249  1.596520  2.903496
H    -0.470252  2.795086  4.174809
H    -2.289013  3.902807  2.790739
H    -1.947001  2.774528  1.459575
H    -0.791712  4.858348  1.168703
H    0.337517  3.661623  1.388896
H    -0.003975  4.717643  2.622266
N    -0.877079  -2.760482  4.682979
C    -0.826811  -3.757317  5.737772
H    -0.192730  -2.788662  3.866403
H    -1.626462  -4.509049  5.616996
H    -0.881440  -3.280714  6.729781
H    0.127685  -4.290118  5.684218
Ba    -4.271507  -2.833471  6.963654
