35
Energy: -243352.153732 eV PBE+vdW (tier 2 basis)
C    -0.973384  0.670336  0.516564
C    -0.162365  0.103885  1.632468
O    1.089945  0.438537  1.693143
H    -1.996758  0.299875  0.482925
H    -0.494820  0.441578  -0.441771
H    -0.998371  1.764424  0.641052
N    -0.675282  -0.554289  2.680003
C    -1.756804  -1.551966  2.632181
C    -1.329076  -2.568020  1.511513
O    -0.601834  -2.170261  0.596965
H    0.019940  -0.745294  3.400409
H    -1.716452  -2.044949  3.614239
C    -3.193269  -0.982450  2.459013
C    -4.274089  -1.939706  2.994776
C    -5.736888  -1.472156  2.827368
C    -6.175370  -0.401046  3.824120
N    -7.675857  -0.149726  3.724867
H    -3.398661  -0.775411  1.399825
H    -3.224455  -0.020762  2.992135
H    -4.083239  -2.169101  4.055712
H    -4.203888  -2.894140  2.455392
H    -6.377076  -2.358367  2.961227
H    -5.902756  -1.120109  1.796583
H    -5.696603  0.571367  3.657484
H    -5.992460  -0.706319  4.862229
H    -8.214464  -1.006653  3.922099
H    -7.949710  0.170504  2.784349
H    -7.986703  0.567533  4.396857
N    -1.806558  -3.816591  1.618581
C    -1.523394  -4.866288  0.635474
H    -2.280843  -4.090461  2.472306
H    -0.596339  -5.398639  0.884978
H    -1.419749  -4.412220  -0.353921
H    -2.353695  -5.579021  0.625166
Ba    3.293085  0.857147  1.081274
