35
Energy: -243352.619834 eV PBE+vdW (tier 2 basis)
C    0.666071  -1.534597  2.183985
C    0.694200  -0.059093  2.398688
O    1.778917  0.588430  2.338671
H    -0.297302  -1.998543  2.413921
H    1.431978  -1.973108  2.841469
H    0.966525  -1.790471  1.157837
N    -0.450279  0.620186  2.696234
C    -1.669705  0.465440  1.904249
C    -1.497502  1.375518  0.641990
O    -0.361165  1.870717  0.370429
H    -0.254257  1.583632  2.968573
H    -1.669404  -0.562998  1.510470
C    -2.963052  0.615789  2.741561
C    -3.199032  1.978294  3.416428
C    -4.230198  1.966922  4.569688
C    -5.678152  1.730808  4.140187
N    -6.624741  1.854029  5.328270
H    -2.902976  -0.172422  3.507083
H    -3.819850  0.336141  2.108272
H    -3.481623  2.738297  2.671389
H    -2.263061  2.333587  3.872501
H    -4.164676  2.941806  5.077472
H    -3.933891  1.206485  5.310126
H    -5.848893  0.728527  3.728559
H    -6.019429  2.473024  3.407286
H    -7.605357  1.699147  5.048582
H    -6.575421  2.789612  5.759427
H    -6.406425  1.167679  6.066165
N    -2.543141  1.560398  -0.147146
C    -2.510867  2.305807  -1.411924
H    -3.415253  1.102299  0.100960
H    -1.903333  1.774998  -2.155324
H    -2.099465  3.307892  -1.249315
H    -3.533274  2.394485  -1.788174
Ba    2.146558  2.203690  0.500226
