35
Energy: -243351.680838 eV PBE+vdW (tier 2 basis)
C    0.198862  0.506558  0.319714
C    -0.368433  0.720896  1.682944
O    0.221266  1.579840  2.464591
H    0.933056  -0.313175  0.357625
H    0.725838  1.409379  -0.003919
H    -0.554424  0.249601  -0.426668
N    -1.420108  0.078461  2.168598
C    -2.387940  -0.963635  1.705995
C    -2.394691  -2.190237  2.675250
O    -3.485949  -2.527029  3.124767
H    -1.633375  0.359828  3.127679
H    -3.361560  -0.505482  1.924717
C    -2.379836  -1.378808  0.224384
C    -3.336032  -2.547953  -0.105007
C    -4.839896  -2.308575  0.132897
C    -5.629038  -3.543444  -0.297108
N    -7.117909  -3.396393  -0.012035
H    -1.380696  -1.709184  -0.085756
H    -2.641992  -0.505579  -0.391984
H    -3.021303  -3.439947  0.457108
H    -3.171216  -2.786934  -1.165855
H    -5.177939  -1.428850  -0.438424
H    -5.022307  -2.116640  1.201594
H    -5.308964  -4.440864  0.247078
H    -5.545363  -3.742009  -1.372980
H    -7.638935  -4.236190  -0.305400
H    -7.525604  -2.593625  -0.512564
H    -7.298298  -3.258830  0.993061
N    -1.245164  -2.850738  2.958027
C    0.097750  -2.674395  2.421993
H    -1.389218  -3.629047  3.599121
H    0.666060  -3.590527  2.610520
H    0.637023  -1.845343  2.904795
H    0.088041  -2.523153  1.335683
Ba    1.495508  3.266302  3.478665
