35
Energy: -243352.085979 eV PBE+vdW (tier 2 basis)
C    -1.334199  1.328410  0.069269
C    -0.576636  0.187875  0.667702
O    0.685550  0.159248  0.638772
H    -0.790290  1.682150  -0.814923
H    -1.374526  2.172209  0.776386
H    -2.358976  1.066580  -0.212217
N    -1.245290  -0.839555  1.261667
C    -2.342628  -0.607592  2.200059
C    -1.746215  0.159551  3.432686
O    -0.498174  0.380202  3.501762
H    -0.620140  -1.595726  1.546465
H    -3.079330  0.058073  1.724792
C    -3.005319  -1.942871  2.607061
C    -3.736645  -2.736383  1.502739
C    -5.073041  -2.125258  1.029868
C    -6.142924  -3.121682  0.580853
N    -5.813419  -3.859213  -0.714536
H    -3.711908  -1.750227  3.427610
H    -2.227424  -2.588702  3.044898
H    -3.928001  -3.730280  1.936707
H    -3.056921  -2.900238  0.652028
H    -4.919946  -1.364697  0.247876
H    -5.551235  -1.591801  1.866909
H    -7.096289  -2.613686  0.392577
H    -6.313953  -3.903121  1.332287
H    -5.689133  -3.210065  -1.504827
H    -6.580110  -4.500946  -0.969982
H    -4.959170  -4.428397  -0.636877
N    -2.577987  0.574849  4.372314
C    -2.174616  1.302313  5.583178
H    -3.570866  0.390922  4.255468
H    -1.443872  0.716000  6.151829
H    -3.062056  1.463292  6.200651
H    -1.743237  2.275427  5.319025
Ba    1.892350  0.657464  2.754453
