35
Energy: -243351.673124 eV PBE+vdW (tier 2 basis)
C    -0.753241  -0.319187  -0.729490
C    -0.829717  -0.045739  0.746032
O    -0.087615  -0.548005  1.581577
H    0.294189  -0.279114  -1.049581
H    -1.352445  0.365134  -1.340851
H    -1.097910  -1.346741  -0.913768
N    -1.844244  0.823969  1.158059
C    -1.964093  1.160350  2.566898
C    -3.387941  0.858463  3.025793
O    -4.235884  1.800310  3.325065
H    -2.386861  1.322715  0.460157
H    -1.311361  0.407739  3.049957
C    -1.403396  2.542627  2.952355
C    0.110756  2.619265  2.660078
C    0.774225  3.910403  3.163047
C    2.209067  4.135901  2.689315
N    3.209573  3.144413  3.279429
H    -1.580050  2.706388  4.027711
H    -1.927326  3.344863  2.407946
H    0.267614  2.531502  1.574326
H    0.588460  1.733648  3.108992
H    0.729959  3.975878  4.262619
H    0.218115  4.786485  2.794161
H    2.305579  4.043514  1.600127
H    2.571879  5.127794  2.983352
H    4.164817  3.347243  2.948185
H    2.997601  2.171898  3.015948
H    3.229693  3.192268  4.308397
N    -3.784523  -0.398716  3.107513
C    -3.040646  -1.630287  2.811518
H    -4.761553  -0.535919  3.363673
H    -3.390122  -2.410951  3.494631
H    -1.964425  -1.488327  2.943049
H    -3.237218  -1.942786  1.777686
Ba    -5.959109  3.258071  3.937021
