35
Energy: -243351.743665 eV PBE+vdW (tier 2 basis)
C    0.409676  -1.161778  0.496097
C    -0.196220  0.009231  1.204707
O    0.325399  1.182340  1.069005
H    0.396131  -0.987289  -0.589242
H    -0.111374  -2.104715  0.693989
H    1.458019  -1.279869  0.805242
N    -1.261802  -0.199658  1.966051
C    -2.042744  0.782092  2.741425
C    -2.420142  0.192872  4.135326
O    -3.607259  0.127489  4.475985
H    -1.598822  -1.160729  1.981851
H    -1.368721  1.631725  2.925152
C    -3.263081  1.316411  1.954145
C    -4.176087  0.337071  1.187286
C    -5.134975  -0.580838  1.968475
C    -6.218451  0.171569  2.763719
N    -6.316693  -0.347840  4.182390
H    -2.865021  2.023868  1.211809
H    -3.839311  1.928033  2.661916
H    -3.570175  -0.297208  0.521319
H    -4.775051  0.953110  0.499796
H    -4.569120  -1.234088  2.646707
H    -5.623138  -1.247811  1.245932
H    -7.211283  0.074048  2.311483
H    -5.997357  1.240347  2.862380
H    -5.372883  -0.260395  4.616809
H    -6.997378  0.185735  4.739705
H    -6.606409  -1.334341  4.210122
N    -1.426650  -0.201829  4.954032
C    0.019036  -0.097633  4.789552
H    -1.759675  -0.564659  5.846684
H    0.476370  -0.035559  5.782258
H    0.288420  0.816328  4.245713
H    0.439751  -0.973337  4.275755
Ba    1.785890  2.838763  0.190397
