35
Energy: -243351.237482 eV PBE+vdW (tier 2 basis)
C    0.535256  -0.047425  0.190551
C    0.288491  0.231898  1.643387
O    1.203761  0.336409  2.466469
H    -0.372282  -0.070621  -0.422847
H    1.049231  -1.014467  0.101136
H    1.222005  0.710933  -0.207392
N    -1.034330  0.379892  2.027734
C    -1.413113  0.442365  3.440377
C    -2.930714  0.467062  3.575016
O    -3.658180  1.283027  2.892958
H    -1.720373  0.034674  1.364299
H    -1.053064  -0.466798  3.951437
C    -0.798012  1.691784  4.144818
C    -0.423259  1.563334  5.632795
C    0.363760  0.345903  6.182146
C    1.586837  -0.249533  5.469617
N    2.530440  0.758428  4.841728
H    -1.488731  2.541761  4.037798
H    0.081294  1.961839  3.554756
H    -1.329504  1.625748  6.253896
H    0.126410  2.484833  5.878963
H    -0.311643  -0.513028  6.319450
H    0.657364  0.620986  7.205354
H    1.311887  -0.906715  4.638598
H    2.170458  -0.835627  6.188424
H    3.470220  0.354909  4.725769
H    2.635519  1.617893  5.394738
H    2.169181  0.968944  3.886180
N    -3.477908  -0.343474  4.460989
C    -4.900198  -0.408901  4.804736
H    -2.855952  -0.995597  4.934798
H    -5.029162  -1.131125  5.615593
H    -5.489182  -0.748291  3.942857
H    -5.256061  0.569125  5.152404
Ba    -5.082146  2.800010  1.757125
