35
Energy: -243352.302618 eV PBE+vdW (tier 2 basis)
C    -0.406860  -1.765927  1.852101
C    -0.107387  -0.339300  2.174029
O    1.052805  -0.048836  2.690761
H    0.269577  -2.110812  1.056445
H    -1.436988  -1.934092  1.528364
H    -0.209938  -2.387097  2.735874
N    -0.962503  0.632325  1.953111
C    -2.196108  0.641268  1.150283
C    -2.188529  2.096646  0.585063
O    -1.483657  2.931912  1.173001
H    -0.689357  1.631739  2.104600
H    -2.095900  -0.087919  0.336495
C    -3.491972  0.325981  1.939814
C    -3.996975  1.421135  2.893778
C    -5.376819  1.066133  3.483943
C    -5.914531  2.184392  4.373337
N    -7.306407  1.861735  4.904765
H    -3.340784  -0.616358  2.488327
H    -4.267819  0.112210  1.189913
H    -4.073600  2.377299  2.353951
H    -3.273945  1.585189  3.707351
H    -5.309147  0.129866  4.061327
H    -6.084481  0.881402  2.658923
H    -6.013211  3.133524  3.831693
H    -5.286627  2.355195  5.256562
H    -7.663664  2.618799  5.506609
H    -7.311212  0.996857  5.464948
H    -7.985404  1.733920  4.139990
N    -2.951531  2.390854  -0.475730
C    -3.781372  1.512790  -1.297663
H    -2.900472  3.370724  -0.751967
H    -3.734608  1.855320  -2.336734
H    -4.831816  1.528966  -0.976832
H    -3.413218  0.481600  -1.275403
Ba    3.271331  0.293966  3.277410
