35
Energy: -243352.170588 eV PBE+vdW (tier 2 basis)
C    0.350992  0.032969  0.401690
C    0.259180  0.783008  1.690420
O    1.340423  1.319117  2.178113
H    0.465305  0.748726  -0.427032
H    -0.523692  -0.589368  0.195707
H    1.243874  -0.603849  0.408330
N    -0.875440  0.932214  2.336933
C    -2.248565  0.678036  1.870212
C    -3.045314  1.805321  2.594655
O    -2.527534  2.313897  3.600397
H    -0.935229  1.540380  3.183651
H    -2.280027  0.824539  0.783633
C    -2.801709  -0.737426  2.191960
C    -3.419273  -0.957748  3.586614
C    -4.011441  -2.377143  3.699407
C    -5.053120  -2.605172  4.790494
N    -4.471690  -2.636199  6.202580
H    -1.999851  -1.469552  2.012680
H    -3.572371  -0.950292  1.436834
H    -4.220536  -0.218708  3.745179
H    -2.666992  -0.773156  4.370225
H    -3.215270  -3.135814  3.772545
H    -4.543467  -2.617147  2.765194
H    -5.549188  -3.574480  4.661124
H    -5.823879  -1.824127  4.802313
H    -5.210022  -2.816780  6.899318
H    -4.022419  -1.746533  6.457567
H    -3.770325  -3.383986  6.302741
N    -4.250045  2.153383  2.122260
C    -4.962326  1.648884  0.949743
H    -4.708241  2.881941  2.667989
H    -5.611804  2.442724  0.567624
H    -5.589263  0.780302  1.194052
H    -4.268104  1.379019  0.146086
Ba    3.336525  2.428774  2.616354
