35
Energy: -243351.879197 eV PBE+vdW (tier 2 basis)
C    0.391931  -2.535099  0.288924
C    0.390686  -1.548735  1.405831
O    1.492977  -1.347351  2.060356
H    -0.525257  -2.539976  -0.302736
H    0.542980  -3.542803  0.704168
H    1.241632  -2.323801  -0.373046
N    -0.687772  -0.877012  1.786227
C    -2.094626  -0.812350  1.286848
C    -2.666799  -2.149025  0.737164
O    -2.955746  -2.277667  -0.465696
H    -0.515128  -0.238547  2.564271
H    -2.667430  -0.601791  2.203203
C    -2.338271  0.373772  0.337845
C    -1.595576  0.374855  -1.011571
C    -2.361047  1.080959  -2.149370
C    -3.745965  0.534248  -2.493117
N    -3.729364  -0.951402  -2.800482
H    -3.427653  0.384150  0.188767
H    -2.124118  1.303752  0.884569
H    -1.359965  -0.651905  -1.320517
H    -0.628424  0.885294  -0.903816
H    -1.733287  1.076294  -3.053198
H    -2.510319  2.143390  -1.904673
H    -4.469592  0.659246  -1.678574
H    -4.151781  1.044519  -3.374321
H    -4.665939  -1.281245  -3.069195
H    -3.099056  -1.167059  -3.583764
H    -3.420706  -1.497602  -1.955249
N    -2.879481  -3.140004  1.617720
C    -2.777968  -3.107280  3.077605
H    -3.317450  -3.962703  1.203659
H    -1.767540  -2.838985  3.409676
H    -2.996904  -4.110208  3.455146
H    -3.508250  -2.415927  3.520569
Ba    3.660217  -1.292489  2.999437
