35
Energy: -243351.933190 eV PBE+vdW (tier 2 basis)
C    0.219064  1.401838  1.030657
C    0.061255  0.176177  1.863425
O    1.124364  -0.394640  2.338330
H    0.794836  2.145969  1.597515
H    -0.723157  1.853695  0.717034
H    0.802042  1.150692  0.132901
N    -1.114896  -0.377452  2.131099
C    -2.523163  0.003693  1.808628
C    -2.755982  0.569529  0.376452
O    -3.335362  1.655607  0.213464
H    -1.049136  -1.204325  2.726409
H    -3.047357  -0.965137  1.823477
C    -3.184137  0.868328  2.895136
C    -2.608937  2.275774  3.158252
C    -3.672740  3.294511  3.631184
C    -4.256512  4.197384  2.547594
N    -5.024254  3.448155  1.473560
H    -3.193462  0.294530  3.833293
H    -4.241739  0.922035  2.599750
H    -2.117706  2.676097  2.261109
H    -1.830015  2.203639  3.928761
H    -3.222984  3.984225  4.358872
H    -4.479446  2.786652  4.183088
H    -3.468569  4.749460  2.019622
H    -4.949373  4.928271  2.981206
H    -5.846842  2.972317  1.865700
H    -4.412545  2.731942  0.995042
H    -5.371495  4.097988  0.755613
N    -2.347353  -0.193126  -0.646594
C    -2.591912  0.160414  -2.049707
H    -2.006309  -1.129615  -0.453321
H    -2.412974  1.230200  -2.194914
H    -3.627584  -0.066856  -2.333744
H    -1.911314  -0.415655  -2.682959
Ba    3.268194  -1.148054  2.994948
