35
Energy: -243351.172884 eV PBE+vdW (tier 2 basis)
C    0.050323  -0.370027  0.097649
C    -0.017317  0.343069  1.419281
O    0.940668  0.990086  1.861558
H    -0.913955  -0.739018  -0.269345
H    0.735040  -1.224788  0.197695
H    0.492292  0.302712  -0.647116
N    -1.232924  0.222149  2.083337
C    -1.591508  0.614780  3.451836
C    -2.663651  1.723182  3.483208
O    -3.717970  1.530910  4.216272
H    -1.910026  -0.367228  1.608813
H    -2.092311  -0.247424  3.919339
C    -0.322699  0.934856  4.268242
C    -0.333423  1.218304  5.763076
C    1.131722  1.225551  6.265736
C    2.143624  2.088769  5.496248
N    2.733696  1.441010  4.239454
H    0.158626  1.781386  3.775351
H    0.313949  0.055541  4.092829
H    -0.882219  0.453982  6.332830
H    -0.802964  2.190361  5.980560
H    1.507465  0.190831  6.324347
H    1.152573  1.593016  7.300934
H    3.008541  2.299887  6.135832
H    1.727102  3.052457  5.175939
H    3.491434  2.028959  3.863078
H    2.052954  1.290059  3.458614
H    3.156497  0.529217  4.462577
N    -2.563668  2.841200  2.793148
C    -1.515385  3.308369  1.875391
H    -3.362849  3.469973  2.880425
H    -1.823002  3.120427  0.838507
H    -0.561928  2.811965  2.064752
H    -1.398956  4.388148  2.018380
Ba    -5.749911  1.149254  5.364170
