35
Energy: -243351.816727 eV PBE+vdW (tier 2 basis)
C    0.400250  0.114290  0.104464
C    -0.064373  -0.636252  1.313409
O    0.433030  -1.796751  1.578574
H    1.480550  0.304380  0.181407
H    -0.101926  1.078824  -0.027115
H    0.226576  -0.488858  -0.797857
N    -0.983505  -0.071426  2.085781
C    -1.542183  -0.557700  3.356002
C    -2.893617  -1.309870  3.267909
O    -3.063330  -2.227037  4.094303
H    -1.275226  0.859323  1.792330
H    -0.849427  -1.317594  3.735863
C    -1.600703  0.616182  4.368842
C    -2.092566  0.217195  5.774355
C    -3.610108  0.382469  6.016752
C    -4.159156  -0.540650  7.101239
N    -4.443106  -1.936851  6.547142
H    -2.226450  1.428757  3.965658
H    -0.581355  1.019975  4.440758
H    -1.561763  0.837110  6.508300
H    -1.774886  -0.816090  5.981901
H    -4.195377  0.244927  5.093471
H    -3.816386  1.414586  6.331092
H    -5.101939  -0.173925  7.521048
H    -3.448813  -0.663125  7.927497
H    -3.843106  -2.154440  5.711727
H    -5.418310  -2.007045  6.231190
H    -4.310870  -2.665624  7.259490
N    -3.851751  -0.959917  2.391909
C    -3.925520  0.155444  1.445803
H    -4.670626  -1.564619  2.438320
H    -3.589474  1.095279  1.901049
H    -4.975679  0.297020  1.172180
H    -3.366849  -0.045447  0.522323
Ba    1.840701  -3.680164  1.296232
