35
Energy: -243352.764656 eV PBE+vdW (tier 2 basis)
C    -0.664443  -3.034124  1.455082
C    -0.464636  -2.002097  2.512575
O    0.615707  -1.932716  3.172687
H    -1.655282  -3.000076  0.990395
H    -0.499765  -4.032671  1.882435
H    0.099065  -2.893718  0.675934
N    -1.456526  -1.127494  2.760214
C    -1.341773  0.022832  3.674650
C    -1.137709  -0.471696  5.128869
O    0.022243  -0.348377  5.634641
H    -2.290185  -1.190365  2.179588
H    -0.392748  0.529930  3.442726
C    -2.496813  1.008081  3.380335
C    -2.402019  2.446510  3.932247
C    -2.736527  2.646237  5.427072
C    -3.488782  3.935817  5.762705
N    -2.693652  5.213913  5.508334
H    -3.464514  0.573195  3.665345
H    -2.518680  1.097840  2.283336
H    -3.123392  3.021045  3.329465
H    -1.412565  2.867250  3.693924
H    -1.841134  2.553864  6.061317
H    -3.420063  1.852744  5.766354
H    -3.765755  3.968988  6.823175
H    -4.404681  4.035523  5.166131
H    -3.255017  6.043998  5.755253
H    -2.424327  5.318683  4.519864
H    -1.834225  5.253235  6.074861
N    -2.109408  -1.042200  5.835179
C    -3.481935  -1.402791  5.463818
H    -1.826927  -1.300771  6.781446
H    -4.191505  -0.608981  5.729641
H    -3.757432  -2.304665  6.020682
H    -3.558148  -1.630178  4.397891
Ba    2.163447  -1.490433  4.991438
