35
Energy: -243351.380809 eV PBE+vdW (tier 2 basis)
C    -0.525988  -0.706348  0.303074
C    -0.017582  -0.271744  1.645358
O    0.778225  -0.943327  2.302015
H    0.345002  -0.779430  -0.365966
H    -1.252627  -0.025148  -0.151801
H    -0.945445  -1.718801  0.360723
N    -0.409612  0.977557  2.141985
C    -1.797064  1.436682  2.171058
C    -1.990348  2.684115  1.288645
O    -3.152830  3.220007  1.135721
H    0.103020  1.182594  3.000654
H    -2.447693  0.656915  1.745864
C    -2.242646  1.741964  3.635220
C    -1.773069  0.788142  4.758097
C    -2.394513  -0.618426  4.895994
C    -1.809486  -1.812069  4.138259
N    -0.357564  -2.105791  4.478596
H    -3.339319  1.809438  3.651987
H    -1.865976  2.742442  3.899827
H    -2.020463  1.322222  5.686249
H    -0.672401  0.734234  4.784628
H    -3.462909  -0.587134  4.632051
H    -2.388027  -0.875832  5.966710
H    -2.381900  -2.711274  4.393913
H    -1.841081  -1.704036  3.047576
H    -0.135954  -3.096784  4.310091
H    -0.142249  -1.915033  5.466159
H    0.283785  -1.551003  3.850200
N    -0.919130  3.178594  0.712018
C    -0.859208  4.362393  -0.140988
H    -0.062389  2.647084  0.897520
H    0.181821  4.535601  -0.427859
H    -1.215508  5.247538  0.402573
H    -1.446002  4.209710  -1.056966
Ba    -5.086915  4.477254  0.610147
