35
Energy: -243352.016334 eV PBE+vdW (tier 2 basis)
C    0.148714  -1.362277  1.387315
C    -0.486372  -0.016116  1.571685
O    0.105464  1.039397  1.287063
H    0.321037  -1.527501  0.314655
H    -0.439934  -2.196090  1.785236
H    1.140466  -1.352860  1.857460
N    -1.765001  0.007668  2.066409
C    -2.523492  1.212426  2.427948
C    -2.887237  2.080624  1.202297
O    -4.119674  2.422403  0.982819
H    -2.232500  -0.882410  2.202028
H    -3.479394  0.845441  2.823287
C    -1.867459  2.114390  3.511460
C    -1.477082  1.445000  4.848985
C    -0.085000  0.771567  4.869432
C    0.692697  0.896193  6.177084
N    0.087901  0.104457  7.335597
H    -2.598794  2.908174  3.725684
H    -0.985999  2.615938  3.090941
H    -2.261964  0.738095  5.162212
H    -1.485573  2.255390  5.595292
H    0.565429  1.251919  4.122539
H    -0.140920  -0.285421  4.567229
H    0.747953  1.935629  6.525206
H    1.715689  0.516857  6.067402
H    0.651953  0.218838  8.191381
H    0.052560  -0.904061  7.128947
H    -0.868316  0.412187  7.559760
N    -1.911757  2.477917  0.426330
C    -2.064619  3.306508  -0.761587
H    -0.959291  2.084141  0.696708
H    -1.076622  3.474269  -1.199732
H    -2.493060  4.285407  -0.502799
H    -2.688322  2.803895  -1.515515
Ba    -6.141332  3.195478  0.108498
