35
Energy: -243351.583351 eV PBE+vdW (tier 2 basis)
C    -0.362393  -0.448806  0.750403
C    0.363979  0.282669  1.841471
O    1.311677  -0.206614  2.453312
H    -1.036857  0.178648  0.158555
H    -0.924406  -1.297285  1.166769
H    0.393190  -0.884490  0.082618
N    -0.030339  1.596639  2.139974
C    -1.432444  1.934476  2.387969
C    -1.865897  3.140373  1.538991
O    -3.054523  3.631528  1.634170
H    0.605531  1.988278  2.837421
H    -2.054477  1.093392  2.044500
C    -1.699651  2.176226  3.909061
C    -0.898889  1.279768  4.875820
C    -1.198119  -0.231289  4.869426
C    -0.197404  -1.040077  5.706046
N    1.055445  -1.434954  4.928400
H    -2.776553  2.061182  4.095399
H    -1.447066  3.219911  4.150422
H    -1.097423  1.661962  5.887982
H    0.178985  1.452269  4.727575
H    -1.250134  -0.651831  3.852876
H    -2.192102  -0.407757  5.304208
H    0.140681  -0.469955  6.579667
H    -0.637531  -1.974053  6.070981
H    1.873334  -1.512971  5.547239
H    1.288017  -0.776367  4.143933
H    0.935976  -2.354732  4.484374
N    -0.976402  3.638161  0.711146
C    -1.165443  4.773047  -0.187898
H    -0.080116  3.139547  0.715340
H    -0.221782  4.973255  -0.702996
H    -1.442652  5.671463  0.379293
H    -1.927983  4.545073  -0.945073
Ba    -5.125097  4.759591  1.514568
