35
Energy: -243352.249114 eV PBE+vdW (tier 2 basis)
C    -0.283314  1.200066  0.733757
C    0.157037  0.373070  1.895713
O    1.228347  0.727161  2.543547
H    -1.142425  0.785621  0.200565
H    0.550563  1.303205  0.026395
H    -0.542607  2.210344  1.081496
N    -0.499549  -0.695333  2.291211
C    -1.783111  -1.257076  1.833712
C    -2.323852  -1.932641  3.125889
O    -1.499090  -2.464776  3.876203
H    -0.165935  -1.237507  3.108343
H    -2.439255  -0.444200  1.494815
C    -1.567374  -2.290025  0.698190
C    -2.870950  -2.889493  0.120780
C    -3.298541  -4.281510  0.640481
C    -2.555983  -5.416756  -0.062645
N    -3.120418  -6.779099  0.324468
H    -0.894683  -3.073728  1.078367
H    -1.019496  -1.780718  -0.106785
H    -2.779924  -2.935959  -0.973706
H    -3.706863  -2.197424  0.295180
H    -4.377348  -4.394929  0.450234
H    -3.158397  -4.352076  1.730379
H    -1.487597  -5.451923  0.183686
H    -2.657915  -5.353404  -1.153379
H    -2.627642  -7.543510  -0.160943
H    -4.118585  -6.855581  0.077940
H    -3.041015  -6.955826  1.336246
N    -3.653765  -1.914132  3.311609
C    -4.309825  -2.506255  4.479156
H    -4.224849  -1.359043  2.682060
H    -5.161111  -3.118336  4.160043
H    -4.671868  -1.722268  5.155907
H    -3.582796  -3.127379  5.009221
Ba    3.068051  1.681823  3.600443
