35
Energy: -243352.338700 eV PBE+vdW (tier 2 basis)
C    0.088044  -0.336904  0.942244
C    -1.207917  -0.840116  1.489766
O    -1.725312  -1.892853  1.015104
H    0.713775  0.122504  1.712440
H    -0.096643  0.400943  0.146631
H    0.624654  -1.180451  0.494685
N    -1.842162  -0.213201  2.515929
C    -2.135112  1.224872  2.612698
C    -3.036826  1.595457  1.394784
O    -3.187665  0.769878  0.439633
H    -2.598613  -0.789520  2.886483
H    -2.799592  1.285902  3.487864
C    -0.943398  2.179195  2.965925
C    -0.242027  2.991057  1.861709
C    0.605633  4.173081  2.391354
C    1.876257  3.761620  3.136855
N    2.714876  4.978588  3.509183
H    -0.229750  1.556154  3.523364
H    -1.338948  2.890002  3.704745
H    -0.988746  3.431369  1.185363
H    0.389784  2.354487  1.228692
H    -0.016630  4.807795  3.043257
H    0.885582  4.791706  1.524529
H    2.527773  3.127529  2.522166
H    1.673856  3.241301  4.080938
H    3.000375  5.515321  2.676121
H    2.202170  5.625639  4.126835
H    3.577232  4.705084  4.004803
N    -3.697598  2.746433  1.393444
C    -3.775934  3.773004  2.437765
H    -4.267036  2.905765  0.561937
H    -4.722255  4.308892  2.315609
H    -2.956559  4.497615  2.349141
H    -3.771494  3.321980  3.436019
Ba    -3.576016  -1.530826  -0.577087
