35
Energy: -243351.180140 eV PBE+vdW (tier 2 basis)
C    -0.165016  -0.104961  0.199970
C    -0.287174  0.446263  1.593419
O    0.674821  0.951742  2.184299
H    -1.115908  -0.394391  -0.261093
H    0.493407  -0.984819  0.228280
H    0.334044  0.640249  -0.432030
N    -1.558836  0.351551  2.147563
C    -1.999733  0.631447  3.519811
C    -3.037935  1.770134  3.569577
O    -4.156992  1.556960  4.192639
H    -2.236095  -0.127860  1.562250
H    -2.552286  -0.252777  3.875378
C    -0.792297  0.850370  4.456151
C    -0.895679  0.728372  5.969686
C    0.498410  1.019414  6.578456
C    1.693126  0.248170  5.995802
N    2.312345  0.863212  4.736432
H    -0.328170  1.812882  4.211392
H    -0.101364  0.068855  4.125632
H    -1.221815  -0.283056  6.256958
H    -1.611316  1.439423  6.408627
H    0.476607  0.774535  7.649063
H    0.708246  2.101017  6.538237
H    1.445654  -0.790149  5.739683
H    2.510384  0.221419  6.725826
H    3.154918  0.335624  4.465648
H    2.618174  1.829652  4.914767
H    1.685523  0.881136  3.899069
N    -2.839314  2.940270  2.997330
C    -1.696641  3.443347  2.221449
H    -3.618782  3.594182  3.077377
H    -1.921622  3.375578  1.149160
H    -0.784612  2.883993  2.436391
H    -1.547917  4.496156  2.485246
Ba    -6.290983  1.176756  5.136638
