35
Energy: -243352.113912 eV PBE+vdW (tier 2 basis)
C    0.675056  0.429905  2.726450
C    -0.341048  -0.570847  3.164918
O    0.003033  -1.467422  4.044882
H    1.568527  -0.095078  2.362720
H    0.984942  1.038035  3.588088
H    0.313419  1.097145  1.939825
N    -1.569775  -0.587478  2.704696
C    -2.317158  0.342890  1.840749
C    -3.760449  0.187187  2.428307
O    -4.037213  -0.916849  2.917652
H    -2.263335  -1.276083  3.073369
H    -1.924867  1.359602  1.958202
C    -2.254738  -0.133879  0.363134
C    -3.171220  0.612717  -0.624071
C    -3.226099  -0.055776  -2.018177
C    -2.189503  0.381949  -3.052532
N    -2.627641  1.631779  -3.814774
H    -2.534883  -1.198453  0.359387
H    -1.203746  -0.084174  0.036758
H    -2.873770  1.672330  -0.700764
H    -4.194242  0.617814  -0.226204
H    -4.232642  0.065371  -2.448987
H    -3.112775  -1.143512  -1.903216
H    -2.042335  -0.383992  -3.822830
H    -1.211942  0.620576  -2.615327
H    -3.502592  1.459835  -4.332518
H    -1.918613  1.920631  -4.505292
H    -2.794161  2.433405  -3.191013
N    -4.632273  1.205415  2.377753
C    -4.452284  2.588075  1.947260
H    -5.542172  0.966865  2.773402
H    -4.761408  3.267683  2.750493
H    -5.060191  2.803610  1.058774
H    -3.403726  2.794524  1.715007
Ba    0.644502  -2.914416  5.744610
