35
Energy: -243352.894447 eV PBE+vdW (tier 2 basis)
C    -1.049385  -1.118765  -0.110566
C    -1.478726  -0.264977  1.043973
O    -1.863354  0.923374  0.844739
H    -0.251120  -0.599209  -0.658130
H    -1.889351  -1.230273  -0.810323
H    -0.697947  -2.115414  0.176114
N    -1.441065  -0.830424  2.265092
C    -1.699007  -0.331240  3.636801
C    -3.034236  0.417394  3.846522
O    -3.371129  1.454742  3.204158
H    -1.129405  -1.798634  2.253446
H    -1.811172  -1.264466  4.205275
C    -0.474309  0.364149  4.301331
C    0.082289  1.653980  3.684724
C    1.211926  2.308897  4.518822
C    2.524965  1.523733  4.540591
N    3.606012  2.278431  5.304885
H    0.310203  -0.407262  4.335480
H    -0.759132  0.548044  5.349693
H    -0.719755  2.401868  3.607649
H    0.440115  1.470028  2.660352
H    0.856805  2.465798  5.550171
H    1.403271  3.307983  4.097486
H    2.927324  1.362068  3.532505
H    2.437866  0.551106  5.039422
H    3.803826  3.197934  4.882292
H    3.337603  2.445988  6.286239
H    4.493788  1.753176  5.318331
N    -3.802366  -0.067188  4.815776
C    -5.065836  0.526938  5.261173
H    -3.516789  -0.927699  5.276338
H    -5.231815  0.250932  6.306866
H    -5.901881  0.147336  4.659062
H    -5.013449  1.616002  5.175395
Ba    -3.589796  2.611854  1.051640
