35
Energy: -243351.779671 eV PBE+vdW (tier 2 basis)
C    -0.977769  0.220777  -0.050584
C    -0.602478  0.036139  1.387377
O    0.492946  -0.470550  1.735921
H    -1.902088  0.789292  -0.198194
H    -1.107618  -0.766540  -0.517785
H    -0.154887  0.719314  -0.578193
N    -1.492090  0.454716  2.322222
C    -1.479632  0.194056  3.773378
C    -0.399586  0.971836  4.535410
O    -0.705802  1.541983  5.655494
H    -2.343727  0.881940  1.970152
H    -2.416615  0.649555  4.114437
C    -1.583437  -1.328468  4.174598
C    -0.408459  -2.105675  4.803323
C    0.792431  -2.535195  3.941139
C    0.435619  -3.422890  2.742593
N    1.392188  -3.164688  1.595319
H    -1.970465  -1.841684  3.283571
H    -2.404943  -1.388522  4.900469
H    -0.857564  -3.007721  5.245734
H    -0.009235  -1.548727  5.665727
H    1.496177  -3.074202  4.590541
H    1.322822  -1.648060  3.577635
H    -0.560485  -3.209205  2.338408
H    0.481726  -4.491786  2.979220
H    1.188017  -3.762046  0.782151
H    2.370046  -3.342438  1.862955
H    1.294694  -2.162100  1.317271
N    0.810221  1.033210  4.034048
C    1.940890  1.750988  4.617271
H    0.934754  0.507760  3.142230
H    2.813588  1.605566  3.974979
H    2.174719  1.365282  5.618079
H    1.731669  2.827695  4.669361
Ba    -1.230703  2.787691  7.587789
