35
Energy: -243351.893024 eV PBE+vdW (tier 2 basis)
C    0.134633  1.330080  1.785817
C    0.298703  -0.146544  1.626659
O    1.471014  -0.686910  1.702550
H    1.048808  1.774982  2.187248
H    -0.703175  1.584730  2.447689
H    -0.073135  1.796049  0.809152
N    -0.758088  -0.916684  1.394134
C    -2.142146  -0.455084  1.144659
C    -2.995451  -0.088004  2.381267
O    -3.854801  0.793227  2.209108
H    -0.573092  -1.914705  1.292391
H    -2.062274  0.486196  0.587338
C    -2.918163  -1.469995  0.264276
C    -4.026151  -0.803853  -0.600778
C    -5.454235  -1.356350  -0.452709
C    -6.197514  -1.095941  0.854477
N    -6.360305  0.384376  1.149476
H    -3.332772  -2.267792  0.899016
H    -2.196618  -1.957258  -0.406527
H    -3.751067  -0.924166  -1.656109
H    -4.022500  0.282952  -0.433005
H    -5.454466  -2.447503  -0.595630
H    -6.060094  -0.965216  -1.285278
H    -5.690406  -1.516833  1.732221
H    -7.203534  -1.528737  0.808948
H    -7.058086  0.541357  1.888282
H    -6.673760  0.905900  0.320093
H    -5.444434  0.771597  1.487481
N    -2.855090  -0.715623  3.563205
C    -2.048762  -1.876851  3.934560
H    -3.480046  -0.348720  4.280074
H    -2.470676  -2.300979  4.851091
H    -1.004211  -1.608150  4.141037
H    -2.091555  -2.661479  3.169168
Ba    3.799931  -1.113607  1.743742
