35
Energy: -243352.931925 eV PBE+vdW (tier 2 basis)
C    -1.128265  0.141378  0.048251
C    -0.919977  -0.087035  1.512700
O    0.132677  -0.646633  1.932687
H    -2.081476  0.621645  -0.196410
H    -1.065777  -0.823867  -0.473597
H    -0.310320  0.761978  -0.342922
N    -1.895274  0.322277  2.350011
C    -1.989644  0.185273  3.821096
C    -0.877522  0.977551  4.549628
O    0.325455  0.583412  4.547830
H    -2.666629  0.810589  1.904250
H    -2.940974  0.674294  4.072946
C    -2.058794  -1.280981  4.323273
C    -3.460559  -1.924828  4.398967
C    -4.167002  -2.208927  3.059301
C    -5.225475  -3.313943  3.095087
N    -6.468821  -2.972357  3.912666
H    -1.644463  -1.301317  5.341344
H    -1.394850  -1.905655  3.709337
H    -4.097362  -1.305762  5.052799
H    -3.320507  -2.877897  4.933291
H    -3.431179  -2.568023  2.322786
H    -4.598695  -1.293818  2.622591
H    -4.830145  -4.240282  3.531070
H    -5.592724  -3.540220  2.087041
H    -6.253307  -2.796786  4.904052
H    -7.143938  -3.752514  3.886731
H    -6.956495  -2.142497  3.544961
N    -1.254498  2.064258  5.208935
C    -0.367533  2.922860  5.999745
H    -2.230673  2.343698  5.156401
H    0.003619  3.755307  5.387871
H    0.474489  2.334213  6.372547
H    -0.932957  3.327871  6.844730
Ba    2.136593  -0.544261  3.336002
