35
Energy: -243353.055403 eV PBE+vdW (tier 2 basis)
C    -0.450754  -2.445715  0.699190
C    -0.418511  -1.468057  1.826778
O    0.604692  -0.760025  2.053654
H    -1.386900  -3.009826  0.632729
H    0.385782  -3.150073  0.802179
H    -0.291778  -1.903181  -0.243887
N    -1.513349  -1.345577  2.605374
C    -1.650097  -0.358070  3.685559
C    -0.719152  -0.717638  4.876384
O    0.389315  -0.101298  4.948429
H    -2.306866  -1.944213  2.392934
H    -1.205797  0.575957  3.310750
C    -3.127463  -0.060121  4.026128
C    -3.810369  0.819704  2.958925
C    -5.171294  1.436054  3.355430
C    -6.349379  0.462204  3.347102
N    -7.665126  1.198459  3.571425
H    -3.137302  0.465183  4.993405
H    -3.681500  -0.997134  4.181329
H    -3.919808  0.267625  2.012374
H    -3.146894  1.667127  2.732295
H    -5.378449  2.242976  2.635104
H    -5.086855  1.914988  4.344159
H    -6.293020  -0.295447  4.138170
H    -6.454706  -0.048513  2.381419
H    -7.680771  1.692403  4.476236
H    -8.468402  0.551667  3.562414
H    -7.834494  1.903638  2.838026
N    -1.020585  -1.636519  5.784636
C    -2.181337  -2.523566  5.898116
H    -0.317835  -1.728628  6.519695
H    -1.874003  -3.409286  6.463016
H    -2.520604  -2.857925  4.913275
H    -3.001424  -2.036725  6.440303
Ba    2.311811  0.322567  3.449340
