35
Energy: -243353.006568 eV PBE+vdW (tier 2 basis)
C    0.419366  2.537141  1.054841
C    0.184103  1.535506  2.136989
O    1.101699  1.215606  2.947122
H    -0.451991  2.703511  0.412889
H    1.265206  2.212934  0.433551
H    0.713452  3.491849  1.514096
N    -1.038619  0.976873  2.239625
C    -1.443827  0.040874  3.299499
C    -0.693013  -1.312093  3.147043
O    0.328982  -1.493577  3.881103
H    -1.735285  1.249754  1.551038
H    -1.042975  0.436347  4.244650
C    -2.979306  -0.054054  3.417228
C    -3.658081  1.149565  4.105321
C    -5.193530  1.028513  4.021463
C    -6.016517  2.214505  4.526264
N    -6.199518  2.241549  6.041901
H    -3.216752  -0.972600  3.974254
H    -3.420818  -0.189177  2.418895
H    -3.345543  2.089701  3.623616
H    -3.317018  1.206071  5.152097
H    -5.539180  0.100021  4.505753
H    -5.480829  0.917256  2.964668
H    -7.033632  2.179259  4.118557
H    -5.575841  3.182508  4.256453
H    -6.678690  1.392983  6.377948
H    -6.779332  3.046487  6.325377
H    -5.307645  2.317606  6.548906
N    -1.056897  -2.253453  2.285930
C    -2.129695  -2.284158  1.286302
H    -0.481736  -3.095385  2.340101
H    -1.842592  -3.000533  0.510270
H    -2.254394  -1.307690  0.808966
H    -3.076799  -2.617260  1.728144
Ba    2.473249  -0.333440  4.270136
