35
Energy: -243352.663518 eV PBE+vdW (tier 2 basis)
C    -1.391045  0.338077  -1.751113
C    -1.064102  0.983250  -0.445948
O    -0.853310  2.226744  -0.365814
H    -1.240771  -0.745767  -1.751076
H    -0.755846  0.792241  -2.523399
H    -2.431165  0.555931  -2.039848
N    -0.980256  0.235349  0.690415
C    -2.012134  -0.730159  1.070130
C    -3.295204  0.087684  1.421639
O    -3.223114  1.357073  1.501664
H    -0.639482  0.783323  1.481717
H    -2.248806  -1.344468  0.187672
C    -1.509130  -1.660348  2.199230
C    -0.429759  -2.638178  1.694666
C    -0.059866  -3.802931  2.639934
C    0.840214  -3.419941  3.813616
N    1.303873  -4.660768  4.568451
H    -2.362905  -2.226454  2.595493
H    -1.144567  -1.040729  3.034596
H    0.479330  -2.087988  1.408827
H    -0.796014  -3.104084  0.767592
H    0.463618  -4.554456  2.028147
H    -0.976115  -4.288991  3.012143
H    1.755532  -2.913792  3.481361
H    0.340576  -2.786557  4.556781
H    1.917352  -4.416789  5.360532
H    1.835655  -5.298447  3.956505
H    0.510910  -5.197948  4.949719
N    -4.454413  -0.528414  1.598057
C    -4.794130  -1.947993  1.462116
H    -5.227425  0.089681  1.848828
H    -4.074799  -2.467335  0.822362
H    -5.782118  -2.022464  0.994840
H    -4.838220  -2.433264  2.445642
Ba    -2.490710  3.668507  0.823537
