35
Energy: -243352.990291 eV PBE+vdW (tier 2 basis)
C    2.063964  0.119231  0.121020
C    1.575244  -0.599863  1.336268
O    2.385705  -1.093230  2.170762
H    2.760319  -0.521232  -0.435487
H    2.636923  1.000194  0.446020
H    1.262414  0.445354  -0.549998
N    0.242994  -0.695087  1.526623
C    -0.412808  -1.227512  2.728633
C    -0.432228  -2.779816  2.691629
O    0.655061  -3.390657  2.909407
H    -0.348310  -0.313382  0.794783
H    0.272693  -1.013819  3.562656
C    -1.726707  -0.478733  3.064548
C    -2.790739  -0.210799  1.973841
C    -4.078582  0.340268  2.626577
C    -5.269483  0.628106  1.707054
N    -5.260862  2.027881  1.097133
H    -1.425335  0.491431  3.485667
H    -2.191987  -1.019618  3.903269
H    -3.045054  -1.118628  1.401579
H    -2.398582  0.508203  1.234814
H    -3.848241  1.231238  3.233924
H    -4.444341  -0.401060  3.352683
H    -6.209732  0.572478  2.267841
H    -5.337859  -0.070301  0.863591
H    -4.439534  2.202576  0.502653
H    -5.277940  2.756422  1.826575
H    -6.096026  2.174033  0.508589
N    -1.564728  -3.424958  2.457922
C    -1.722619  -4.882372  2.420238
H    -2.399146  -2.869123  2.299767
H    -2.600469  -5.165064  3.011524
H    -0.831608  -5.351800  2.841844
H    -1.860412  -5.220183  1.385339
Ba    3.099015  -3.159178  3.270713
