35
Energy: -243352.290242 eV PBE+vdW (tier 2 basis)
C    0.309658  0.546243  0.157546
C    -0.011671  0.428871  1.610129
O    0.965465  0.453515  2.469348
H    1.001467  -0.259170  -0.125332
H    0.825952  1.498797  -0.026335
H    -0.567796  0.494040  -0.491745
N    -1.242045  0.304505  2.055956
C    -2.535108  0.325129  1.348801
C    -3.494801  0.870443  2.443059
O    -3.273396  0.546815  3.613411
H    -1.420251  0.234647  3.074733
H    -2.475833  1.005315  0.488414
C    -2.920784  -1.105818  0.895717
C    -4.280729  -1.254432  0.173603
C    -5.425205  -1.787185  1.059778
C    -6.674486  -2.054681  0.222058
N    -7.781710  -2.713078  1.036269
H    -2.883202  -1.760577  1.778995
H    -2.125357  -1.453849  0.222240
H    -4.137620  -1.954050  -0.661936
H    -4.580357  -0.302490  -0.291885
H    -5.654769  -1.076056  1.868783
H    -5.096302  -2.724666  1.536933
H    -6.469519  -2.740613  -0.609738
H    -7.108674  -1.135804  -0.191393
H    -8.616829  -2.889872  0.457688
H    -8.077622  -2.126478  1.829621
H    -7.480649  -3.620223  1.421680
N    -4.521747  1.632991  2.027565
C    -5.483196  2.237960  2.952250
H    -4.530255  1.949547  1.063182
H    -6.477350  2.250342  2.492918
H    -5.195304  3.268156  3.198853
H    -5.503926  1.648966  3.873587
Ba    2.870432  0.639768  3.788425
