35
Energy: -243352.806690 eV PBE+vdW (tier 2 basis)
C    0.452551  -0.390023  0.477388
C    0.311057  0.249569  1.823306
O    0.956011  1.300707  2.106647
H    1.511343  -0.475463  0.204387
H    -0.009947  0.279440  -0.264837
H    -0.023419  -1.373465  0.399988
N    -0.524746  -0.338479  2.701495
C    -1.142552  0.183438  3.932091
C    -0.171637  0.847973  4.920765
O    1.082608  0.677480  4.873509
H    -0.997292  -1.160151  2.333076
H    -1.862468  0.963314  3.631810
C    -1.967436  -0.962895  4.589140
C    -1.146378  -2.110054  5.205455
C    -1.939107  -3.406299  5.492644
C    -2.936676  -3.306739  6.647155
N    -3.569030  -4.661775  6.942074
H    -2.637308  -1.348743  3.802897
H    -2.633956  -0.511446  5.335089
H    -0.649607  -1.769693  6.127415
H    -0.333196  -2.392818  4.521239
H    -1.204698  -4.193041  5.725390
H    -2.462360  -3.727234  4.577246
H    -3.773174  -2.628518  6.438773
H    -2.455406  -2.991460  7.581699
H    -4.238374  -4.604512  7.724711
H    -2.860011  -5.365217  7.199102
H    -4.083202  -5.031770  6.128551
N    -0.697992  1.630767  5.866057
C    -2.084563  2.047478  6.102189
H    -0.015029  1.967771  6.544269
H    -2.070597  3.049945  6.542281
H    -2.588629  1.371420  6.804493
H    -2.650477  2.097464  5.166678
Ba    2.846941  1.846585  3.535222
