35
Energy: -243351.799136 eV PBE+vdW (tier 2 basis)
C    0.225638  0.599773  1.023187
C    -0.341423  0.521892  2.401370
O    0.458893  0.599529  3.417567
H    1.129295  -0.018641  0.962930
H    0.524040  1.638779  0.814995
H    -0.464464  0.277421  0.239644
N    -1.642422  0.396499  2.622731
C    -2.752406  0.184787  1.658579
C    -3.969758  1.060889  2.082808
O    -5.059948  0.548101  2.366487
H    -1.909885  0.332220  3.607012
H    -2.417087  0.574486  0.688153
C    -3.005053  -1.341841  1.553908
C    -4.339453  -1.870831  0.997879
C    -4.892127  -1.250841  -0.300656
C    -6.409583  -1.393882  -0.384108
N    -7.095770  -0.433746  0.589498
H    -2.894657  -1.771543  2.560527
H    -2.167291  -1.743238  0.962757
H    -5.081842  -1.789795  1.800237
H    -4.203029  -2.949706  0.836195
H    -4.466407  -1.748401  -1.182596
H    -4.630901  -0.185999  -0.411711
H    -6.731370  -2.405793  -0.110775
H    -6.802421  -1.169669  -1.381549
H    -7.962908  -0.829849  0.973886
H    -7.351375  0.442923  0.118958
H    -6.458613  -0.176233  1.379665
N    -3.793645  2.399213  2.098977
C    -2.643641  3.199520  1.688388
H    -4.620173  2.908453  2.409405
H    -2.997049  4.201670  1.426245
H    -2.162616  2.780409  0.796167
H    -1.903023  3.302120  2.494039
Ba    2.283109  0.654100  4.917313
