35
Energy: -243351.655507 eV PBE+vdW (tier 2 basis)
C    0.827633  0.199513  0.228885
C    0.549133  -0.113069  1.667301
O    1.434783  -0.453503  2.466044
H    1.583741  0.993232  0.167813
H    -0.056960  0.504689  -0.341023
H    1.269718  -0.689229  -0.242423
N    -0.759463  -0.031020  2.086029
C    -1.097633  -0.243023  3.480852
C    -2.339843  -1.111340  3.642431
O    -3.362246  -0.993305  2.857088
H    -1.418833  0.436767  1.474131
H    -0.243410  -0.804775  3.880956
C    -1.270030  1.075862  4.292957
C    -0.033215  2.000877  4.339964
C    0.966086  1.821328  5.500902
C    1.937886  0.642182  5.528401
N    2.946839  0.668082  4.397610
H    -1.593266  0.831452  5.317000
H    -2.104662  1.633480  3.840898
H    -0.422181  3.023030  4.444564
H    0.476749  2.002936  3.365153
H    0.412249  1.776605  6.451513
H    1.557014  2.748314  5.577506
H    1.446174  -0.335749  5.459464
H    2.508765  0.664190  6.464318
H    3.731983  0.031353  4.588653
H    3.345991  1.606783  4.265875
H    2.488923  0.341366  3.505575
N    -2.386407  -1.971084  4.644660
C    -1.338108  -2.278918  5.629965
H    -3.260498  -2.482156  4.758192
H    -1.689118  -3.113357  6.243455
H    -1.152802  -1.420704  6.287128
H    -0.413373  -2.586630  5.127599
Ba    -5.384169  -1.110209  1.611982
