35
Energy: -243351.891064 eV PBE+vdW (tier 2 basis)
C    0.326340  0.085088  1.254233
C    -0.379850  -0.751654  2.263683
O    0.260372  -1.173229  3.309061
H    -0.047249  -0.117275  0.245780
H    1.401528  -0.113566  1.293146
H    0.169905  1.150036  1.485549
N    -1.661631  -1.079823  2.150853
C    -2.731956  -0.726966  1.164425
C    -2.570307  -1.562822  -0.131024
O    -1.637110  -1.338390  -0.926571
H    -1.999291  -1.656043  2.920834
H    -3.629776  -1.084538  1.682558
C    -2.937393  0.805439  0.935673
C    -2.519769  1.442364  -0.400567
C    -3.515733  1.222798  -1.561105
C    -2.877230  1.345175  -2.941720
N    -2.165008  0.051482  -3.335236
H    -2.440626  1.329865  1.763371
H    -4.008628  0.997732  1.089396
H    -1.516231  1.106919  -0.690131
H    -2.432018  2.524626  -0.230885
H    -4.316829  1.972211  -1.501672
H    -4.033556  0.252430  -1.486168
H    -2.126333  2.143754  -2.972386
H    -3.614354  1.546795  -3.726418
H    -1.377895  0.226558  -3.972497
H    -1.820689  -0.473811  -2.490370
H    -2.810537  -0.576802  -3.829449
N    -3.503371  -2.507088  -0.320766
C    -3.541638  -3.402854  -1.476001
H    -4.244832  -2.607700  0.366315
H    -3.830469  -4.406414  -1.146047
H    -2.547209  -3.445032  -1.929479
H    -4.277958  -3.058222  -2.215065
Ba    1.744339  -1.664702  5.073144
