35
Energy: -243351.099075 eV PBE+vdW (tier 2 basis)
C    -0.011048  0.527619  -0.089011
C    0.158005  0.018431  1.313209
O    1.264370  -0.247637  1.794379
H    -0.817466  1.262110  -0.203345
H    -0.219026  -0.310979  -0.772639
H    0.933390  0.979302  -0.408595
N    -0.962367  -0.163454  2.109001
C    -2.297836  -0.511091  1.642856
C    -3.374351  0.135784  2.542528
O    -4.448219  -0.512622  2.863098
H    -0.709042  -0.521723  3.028744
H    -2.443068  -0.015048  0.667610
C    -2.470118  -2.045716  1.420830
C    -1.636113  -2.960685  2.348107
C    -0.206483  -3.250294  1.814806
C    0.876387  -3.322069  2.903396
N    2.196643  -2.788905  2.388864
H    -2.204913  -2.258613  0.376281
H    -3.536796  -2.294618  1.501215
H    -2.168224  -3.913130  2.465360
H    -1.587175  -2.535657  3.364377
H    0.075317  -2.470056  1.096853
H    -0.215247  -4.185424  1.239333
H    1.045794  -4.340994  3.269236
H    0.631464  -2.691566  3.767282
H    2.933898  -2.845458  3.105027
H    2.062076  -1.778064  2.125433
H    2.533278  -3.308365  1.566975
N    -3.243278  1.381118  2.964756
C    -2.237647  2.409307  2.644495
H    -3.997588  1.700415  3.571593
H    -1.342506  2.291516  3.264443
H    -2.692711  3.382300  2.854686
H    -1.966033  2.373008  1.586472
Ba    -6.606864  -1.417302  3.218732
