35
Energy: -243352.303605 eV PBE+vdW (tier 2 basis)
C    0.221960  -0.181124  2.633265
C    0.442201  1.199287  2.111374
O    1.597756  1.765080  2.309954
H    0.949694  -0.865542  2.175316
H    -0.784201  -0.563415  2.443640
H    0.403649  -0.191780  3.716744
N    -0.481039  1.866549  1.458261
C    -1.816949  1.474912  0.978164
C    -1.967030  2.380794  -0.284797
O    -1.387121  3.471592  -0.275428
H    -0.278341  2.816227  1.082437
H    -1.822020  0.409420  0.710258
C    -2.891495  1.787655  2.050317
C    -4.343881  1.460955  1.655958
C    -5.294095  1.650007  2.853928
C    -6.747676  1.230095  2.647492
N    -7.562255  2.232893  1.832722
H    -2.805840  2.852921  2.313398
H    -2.630816  1.218500  2.956458
H    -4.411957  0.417606  1.306397
H    -4.642959  2.098939  0.808877
H    -5.253672  2.687955  3.224190
H    -4.938452  1.034060  3.693985
H    -7.271521  1.147860  3.607074
H    -6.839634  0.269853  2.124322
H    -8.537437  1.914889  1.727022
H    -7.182379  2.370222  0.886709
H    -7.591678  3.154179  2.293309
N    -2.738294  1.919607  -1.280804
C    -2.953976  2.657814  -2.528311
H    -3.064256  0.959302  -1.236980
H    -2.269806  2.307423  -3.311717
H    -2.770936  3.720000  -2.344852
H    -3.985503  2.513331  -2.866124
Ba    3.757755  2.564050  2.615840
