35
Energy: -243353.363181 eV PBE+vdW (tier 2 basis)
C    -0.414597  -2.109781  1.181965
C    -0.455259  -0.795394  1.889181
O    0.564099  -0.046046  1.938221
H    0.407388  -2.718760  1.580841
H    -0.187722  -1.927914  0.121134
H    -1.348978  -2.676296  1.252217
N    -1.611061  -0.417977  2.467420
C    -1.886223  0.897473  3.074744
C    -1.171120  0.993464  4.447426
O    0.030092  1.390723  4.483898
H    -2.389119  -1.070539  2.402253
H    -1.389595  1.653710  2.448044
C    -3.408562  1.144767  3.045466
C    -3.856439  2.571655  3.409997
C    -5.376606  2.757480  3.211711
C    -5.822493  4.186663  3.520143
N    -7.318845  4.370433  3.301985
H    -3.930700  0.407908  3.680957
H    -3.734044  0.923700  2.017011
H    -3.317117  3.293232  2.776596
H    -3.588694  2.808367  4.451372
H    -5.922893  2.051399  3.857838
H    -5.638925  2.507087  2.171114
H    -5.332061  4.922633  2.870778
H    -5.633814  4.467150  4.563927
H    -7.610052  5.338224  3.508714
H    -7.876089  3.749960  3.907981
H    -7.592426  4.173014  2.327746
N    -1.824050  0.629917  5.541263
C    -1.254364  0.612103  6.892611
H    -2.776384  0.291190  5.435074
H    -2.058836  0.769307  7.617168
H    -0.515578  1.412545  6.987971
H    -0.777316  -0.355559  7.096340
Ba    2.165375  1.263064  3.215566
