35
Energy: -243351.302704 eV PBE+vdW (tier 2 basis)
C    0.391244  0.057564  0.296359
C    0.169465  0.226860  1.770047
O    1.097214  0.387272  2.585787
H    -0.520337  0.149489  -0.304346
H    0.816626  -0.940459  0.111999
H    1.130749  0.790417  -0.048285
N    -1.127674  0.226281  2.195806
C    -1.601414  0.159397  3.575742
C    -1.405421  1.397531  4.467238
O    -1.864668  1.300646  5.682156
H    -1.838310  0.097769  1.481382
H    -2.700777  0.178809  3.469783
C    -1.326433  -1.212968  4.284688
C    0.060918  -1.867678  4.218578
C    1.167281  -1.268743  5.104062
C    2.565098  -1.790377  4.754472
N    3.189691  -1.023114  3.592358
H    -2.033475  -1.915292  3.822657
H    -1.646176  -1.119108  5.333636
H    0.380775  -1.923683  3.169640
H    -0.084742  -2.916665  4.518381
H    0.983307  -1.542971  6.153273
H    1.169700  -0.169323  5.062252
H    2.533055  -2.845948  4.459093
H    3.259353  -1.703441  5.596758
H    2.452571  -0.546103  3.000842
H    3.766566  -1.633258  3.000245
H    3.808353  -0.278666  3.936630
N    -0.946908  2.575835  4.091257
C    -0.468759  3.121261  2.807374
H    -0.961696  3.259571  4.847528
H    -0.418658  4.207554  2.922587
H    -1.166206  2.886232  2.000063
H    0.531101  2.740217  2.578622
Ba    -3.121520  1.294966  7.677922
