35
Energy: -243352.147693 eV PBE+vdW (tier 2 basis)
C    -0.464450  0.329315  -0.175615
C    -0.355011  0.339787  1.319324
O    0.746813  0.452616  1.891746
H    0.238209  -0.412835  -0.575329
H    -0.137106  1.305181  -0.560183
H    -1.470692  0.115103  -0.551007
N    -1.524961  0.240044  2.022869
C    -1.713633  0.101971  3.476479
C    -1.104024  1.249137  4.303952
O    -1.852421  1.840992  5.190628
H    -2.374240  0.172764  1.470970
H    -2.793593  0.229471  3.622786
C    -1.399507  -1.320177  4.040746
C    -0.010104  -1.928549  3.793078
C    0.059533  -3.397956  4.261386
C    1.412655  -4.018960  3.919852
N    1.481969  -5.488555  4.318178
H    -2.160505  -1.979485  3.595919
H    -1.617109  -1.299080  5.121266
H    0.770164  -1.342771  4.301290
H    0.226494  -1.889615  2.721775
H    -0.743311  -3.973103  3.771672
H    -0.117728  -3.459821  5.347277
H    2.242577  -3.526181  4.441330
H    1.618686  -3.991312  2.842560
H    2.397972  -5.897692  4.079650
H    0.763397  -6.048709  3.836392
H    1.343792  -5.618933  5.330869
N    0.139446  1.591559  4.109106
C    0.831442  2.667362  4.806268
H    0.591155  1.095119  3.258601
H    0.799853  2.514265  5.893490
H    0.396859  3.645484  4.552119
H    1.877689  2.672314  4.487721
Ba    -3.020662  3.305479  6.568745
