35
Energy: -243351.415942 eV PBE+vdW (tier 2 basis)
C    -0.200481  1.688897  -0.307050
C    -0.276039  0.317744  0.286233
O    0.465784  -0.602743  -0.059643
H    0.857581  1.983133  -0.337489
H    -0.763193  2.446485  0.247538
H    -0.538539  1.666902  -1.353202
N    -1.201359  0.072798  1.320578
C    -2.623994  0.353358  1.116854
C    -3.321242  0.583988  2.464570
O    -4.597205  0.756049  2.530169
H    -1.052220  -0.888432  1.636556
H    -2.702972  1.330186  0.610495
C    -3.277001  -0.700353  0.171215
C    -2.947947  -2.183222  0.458006
C    -2.782238  -3.066410  -0.796690
C    -1.610750  -2.788983  -1.742137
N    -0.240062  -3.027985  -1.131810
H    -2.928382  -0.426765  -0.835097
H    -4.364992  -0.551644  0.144745
H    -3.742843  -2.629862  1.070389
H    -2.041685  -2.286893  1.074901
H    -3.685880  -2.995009  -1.421094
H    -2.742069  -4.119999  -0.479187
H    -1.687075  -3.451736  -2.611903
H    -1.588980  -1.757813  -2.116752
H    -0.205049  -3.901721  -0.590498
H    0.060348  -2.214458  -0.527105
H    0.470876  -3.109337  -1.872306
N    -2.558280  0.660842  3.532869
C    -2.999995  0.938353  4.897284
H    -1.554319  0.584516  3.341376
H    -3.822726  0.267998  5.175541
H    -3.305004  1.988977  5.001901
H    -2.164836  0.756333  5.579763
Ba    -6.829294  1.413334  2.960740
