35
Energy: -243350.821256 eV PBE+vdW (tier 2 basis)
C    0.277342  0.255806  2.026039
C    -0.524154  0.715006  3.220886
O    -0.085851  0.729612  4.357172
H    0.200716  -0.834516  1.897439
H    1.331652  0.473292  2.228423
H    -0.017985  0.747453  1.091404
N    -1.835704  1.185215  2.996461
C    -2.771320  0.517288  2.105694
C    -3.379273  1.485689  1.075887
O    -3.391835  1.150492  -0.179290
H    -2.224960  1.498727  3.884555
H    -2.193440  -0.189951  1.497860
C    -3.892424  -0.277434  2.864967
C    -3.445205  -0.925706  4.193774
C    -2.401816  -2.055631  4.091108
C    -1.543688  -2.262390  5.338590
N    -2.326759  -2.778195  6.543184
H    -4.299479  -1.039777  2.184858
H    -4.730042  0.395818  3.096027
H    -4.363013  -1.302121  4.670399
H    -3.062250  -0.141237  4.865139
H    -1.668501  -1.840124  3.300614
H    -2.879026  -3.000924  3.788584
H    -1.063963  -1.327198  5.657895
H    -0.760006  -3.008012  5.160584
H    -1.700874  -2.916761  7.351124
H    -2.776018  -3.685078  6.348986
H    -3.062829  -2.123912  6.842789
N    -3.878098  2.657890  1.419215
C    -3.978757  3.294928  2.740431
H    -4.212541  3.227695  0.643213
H    -3.024219  3.760818  3.013833
H    -4.282458  2.574094  3.504885
H    -4.750508  4.068023  2.679092
Ba    -3.433313  0.780969  -2.504288
