35
Energy: -243352.999935 eV PBE+vdW (tier 2 basis)
C    -2.274518  -4.445768  -0.167196
C    -1.467743  -3.606883  0.768541
O    -0.203933  -3.655069  0.769586
H    -2.045001  -5.506485  0.004584
H    -1.969916  -4.220997  -1.199036
H    -3.355041  -4.296680  -0.071124
N    -2.117568  -2.786522  1.619278
C    -1.453728  -1.860111  2.548193
C    -0.706092  -2.647082  3.661700
O    0.545525  -2.811728  3.513609
H    -3.133823  -2.802016  1.600216
H    -0.630571  -1.389064  1.990909
C    -2.400294  -0.747087  3.043443
C    -2.654774  0.396985  2.038723
C    -3.465233  1.529123  2.704319
C    -3.587161  2.847827  1.939861
N    -4.664353  2.845995  0.857137
H    -1.947869  -0.318011  3.950428
H    -3.359896  -1.177176  3.365116
H    -3.169440  0.008741  1.144479
H    -1.688867  0.799976  1.695402
H    -2.969999  1.802210  3.648880
H    -4.465663  1.174956  3.003355
H    -2.654046  3.134298  1.438679
H    -3.870464  3.660406  2.619234
H    -4.716833  3.766511  0.394112
H    -5.596546  2.656254  1.253890
H    -4.489024  2.147853  0.122333
N    -1.313685  -3.157299  4.724724
C    -2.728350  -3.171557  5.110662
H    -0.673737  -3.609518  5.379412
H    -2.887089  -4.031419  5.768939
H    -3.375591  -3.295796  4.237538
H    -2.999693  -2.262032  5.660590
Ba    2.032248  -3.764418  1.790584
