35
Energy: -243351.237776 eV PBE+vdW (tier 2 basis)
C    0.431839  -1.110192  1.598446
C    -0.165591  -0.842908  2.950166
O    0.338868  -1.277500  3.989266
H    0.268399  -2.158976  1.309894
H    1.518623  -0.982257  1.684153
H    0.058879  -0.449247  0.809219
N    -1.303248  -0.049681  3.039450
C    -2.461544  -0.231296  2.171789
C    -2.898311  1.042903  1.433622
O    -3.296211  0.941077  0.202568
H    -1.532944  0.101369  4.020700
H    -2.171808  -0.925540  1.373405
C    -3.677304  -0.844135  2.956574
C    -3.306416  -1.803021  4.106165
C    -2.626851  -3.135980  3.739149
C    -2.078456  -3.883751  4.962277
N    -0.661655  -3.459132  5.342724
H    -4.332441  -1.350836  2.233808
H    -4.276106  -0.030394  3.391367
H    -4.246389  -2.031022  4.630268
H    -2.703071  -1.264641  4.854560
H    -1.824031  -3.014144  2.995388
H    -3.363390  -3.798429  3.263041
H    -2.707706  -3.714667  5.844226
H    -2.038859  -4.964219  4.789254
H    -0.515663  -3.502806  6.359617
H    -0.399605  -2.494378  5.005272
H    0.033068  -4.089654  4.922293
N    -2.904852  2.229981  2.007901
C    -2.564959  2.623493  3.385181
H    -3.194407  2.997544  1.403004
H    -2.979897  3.621490  3.554085
H    -1.478102  2.661034  3.520413
H    -3.019480  1.942409  4.111632
Ba    -4.086304  0.983096  -2.027485
