35
Energy: -243351.844722 eV PBE+vdW (tier 2 basis)
C    0.811231  -0.734271  0.494054
C    0.198672  -1.093499  1.818189
O    0.501077  -2.075556  2.479020
H    1.873797  -0.999084  0.498113
H    0.684223  0.319532  0.217556
H    0.340051  -1.347990  -0.288138
N    -0.822300  -0.234863  2.272065
C    -1.410556  -0.480733  3.575370
C    -2.895074  -0.837310  3.440816
O    -3.618937  -1.112328  4.475107
H    -0.843543  0.712277  1.901096
H    -0.930474  -1.426204  3.907646
C    -1.129283  0.627072  4.615908
C    0.227255  0.539824  5.344863
C    1.503463  0.790976  4.514458
C    2.709508  0.898386  5.448536
N    4.013479  1.117578  4.692145
H    -1.907602  0.583176  5.390558
H    -1.246564  1.610993  4.134361
H    0.309417  -0.443443  5.833905
H    0.190329  1.282036  6.157064
H    1.397610  1.723174  3.936162
H    1.664195  -0.032726  3.802901
H    2.856003  -0.016293  6.036719
H    2.620174  1.744018  6.141912
H    4.217136  0.340628  4.046840
H    4.811951  1.191627  5.340751
H    3.992907  1.985089  4.136511
N    -3.399485  -0.912252  2.229066
C    -4.760143  -1.306323  1.883915
H    -2.725198  -0.715285  1.483949
H    -4.898128  -1.191001  0.805155
H    -5.488884  -0.659061  2.389960
H    -4.936684  -2.361444  2.137161
Ba    -5.200188  -1.905375  6.009022
