35
Energy: -243352.031719 eV PBE+vdW (tier 2 basis)
C    0.326451  0.010396  0.103840
C    0.201032  -0.256071  1.572588
O    1.163685  -0.585382  2.283669
H    -0.601648  0.351046  -0.368130
H    0.673382  -0.903319  -0.397156
H    1.110648  0.763255  -0.050351
N    -1.048660  -0.130639  2.137619
C    -1.227949  -0.205910  3.585510
C    -1.223264  -1.690033  4.031050
O    -2.270050  -2.315735  4.464206
H    -1.848345  0.071536  1.545526
H    -0.303162  0.206175  4.022135
C    -2.431621  0.606993  4.072215
C    -2.388748  2.114092  3.741455
C    -1.289315  2.934688  4.447717
C    -1.471764  4.421955  4.142701
N    -0.424204  5.290883  4.827603
H    -2.518088  0.472523  5.160998
H    -3.355829  0.194748  3.638575
H    -3.370449  2.526480  4.017063
H    -2.302123  2.256913  2.653772
H    -0.289136  2.610994  4.117292
H    -1.343269  2.769338  5.536170
H    -2.443236  4.795188  4.490343
H    -1.385906  4.637718  3.070323
H    -0.570509  6.288581  4.610255
H    0.531925  5.051470  4.527258
H    -0.457925  5.195734  5.853124
N    -0.061514  -2.290184  3.916409
C    0.189183  -3.692041  4.212239
H    0.674115  -1.699485  3.434258
H    -0.401424  -4.349076  3.554365
H    -0.022414  -3.911758  5.269529
H    1.246909  -3.907144  4.033965
Ba    -3.674697  -4.036628  5.194602
