35
Energy: -243351.295791 eV PBE+vdW (tier 2 basis)
C    -0.313876  0.372967  -0.305555
C    -0.085812  -0.242994  1.043753
O    0.926420  -0.911376  1.325602
H    -1.110569  1.124993  -0.322330
H    -0.585973  -0.418163  -1.020516
H    0.620172  0.822584  -0.663022
N    -1.045589  -0.011860  1.987685
C    -1.165609  -0.644889  3.298532
C    -0.117443  -0.286907  4.367084
O    -0.255704  -0.874442  5.521195
H    -1.842306  0.546970  1.696305
H    -2.056237  -0.160617  3.737596
C    -1.562257  -2.161220  3.248265
C    -0.802201  -3.139768  2.339966
C    0.629610  -3.493079  2.768565
C    1.453607  -4.237922  1.717843
N    1.723030  -3.386058  0.477146
H    -2.612702  -2.170178  2.927124
H    -1.566239  -2.539347  4.281698
H    -0.830100  -2.752099  1.312154
H    -1.403284  -4.061160  2.307762
H    0.599160  -4.156688  3.646503
H    1.182784  -2.592002  3.068379
H    0.960708  -5.155564  1.375626
H    2.432245  -4.515185  2.123700
H    2.686783  -3.510593  0.143363
H    1.558263  -2.359645  0.676924
H    1.109047  -3.651211  -0.301848
N    0.814268  0.642466  4.275146
C    1.200166  1.601417  3.223898
H    1.360791  0.732758  5.131192
H    1.839883  2.351444  3.697519
H    0.321913  2.101568  2.810019
H    1.767243  1.096914  2.435342
Ba    -0.778045  -1.528670  7.726348
