35
Energy: -243352.033949 eV PBE+vdW (tier 2 basis)
C    0.802366  -0.420480  1.446703
C    -0.217477  -0.609911  2.516036
O    0.168678  -1.070594  3.669622
H    0.359097  -0.392482  0.446803
H    1.518162  -1.250521  1.482067
H    1.359919  0.507580  1.649327
N    -1.506061  -0.314693  2.381166
C    -2.322643  0.170788  1.225911
C    -2.368070  -0.914242  0.111379
O    -1.361470  -1.145879  -0.554007
H    -2.049583  -0.497107  3.223867
H    -3.320760  0.292972  1.668512
C    -1.841437  1.529326  0.674840
C    -2.631357  2.061971  -0.539481
C    -4.062536  2.543223  -0.250053
C    -4.845174  3.028050  -1.469981
N    -4.328818  4.349057  -2.035126
H    -0.798613  1.428430  0.353192
H    -1.857678  2.264016  1.493920
H    -2.646097  1.295109  -1.329496
H    -2.027610  2.891702  -0.941461
H    -4.065806  3.323216  0.529449
H    -4.671258  1.721378  0.157045
H    -5.897415  3.209395  -1.221485
H    -4.804560  2.312311  -2.300932
H    -4.896423  4.649948  -2.841601
H    -3.354355  4.280031  -2.359572
H    -4.372199  5.103451  -1.334663
N    -3.566857  -1.510644  -0.067280
C    -3.792957  -2.546936  -1.075512
H    -4.324384  -1.304053  0.575000
H    -4.754408  -2.377296  -1.572021
H    -3.799915  -3.544169  -0.616805
H    -2.983783  -2.499900  -1.809792
Ba    1.423853  -2.026286  5.395426
