35
Energy: -243351.019248 eV PBE+vdW (tier 2 basis)
C    0.380055  0.221455  -0.578662
C    0.399827  0.334310  0.918713
O    1.415226  0.679060  1.530789
H    0.909511  1.071112  -1.023924
H    -0.621048  0.134815  -1.015024
H    0.951303  -0.679557  -0.850386
N    -0.721365  -0.031935  1.643391
C    -2.126156  0.246201  1.330066
C    -2.719294  -0.717407  0.284898
O    -3.470049  -0.276974  -0.673637
H    -0.517505  -0.056211  2.640481
H    -2.669194  -0.019806  2.255163
C    -2.404625  1.746560  1.063575
C    -1.714412  2.679926  2.099113
C    -0.515363  3.462272  1.519069
C    0.506721  4.013214  2.511834
N    1.347705  2.926010  3.178274
H    -3.491788  1.903253  1.094985
H    -2.071104  2.012247  0.048977
H    -1.410918  2.087848  2.976092
H    -2.450557  3.396127  2.485121
H    -0.893922  4.336069  0.968647
H    0.021683  2.865879  0.768545
H    0.046369  4.600740  3.315292
H    1.214601  4.663552  1.986197
H    2.290471  3.277853  3.392224
H    1.451562  2.064634  2.571874
H    0.943794  2.625322  4.072792
N    -2.507467  -2.016306  0.387534
C    -1.812088  -2.780074  1.436093
H    -2.919746  -2.580151  -0.355045
H    -2.171384  -3.812353  1.382693
H    -2.045989  -2.382312  2.428642
H    -0.728365  -2.767705  1.275818
Ba    -5.107111  0.311914  -2.280783
