35
Energy: -243352.135074 eV PBE+vdW (tier 2 basis)
C    -1.459958  -1.135035  -0.232162
C    -0.638012  -0.484681  0.830869
O    0.653023  -0.647613  0.804941
H    -1.254661  -2.214239  -0.239294
H    -1.163162  -0.742528  -1.215152
H    -2.535446  -0.986152  -0.108489
N    -1.165217  0.244846  1.788507
C    -2.529291  0.778476  1.935052
C    -2.268853  2.111824  2.700111
O    -1.202687  2.212066  3.324498
H    -0.556709  0.747396  2.472735
H    -2.944921  0.975430  0.939183
C    -3.497716  -0.154306  2.707211
C    -3.196847  -0.353988  4.202703
C    -4.101585  -1.412972  4.869073
C    -5.504383  -0.972499  5.289955
N    -5.513009  -0.296544  6.659742
H    -3.497815  -1.132685  2.202036
H    -4.509682  0.253308  2.563780
H    -3.255496  0.611300  4.733017
H    -2.155186  -0.681893  4.327123
H    -3.587372  -1.847648  5.741054
H    -4.239176  -2.260672  4.181608
H    -6.180357  -1.829655  5.389637
H    -5.963531  -0.257234  4.596382
H    -6.462884  0.005812  6.923091
H    -4.904985  0.533379  6.691415
H    -5.186941  -0.943362  7.393205
N    -3.208115  3.069372  2.682422
C    -4.462110  3.128568  1.934452
H    -2.953059  3.894701  3.223540
H    -4.627634  4.158854  1.601885
H    -5.319616  2.825444  2.550818
H    -4.423663  2.497635  1.040343
Ba    2.932769  -0.853335  0.390652
