35
Energy: -243352.593804 eV PBE+vdW (tier 2 basis)
C    -3.236009  -1.940976  -1.149137
C    -2.025623  -1.064182  -1.080303
O    -1.322857  -0.853853  -2.108724
H    -4.101232  -1.467543  -0.670498
H    -3.056818  -2.901618  -0.641408
H    -3.473055  -2.147015  -2.196978
N    -1.661951  -0.470337  0.090014
C    -1.599123  -1.166836  1.384705
C    -0.736274  -2.457081  1.181020
O    -0.065033  -2.606488  0.114431
H    -0.915773  0.210511  -0.044803
H    -0.977730  -0.509213  2.014157
C    -2.948761  -1.340016  2.127754
C    -3.718290  -0.010225  2.239042
C    -5.098857  -0.072306  2.931053
C    -5.041113  -0.123697  4.458303
N    -6.429864  0.038004  5.065362
H    -2.723659  -1.723414  3.135495
H    -3.568414  -2.104243  1.638430
H    -3.887751  0.380723  1.226596
H    -3.090234  0.743651  2.740181
H    -5.678661  -0.926663  2.546366
H    -5.646588  0.835202  2.632668
H    -4.438403  0.694510  4.872594
H    -4.653959  -1.072864  4.848332
H    -6.398161  0.009337  6.095852
H    -7.074776  -0.705430  4.758728
H    -6.856320  0.938786  4.799765
N    -0.685448  -3.347372  2.157312
C    0.153479  -4.552857  2.140078
H    -1.235636  -3.176192  2.993368
H    -0.017660  -5.105812  3.067169
H    1.213336  -4.279099  2.077035
H    -0.113507  -5.190124  1.289310
Ba    0.798846  -2.137418  -2.213152
