35
Energy: -243351.921686 eV PBE+vdW (tier 2 basis)
C    1.575010  0.630668  1.158821
C    0.661262  -0.449982  1.652648
O    1.009724  -1.635426  1.777455
H    1.094424  1.610059  1.061330
H    2.430321  0.723040  1.842020
H    1.982838  0.330038  0.184360
N    -0.624572  -0.083316  1.965987
C    -1.579111  -1.046488  2.510088
C    -2.931494  -0.853246  1.816827
O    -3.972207  -0.443401  2.469450
H    -0.859644  0.904653  1.946010
H    -1.193508  -2.026031  2.178295
C    -1.642066  -1.056201  4.048808
C    -0.306910  -1.451113  4.709798
C    0.041536  -2.952679  4.638227
C    1.525930  -3.257789  4.869655
N    2.318783  -3.257284  3.570392
H    -2.430177  -1.758835  4.365351
H    -1.930269  -0.055503  4.406780
H    -0.349620  -1.155365  5.767013
H    0.497360  -0.840275  4.275165
H    -0.268323  -3.399473  3.680145
H    -0.526472  -3.492622  5.408003
H    1.674920  -4.244577  5.321070
H    1.995250  -2.516456  5.527769
H    2.218184  -4.157762  3.084168
H    3.323892  -3.125853  3.743047
H    1.981631  -2.521368  2.895635
N    -3.039458  -1.106419  0.525375
C    -2.013684  -1.585968  -0.409707
H    -3.953648  -0.919103  0.113567
H    -2.512598  -2.168483  -1.190543
H    -1.285973  -2.224580  0.099246
H    -1.495510  -0.736706  -0.872893
Ba    -5.935904  0.196070  3.611428
