35
Energy: -243351.992740 eV PBE+vdW (tier 2 basis)
C    -0.143674  1.578472  -0.037867
C    0.053079  0.553738  1.027206
O    1.252210  0.259659  1.427677
H    -0.974559  1.340091  -0.712888
H    0.773530  1.704658  -0.620169
H    -0.403099  2.544964  0.423738
N    -0.983041  -0.050197  1.595876
C    -2.408571  0.176416  1.268693
C    -2.910473  1.603859  1.669203
O    -3.319668  2.317294  0.761479
H    -0.764516  -0.712369  2.340867
H    -2.479921  0.208762  0.174377
C    -3.296884  -0.982137  1.759191
C    -4.768819  -0.743515  1.373322
C    -5.691543  -1.930920  1.705363
C    -7.127024  -1.623856  1.282422
N    -8.071227  -2.781894  1.579735
H    -3.209475  -1.113045  2.848209
H    -2.935515  -1.912195  1.292857
H    -4.828222  -0.526612  0.295469
H    -5.140534  0.159195  1.881914
H    -5.657627  -2.143606  2.786242
H    -5.335889  -2.835490  1.185894
H    -7.208797  -1.438510  0.204067
H    -7.538895  -0.755926  1.812391
H    -7.791073  -3.640089  1.082946
H    -9.035547  -2.561384  1.288719
H    -8.099022  -3.004292  2.585455
N    -2.862489  2.011379  2.965004
C    -2.575056  1.260222  4.180384
H    -3.239060  2.950249  3.086259
H    -1.670536  0.647356  4.079456
H    -3.411333  0.616720  4.489908
H    -2.387787  1.973431  4.989563
Ba    3.584864  0.182952  1.619825
