35
Energy: -243352.133438 eV PBE+vdW (tier 2 basis)
C    0.839088  0.403553  0.179423
C    0.140584  1.170014  1.259480
O    -0.004516  2.450694  1.143438
H    1.862207  0.786500  0.056111
H    0.308149  0.537715  -0.773688
H    0.902696  -0.669565  0.386875
N    -0.304770  0.503724  2.308451
C    -0.983803  0.991743  3.516612
C    -0.561645  -0.002944  4.622020
O    -0.462834  -1.211014  4.316194
H    -0.119110  -0.504358  2.352932
H    -0.622884  2.006479  3.729189
C    -2.529835  1.017500  3.345856
C    -3.225131  -0.354160  3.233861
C    -3.697872  -0.959025  4.577287
C    -3.795665  -2.484138  4.573382
N    -2.447055  -3.130811  4.883989
H    -2.737665  1.612226  2.445210
H    -2.948840  1.590138  4.186705
H    -2.568438  -1.059904  2.702572
H    -4.104775  -0.241775  2.586778
H    -4.696563  -0.568452  4.814762
H    -3.064278  -0.638516  5.419554
H    -4.116706  -2.868822  3.598055
H    -4.498780  -2.855471  5.326593
H    -2.355081  -4.055794  4.445025
H    -2.341312  -3.274083  5.896154
H    -1.645170  -2.520395  4.583048
N    -0.366862  0.491294  5.845114
C    -0.003552  -0.314533  7.012865
H    -0.465479  1.492998  5.983338
H    0.736974  0.229111  7.608589
H    0.433158  -1.258073  6.673635
H    -0.882612  -0.510088  7.641479
Ba    0.272817  4.562697  0.114027
