35
Energy: -243351.256430 eV PBE+vdW (tier 2 basis)
C    0.399931  0.032485  0.105938
C    0.274446  0.049328  1.601191
O    1.241209  0.187569  2.364808
H    0.969140  0.908265  -0.230289
H    -0.558609  0.004718  -0.423965
H    0.987476  -0.851470  -0.181073
N    -0.987452  -0.088126  2.125805
C    -1.166641  -0.359772  3.549106
C    -2.581840  -0.823497  3.842477
O    -3.616358  -0.334365  3.228960
H    -1.727125  -0.356932  1.486859
H    -0.503287  -1.197825  3.811650
C    -0.771180  0.802021  4.537118
C    -1.010408  2.263273  4.116184
C    0.107466  2.979978  3.324745
C    1.487448  2.992754  4.014956
N    2.572883  2.447451  3.109215
H    0.286922  0.639476  4.771580
H    -1.306203  0.620245  5.480400
H    -1.189036  2.835699  5.037997
H    -1.940981  2.353392  3.534432
H    -0.213984  4.017080  3.164273
H    0.200658  2.545162  2.321854
H    1.512049  2.367063  4.914524
H    1.792261  4.001997  4.311359
H    2.760359  3.081714  2.321969
H    2.267224  1.514702  2.720148
H    3.461635  2.327242  3.613696
N    -2.757366  -1.734026  4.783448
C    -1.741768  -2.444429  5.582249
H    -3.724750  -1.974237  4.993617
H    -1.023335  -2.956225  4.931076
H    -2.259618  -3.196283  6.184223
H    -1.217286  -1.756869  6.255740
Ba    -5.742842  0.362008  2.434855
