35
Energy: -243352.123943 eV PBE+vdW (tier 2 basis)
C    0.288664  0.708555  0.637122
C    -0.229511  0.090192  1.892380
O    0.642343  -0.275238  2.780491
H    1.032420  0.046841  0.179794
H    0.783030  1.654733  0.908329
H    -0.477476  0.922677  -0.106033
N    -1.521255  0.080755  2.252795
C    -2.652310  -0.183981  1.348713
C    -2.273705  -1.517027  0.602518
O    -1.080586  -1.818223  0.502495
H    -1.658353  -0.279168  3.196458
H    -3.507706  -0.356943  2.016913
C    -3.001349  0.970754  0.368150
C    -4.480876  1.094246  -0.053940
C    -5.397909  1.857621  0.924271
C    -6.775386  2.068900  0.294967
N    -7.689942  2.923591  1.163638
H    -2.417307  0.848115  -0.552259
H    -2.674492  1.916112  0.824908
H    -4.908199  0.104244  -0.276635
H    -4.488558  1.627063  -1.015981
H    -4.942806  2.835365  1.151238
H    -5.500074  1.318787  1.880209
H    -7.310620  1.125201  0.131783
H    -6.704742  2.592772  -0.666674
H    -8.608564  3.058531  0.714387
H    -7.292612  3.859991  1.329005
H    -7.861467  2.494441  2.084259
N    -3.287683  -2.227116  0.088836
C    -3.102820  -3.455451  -0.689108
H    -4.238201  -1.953178  0.310324
H    -3.281686  -4.341428  -0.066700
H    -2.077381  -3.480912  -1.066413
H    -3.801150  -3.460960  -1.532645
Ba    2.582027  -1.210970  3.656769
