35
Energy: -243351.949310 eV PBE+vdW (tier 2 basis)
C    -0.677949  1.269674  -1.149177
C    -0.680529  0.777571  0.266025
O    0.148384  -0.146067  0.624024
H    -0.869062  0.430753  -1.833506
H    0.307661  1.691615  -1.393280
H    -1.431813  2.040461  -1.342176
N    -1.548428  1.317401  1.109436
C    -1.763996  1.061296  2.549366
C    -3.308739  1.102246  2.771566
O    -3.849342  2.186184  3.050777
H    -2.127162  2.061586  0.718083
H    -1.357238  0.067841  2.775072
C    -1.090821  2.152315  3.400210
C    -1.368633  1.993818  4.909386
C    -1.370968  3.307384  5.715001
C    -2.354808  4.397026  5.289913
N    -3.791631  3.913077  5.231116
H    -1.461917  3.119957  3.035812
H    -0.009596  2.142011  3.204862
H    -0.614923  1.332611  5.358336
H    -2.326270  1.473126  5.064662
H    -0.375657  3.775554  5.680624
H    -1.537387  3.062007  6.774848
H    -2.141704  4.801629  4.293123
H    -2.323145  5.231703  5.999888
H    -3.911375  3.222128  4.445958
H    -4.080690  3.473591  6.114963
H    -4.435515  4.697077  5.060033
N    -4.009090  -0.029157  2.617479
C    -3.524848  -1.364421  2.274080
H    -5.013331  0.081758  2.755360
H    -4.391315  -2.024971  2.177573
H    -2.879191  -1.775363  3.061785
H    -2.997931  -1.366547  1.310377
Ba    1.969155  -1.629132  0.264566
