35
Energy: -243352.057761 eV PBE+vdW (tier 2 basis)
C    1.152101  1.261999  0.334542
C    0.573557  1.439876  1.706875
O    0.992727  2.303905  2.498319
H    2.246423  1.279654  0.402997
H    0.868377  2.127929  -0.280728
H    0.827939  0.347421  -0.173837
N    -0.469957  0.621675  2.053602
C    -1.080833  0.546589  3.387312
C    -1.886607  1.817758  3.729623
O    -3.140648  1.730657  4.052682
H    -0.797003  -0.044467  1.361749
H    -1.819406  -0.263117  3.325966
C    -0.083706  0.203090  4.531114
C    0.693933  -1.103830  4.301997
C    1.544419  -1.529353  5.519283
C    2.909770  -0.859583  5.687056
N    4.004204  -1.566176  4.889462
H    -0.674495  0.113328  5.456422
H    0.605034  1.045712  4.676875
H    1.318246  -1.013554  3.397989
H    -0.014319  -1.918175  4.089022
H    1.678136  -2.622832  5.513245
H    0.984475  -1.329747  6.444504
H    3.248390  -0.896061  6.728896
H    2.924681  0.187246  5.358929
H    4.915051  -1.097374  5.006619
H    3.799770  -1.592730  3.881215
H    4.121898  -2.540858  5.204360
N    -1.257185  2.964040  3.694232
C    -1.852419  4.264612  3.973096
H    -0.254477  2.888723  3.344489
H    -1.075915  5.029386  3.883339
H    -2.252725  4.299570  4.995730
H    -2.644987  4.498392  3.247498
Ba    -5.418052  1.995522  4.488036
