35
Energy: -243352.871810 eV PBE+vdW (tier 2 basis)
C    0.164711  -2.837011  0.929753
C    -0.059240  -1.922228  2.089238
O    0.909824  -1.383460  2.696545
H    0.729605  -2.298880  0.155452
H    -0.759721  -3.229551  0.493248
H    0.793568  -3.680204  1.247299
N    -1.328623  -1.673312  2.475207
C    -1.700343  -0.757853  3.565249
C    -1.246465  -1.338199  4.936249
O    -0.154858  -0.900401  5.418373
H    -2.071557  -2.166047  1.986911
H    -1.064999  0.133561  3.458599
C    -3.177820  -0.309809  3.502912
C    -3.512180  0.878713  2.571117
C    -3.680077  0.546561  1.077919
C    -4.080073  1.723718  0.184009
N    -5.531131  2.164575  0.359176
H    -3.456010  -0.007424  4.522263
H    -3.829007  -1.163982  3.264847
H    -2.755644  1.669922  2.693041
H    -4.448694  1.304992  2.964895
H    -4.398571  -0.279262  0.941547
H    -2.729879  0.184656  0.656638
H    -3.983578  1.462689  -0.876337
H    -3.471061  2.616693  0.373706
H    -5.753898  2.944765  -0.278311
H    -5.734451  2.491388  1.314118
H    -6.191136  1.402779  0.143211
N    -1.930230  -2.263911  5.595803
C    -3.167173  -2.974013  5.254410
H    -1.518255  -2.505888  6.498390
H    -3.217988  -3.188059  4.182863
H    -4.051330  -2.407585  5.571951
H    -3.161941  -3.930645  5.786194
Ba    2.191199  -0.704398  4.692987
