35
Energy: -243352.009442 eV PBE+vdW (tier 2 basis)
C    -0.037751  -0.829841  0.364811
C    -0.231607  -0.136195  1.677149
O    0.670307  0.555009  2.214252
H    0.236479  -0.084291  -0.394077
H    -0.914195  -1.389520  0.021700
H    0.812902  -1.521248  0.441798
N    -1.440366  -0.261670  2.282570
C    -1.771609  0.214209  3.634862
C    -2.095196  1.719532  3.637406
O    -3.201727  2.155438  4.138924
H    -2.144088  -0.819869  1.808685
H    -2.701644  -0.301411  3.905373
C    -0.698516  -0.102573  4.718790
C    -0.210134  -1.562863  4.719329
C    1.180739  -1.764857  5.363587
C    2.370624  -1.870916  4.412319
N    2.769752  -0.563370  3.740400
H    -1.146370  0.136583  5.694850
H    0.142683  0.588332  4.595401
H    -0.189767  -1.961424  3.694166
H    -0.940823  -2.183215  5.254379
H    1.180859  -2.720961  5.905997
H    1.376748  -1.006207  6.138533
H    2.176933  -2.582281  3.599188
H    3.261582  -2.213736  4.952145
H    3.600369  -0.705733  3.149077
H    2.013089  -0.161685  3.128735
H    3.025824  0.144404  4.441015
N    -1.194810  2.531345  3.129350
C    -1.312548  3.984305  3.025825
H    -0.341297  2.068109  2.769082
H    -0.414016  4.372056  2.538466
H    -1.391229  4.440048  4.021596
H    -2.181249  4.260243  2.413613
Ba    -5.211285  3.094335  4.948034
