35
Energy: -243352.148370 eV PBE+vdW (tier 2 basis)
C    -0.454601  0.434912  -0.327372
C    -0.035626  0.226766  1.090986
O    1.216254  0.387586  1.381731
H    -1.483839  0.136076  -0.529273
H    0.203574  -0.121824  -1.001766
H    -0.352659  1.508952  -0.550554
N    -0.912281  0.156903  2.111837
C    -2.100183  -0.711247  2.092982
C    -1.624343  -2.061505  1.438847
O    -0.519240  -2.096453  0.877468
H    -0.449377  0.188275  3.018776
H    -2.313252  -0.909830  3.154167
C    -3.394563  -0.117331  1.489580
C    -3.872007  1.147946  2.225999
C    -5.364325  1.506042  2.055849
C    -5.751220  2.007636  0.666764
N    -7.205662  2.465387  0.644388
H    -4.164118  -0.899963  1.575638
H    -3.276826  0.062746  0.412319
H    -3.246794  2.009271  1.946343
H    -3.717060  1.008552  3.306297
H    -5.597683  2.290232  2.793391
H    -5.982845  0.633159  2.321206
H    -5.668294  1.238014  -0.110375
H    -5.158117  2.878974  0.361340
H    -7.850312  1.700005  0.891781
H    -7.483307  2.811445  -0.286089
H    -7.370765  3.229185  1.317130
N    -2.453045  -3.104320  1.542352
C    -2.149685  -4.435370  1.008431
H    -3.297917  -3.008042  2.096346
H    -1.647549  -5.054208  1.763252
H    -1.498234  -4.330880  0.136574
H    -3.083802  -4.921388  0.710391
Ba    3.501874  -0.027557  1.342320
