35
Energy: -243352.418920 eV PBE+vdW (tier 2 basis)
C    0.010029  0.135441  -0.489239
C    0.392939  0.278014  0.949472
O    1.574763  0.043207  1.327370
H    0.916395  0.045222  -1.095258
H    -0.575287  0.992994  -0.840250
H    -0.597594  -0.770005  -0.645662
N    -0.521654  0.671041  1.882137
C    -1.873479  0.101188  2.002005
C    -1.720713  -1.456773  2.075394
O    -0.573758  -1.970639  2.252695
H    -0.080266  0.855020  2.782290
H    -2.204248  0.400679  3.009484
C    -2.922618  0.625069  0.987608
C    -2.990114  2.164072  0.867983
C    -3.747652  2.903642  1.995741
C    -5.246900  3.126431  1.779838
N    -5.539965  4.315387  0.867822
H    -3.910119  0.242630  1.292108
H    -2.731004  0.193904  -0.002913
H    -3.439539  2.392953  -0.111033
H    -1.967722  2.561357  0.811280
H    -3.267257  3.873400  2.198484
H    -3.658898  2.356233  2.946195
H    -5.755557  3.356662  2.723342
H    -5.749234  2.264768  1.321930
H    -5.124870  4.209835  -0.068789
H    -5.176725  5.193709  1.267976
H    -6.555591  4.441286  0.736889
N    -2.806259  -2.206973  1.991279
C    -2.819055  -3.669879  2.124867
H    -3.699558  -1.747845  1.841319
H    -2.449052  -3.965043  3.113777
H    -2.198614  -4.129112  1.346587
H    -3.848867  -4.017609  2.010074
Ba    1.937979  -2.149847  2.435902
