35
Energy: -243353.092785 eV PBE+vdW (tier 2 basis)
C    -1.085900  0.955429  -0.017985
C    -0.872258  0.444603  1.372743
O    0.153669  -0.239265  1.654257
H    -1.065000  0.105940  -0.714614
H    -0.248935  1.610670  -0.296636
H    -2.022478  1.506981  -0.150880
N    -1.807930  0.746233  2.294546
C    -1.910117  0.338668  3.713382
C    -0.732718  0.854487  4.572668
O    0.436155  0.380748  4.462672
H    -2.564308  1.336213  1.959381
H    -2.806382  0.865243  4.069847
C    -2.156499  -1.176805  3.922890
C    -3.616331  -1.606832  3.665656
C    -3.845541  -3.092254  4.012858
C    -5.292120  -3.540968  4.220815
N    -6.094829  -3.704680  2.931943
H    -1.901292  -1.412329  4.967475
H    -1.463878  -1.754213  3.294408
H    -3.886610  -1.399936  2.617317
H    -4.278531  -0.987173  4.292319
H    -3.357375  -3.309948  4.975731
H    -3.346465  -3.751516  3.284215
H    -5.862188  -2.839022  4.842566
H    -5.323750  -4.524953  4.703546
H    -7.049677  -4.036296  3.139365
H    -5.665504  -4.399427  2.303548
H    -6.189393  -2.823995  2.408600
N    -1.021485  1.789612  5.467295
C    -0.066531  2.370890  6.415381
H    -1.970809  2.152788  5.495699
H    0.416689  3.254943  5.979082
H    0.691213  1.627056  6.676297
H    -0.608208  2.672153  7.317179
Ba    2.184318  -0.496046  2.985430
