35
Energy: -243352.824964 eV PBE+vdW (tier 2 basis)
C    -3.347150  -1.008954  0.062203
C    -2.529220  -1.135161  1.305336
O    -2.053787  -2.250244  1.668368
H    -2.757579  -1.373214  -0.790818
H    -3.680936  0.013567  -0.142872
H    -4.227517  -1.662198  0.137803
N    -2.303955  -0.027522  2.039922
C    -1.470476  0.023222  3.251380
C    -2.116730  -0.813020  4.392896
O    -1.657563  -1.982934  4.588330
H    -2.730491  0.838551  1.719873
H    -0.547013  -0.533504  3.033236
C    -1.120155  1.478387  3.628422
C    -0.062143  2.205836  2.766619
C    1.407574  1.797239  3.023423
C    2.421121  2.942444  3.040432
N    2.635699  3.611685  1.684979
H    -0.786626  1.483403  4.676921
H    -2.036642  2.083129  3.610613
H    -0.185492  3.273611  3.007091
H    -0.310538  2.111222  1.697996
H    1.741083  1.014364  2.324851
H    1.498943  1.351988  4.026552
H    3.411144  2.587593  3.350862
H    2.116425  3.746135  3.722947
H    3.331707  4.369743  1.761259
H    1.772965  4.033452  1.313690
H    2.989693  2.948175  0.980807
N    -3.118442  -0.370220  5.142001
C    -3.884198  0.881148  5.099596
H    -3.393056  -1.025914  5.874933
H    -4.859873  0.689712  5.557086
H    -4.056548  1.205797  4.069251
H    -3.385937  1.673145  5.671919
Ba    -1.511618  -4.050976  3.251214
