35
Energy: -243351.702212 eV PBE+vdW (tier 2 basis)
C    -0.510084  -0.804880  0.058920
C    -0.336457  -0.348718  1.478796
O    0.755026  -0.387705  2.064415
H    0.289007  -0.374062  -0.556755
H    -1.482071  -0.553943  -0.379753
H    -0.386292  -1.897022  0.023419
N    -1.464042  0.136764  2.095506
C    -1.697445  0.441623  3.510567
C    -1.923104  1.936808  3.799350
O    -2.845242  2.239469  4.663785
H    -2.306911  0.095912  1.529792
H    -2.687510  0.010902  3.722468
C    -0.747397  -0.232484  4.548583
C    0.593556  0.437611  4.889196
C    1.598957  -0.499148  5.590067
C    2.100483  -1.722876  4.822071
N    2.842214  -1.373763  3.545406
H    -0.603797  -1.255080  4.176019
H    -1.330388  -0.343439  5.475107
H    0.423017  1.287855  5.566616
H    1.053758  0.853012  3.986439
H    1.161470  -0.896229  6.519096
H    2.464283  0.098372  5.916089
H    1.293920  -2.401156  4.518286
H    2.795216  -2.294562  5.448490
H    3.289086  -2.209017  3.144054
H    3.588829  -0.687150  3.715468
H    2.175037  -0.988824  2.831973
N    -1.257645  2.913928  3.219208
C    -0.168796  2.888821  2.232660
H    -1.561076  3.849541  3.491050
H    -0.578848  2.980599  1.218954
H    0.419997  1.974276  2.316027
H    0.477464  3.750208  2.431354
Ba    -4.640807  2.836783  6.078423
