35
Energy: -243351.567533 eV PBE+vdW (tier 2 basis)
C    -0.054315  0.073361  -0.075714
C    -0.131664  -0.088131  1.416866
O    0.813901  -0.422036  2.124294
H    0.128519  -0.913002  -0.524829
H    -0.955383  0.504219  -0.526501
H    0.813765  0.693214  -0.330403
N    -1.372486  0.161125  1.997517
C    -1.550328  -0.016348  3.431614
C    -2.778600  -0.894637  3.664627
O    -3.864395  -0.434609  4.211227
H    -2.131211  0.514020  1.423054
H    -0.672415  -0.626545  3.717393
C    -1.483761  1.268025  4.282810
C    -0.039558  1.799629  4.472386
C    0.507342  2.686320  3.332321
C    2.018113  2.630376  3.128878
N    2.812879  3.248774  4.277919
H    -1.878209  1.028208  5.281820
H    -2.133174  2.050084  3.859408
H    0.622643  0.931172  4.614434
H    -0.018446  2.364544  5.415759
H    0.176588  3.729291  3.459504
H    0.091685  2.372490  2.366325
H    2.319339  3.190271  2.235664
H    2.373047  1.596405  3.029737
H    3.825449  3.203797  4.089071
H    2.650321  2.762774  5.170372
H    2.573535  4.241589  4.414538
N    -2.741858  -2.161435  3.291264
C    -1.643675  -2.908491  2.664391
H    -3.606453  -2.685374  3.421966
H    -1.735743  -3.957937  2.960708
H    -0.670340  -2.529660  2.989802
H    -1.714398  -2.836604  1.571523
Ba    -5.867688  0.166604  5.269767
