35
Energy: -243352.859767 eV PBE+vdW (tier 2 basis)
C    -1.025190  2.113404  1.894399
C    -1.250508  0.655423  1.641301
O    -0.512061  0.020495  0.836292
H    -1.075652  2.650870  0.937114
H    -0.008762  2.262190  2.284258
H    -1.739009  2.559572  2.594852
N    -2.267162  0.061463  2.300409
C    -2.761005  -1.330907  2.211643
C    -1.694638  -2.343537  2.684944
O    -0.698782  -2.633152  1.953970
H    -2.756937  0.658070  2.960986
H    -3.579233  -1.366466  2.940740
C    -3.343817  -1.729808  0.826553
C    -4.867152  -1.528460  0.661464
C    -5.350327  -0.077541  0.495331
C    -6.868662  0.114141  0.452316
N    -7.526306  -0.404384  -0.823977
H    -3.142713  -2.799653  0.676996
H    -2.795858  -1.203298  0.032606
H    -5.384230  -1.995200  1.515895
H    -5.157156  -2.123263  -0.219647
H    -4.888620  0.388037  -0.390973
H    -5.023353  0.536842  1.348216
H    -7.130174  1.177766  0.500577
H    -7.375789  -0.400235  1.278556
H    -7.152565  0.061423  -1.663867
H    -8.542105  -0.223706  -0.806855
H    -7.404935  -1.419036  -0.948609
N    -1.849059  -2.937633  3.860769
C    -2.900293  -2.760694  4.872849
H    -1.127612  -3.627170  4.076635
H    -3.863471  -3.149312  4.519534
H    -2.994042  -1.710309  5.171547
H    -2.610067  -3.334170  5.757861
Ba    1.029201  -1.836682  0.411683
