35
Energy: -243351.751196 eV PBE+vdW (tier 2 basis)
C    -0.022215  -0.870138  0.159985
C    -0.112643  -1.356062  1.575787
O    0.841542  -1.860556  2.185457
H    0.678341  -0.024380  0.114153
H    -0.981214  -0.550203  -0.261826
H    0.405401  -1.664924  -0.464497
N    -1.332011  -1.230719  2.209152
C    -1.382030  -1.522458  3.641184
C    -2.817088  -1.823280  4.069307
O    -3.542678  -2.637279  3.380144
H    -2.003046  -0.580122  1.808671
H    -0.874849  -2.500683  3.740427
C    -0.553576  -0.519836  4.498530
C    0.450158  -1.213972  5.439407
C    1.717173  -0.402409  5.764026
C    2.619327  -0.006992  4.594814
N    3.081521  -1.191383  3.760753
H    -1.178836  0.202486  5.047239
H    -0.018696  0.109820  3.777759
H    0.739841  -2.177571  4.990792
H    -0.028189  -1.475050  6.394203
H    2.310123  -0.965633  6.500693
H    1.453082  0.538903  6.269440
H    3.521548  0.488746  4.971476
H    2.136797  0.679387  3.888250
H    2.302792  -1.558328  3.161894
H    3.440641  -1.953531  4.351170
H    3.847668  -0.914478  3.132266
N    -3.282395  -1.298966  5.183843
C    -4.594724  -1.564644  5.774873
H    -2.670122  -0.651356  5.675874
H    -4.683326  -0.986586  6.698708
H    -4.696495  -2.629440  6.021314
H    -5.394617  -1.251375  5.092068
Ba    -4.883024  -4.209585  2.246854
