35
Energy: -243351.519951 eV PBE+vdW (tier 2 basis)
C    -1.039627  0.538449  -0.132258
C    -0.791254  0.857646  1.317403
O    0.229412  1.409923  1.724672
H    -0.446410  -0.346747  -0.404595
H    -0.678941  1.369610  -0.748083
H    -2.089044  0.332714  -0.372931
N    -1.806444  0.487786  2.186582
C    -1.762762  0.427794  3.644776
C    -2.632594  1.497745  4.331333
O    -3.355928  1.118242  5.346834
H    -2.591354  0.003463  1.761791
H    -2.293233  -0.500921  3.902103
C    -0.351539  0.265955  4.302280
C    0.459440  1.520311  4.674353
C    1.968299  1.248488  4.870009
C    2.732800  1.158818  3.548873
N    4.229739  1.000948  3.793189
H    0.205978  -0.378277  3.610726
H    -0.499107  -0.334429  5.212489
H    0.076582  1.940458  5.615659
H    0.351502  2.292934  3.906397
H    2.116588  0.328045  5.458489
H    2.386474  2.073328  5.467656
H    2.616622  2.064842  2.943208
H    2.434788  0.306749  2.928212
H    4.612883  1.793819  4.328724
H    4.750807  0.952824  2.905215
H    4.445991  0.143645  4.321989
N    -2.713246  2.752560  3.942969
C    -2.045530  3.470886  2.848818
H    -3.372314  3.316779  4.480092
H    -2.711019  3.515427  1.977130
H    -1.104898  2.990305  2.571791
H    -1.846327  4.490875  3.194441
Ba    -4.871701  0.407453  6.989809
