35
Energy: -243351.382446 eV PBE+vdW (tier 2 basis)
C    1.183201  1.579453  0.979132
C    1.010383  0.590267  2.094395
O    1.934574  0.258970  2.848270
H    1.643558  2.494359  1.373826
H    0.254904  1.840919  0.459310
H    1.894142  1.162158  0.251714
N    -0.255620  0.069238  2.254561
C    -0.564369  -1.099662  3.087894
C    -2.061526  -1.420681  3.074562
O    -2.397719  -2.669591  2.973109
H    -0.883672  0.247594  1.475222
H    -0.108432  -1.989657  2.621394
C    -0.016780  -1.113475  4.557514
C    -0.357400  0.014649  5.548791
C    0.306003  1.402029  5.407781
C    1.693736  1.619749  6.015470
N    2.831088  0.898363  5.305083
H    1.063930  -1.256314  4.461543
H    -0.397495  -2.053480  4.987872
H    -0.126808  -0.377737  6.552020
H    -1.446442  0.164376  5.572275
H    -0.325744  2.116578  5.956675
H    0.300057  1.758454  4.369415
H    1.731558  1.317051  7.069152
H    1.940500  2.686615  5.969351
H    3.714211  1.414031  5.410618
H    2.623392  0.774192  4.276848
H    2.991612  -0.037868  5.693563
N    -3.022647  -0.521321  3.179060
C    -2.989206  0.938155  3.356702
H    -3.964847  -0.914257  3.147245
H    -3.540061  1.191939  4.270512
H    -3.490257  1.413847  2.503980
H    -1.963789  1.297622  3.429273
Ba    -2.994497  -4.939160  2.647342
