35
Energy: -243351.928112 eV PBE+vdW (tier 2 basis)
C    -0.639948  -1.587505  0.418122
C    -0.673946  -0.732069  1.647886
O    0.281908  -0.820606  2.514262
H    -0.625357  -2.648400  0.706405
H    0.272967  -1.375625  -0.156659
H    -1.499648  -1.430390  -0.241685
N    -1.698296  0.089032  1.800910
C    -2.011262  1.049454  2.876340
C    -3.552825  1.019208  2.965409
O    -4.180476  1.275826  1.915923
H    -2.397369  0.096971  1.052965
H    -1.523743  0.713645  3.797985
C    -1.526890  2.462558  2.465202
C    -1.916727  3.636215  3.384429
C    -3.354119  4.199446  3.317996
C    -3.818682  4.687984  1.931812
N    -4.989151  3.876512  1.407961
H    -1.873861  2.643334  1.436472
H    -0.430117  2.419598  2.405503
H    -1.225945  4.458354  3.147248
H    -1.702452  3.382244  4.433854
H    -3.394055  5.049267  4.011266
H    -4.081694  3.480656  3.722441
H    -3.031155  4.609859  1.172758
H    -4.148028  5.732191  1.954182
H    -5.201474  4.107228  0.428083
H    -4.783021  2.845433  1.483902
H    -5.842638  4.067772  1.949146
N    -4.153180  0.738566  4.124999
C    -3.549806  0.408934  5.419689
H    -5.171011  0.705029  4.068716
H    -3.085805  -0.585940  5.406111
H    -4.345558  0.396881  6.170123
H    -2.818598  1.166381  5.725017
Ba    2.337737  -1.694735  3.309355
