35
Energy: -243352.000182 eV PBE+vdW (tier 2 basis)
C    0.035794  0.063517  -0.052928
C    -0.032010  -0.138100  1.420436
O    1.079434  -0.204251  2.092678
H    0.430179  1.071035  -0.254849
H    0.747156  -0.658397  -0.476427
H    -0.927227  -0.078909  -0.553394
N    -1.166573  -0.249867  2.102672
C    -2.602734  -0.202063  1.681405
C    -2.933742  -1.359192  0.693858
O    -2.692111  -1.231848  -0.504824
H    -1.026729  -0.382878  3.103622
H    -3.140496  -0.367705  2.625285
C    -2.986732  1.177787  1.112281
C    -4.438592  1.334989  0.615706
C    -5.538847  1.195823  1.683793
C    -6.856223  1.891712  1.347681
N    -7.563580  1.304356  0.128275
H    -2.335389  1.400170  0.258188
H    -2.776780  1.934829  1.883014
H    -4.601072  0.630457  -0.214915
H    -4.490665  2.344884  0.178746
H    -5.213673  1.670105  2.623476
H    -5.729932  0.139413  1.933102
H    -6.708360  2.954911  1.119335
H    -7.574446  1.812749  2.172295
H    -8.449492  1.799184  -0.054544
H    -7.793641  0.309614  0.263013
H    -6.991699  1.379994  -0.724557
N    -3.505330  -2.447675  1.255035
C    -3.861776  -3.643547  0.491603
H    -3.645567  -2.470315  2.259737
H    -3.195356  -4.478048  0.744111
H    -3.761733  -3.415651  -0.573249
H    -4.894425  -3.937288  0.711738
Ba    3.333976  -0.289837  2.714622
