35
Energy: -243351.543654 eV PBE+vdW (tier 2 basis)
C    0.697653  -0.496182  0.283145
C    0.429866  -0.336893  1.751911
O    1.329576  -0.174578  2.586477
H    1.180928  0.413081  -0.100280
H    -0.198906  -0.689251  -0.316420
H    1.412260  -1.316972  0.139833
N    -0.891203  -0.373827  2.144339
C    -1.282078  -0.098038  3.514165
C    -2.276605  -1.129824  4.038355
O    -3.069692  -1.781105  3.249294
H    -1.587419  -0.283497  1.411917
H    -0.352241  -0.225062  4.089633
C    -1.831316  1.357610  3.751139
C    -0.843865  2.367702  4.365965
C    0.413031  2.720254  3.527519
C    1.721051  2.386721  4.257207
N    2.831648  2.057940  3.281401
H    -2.712382  1.316868  4.408433
H    -2.204026  1.729367  2.784834
H    -0.537726  2.011301  5.361363
H    -1.416350  3.283990  4.559512
H    0.401103  3.787974  3.274003
H    0.386688  2.185574  2.569630
H    1.622793  1.491710  4.881620
H    2.066975  3.211724  4.890618
H    3.724470  1.887906  3.764454
H    2.991262  2.816096  2.604697
H    2.555020  1.184665  2.772909
N    -2.353565  -1.338774  5.341292
C    -1.567324  -0.725383  6.419425
H    -3.081993  -1.982972  5.645536
H    -1.976553  0.256178  6.689201
H    -0.517768  -0.625778  6.124826
H    -1.620323  -1.381587  7.293128
Ba    -4.541595  -3.239218  2.103491
