35
Energy: -243351.063572 eV PBE+vdW (tier 2 basis)
C    0.023730  -0.001814  3.678557
C    -0.528926  -1.284300  3.090431
O    -0.267434  -2.388389  3.519432
H    -0.776421  0.593727  4.146232
H    0.528185  0.616108  2.921852
H    0.745534  -0.270979  4.454602
N    -1.375860  -1.177722  1.976680
C    -1.961639  0.007873  1.401037
C    -3.093234  0.588561  2.281749
O    -3.073887  1.853652  2.577940
H    -1.705856  -2.088968  1.666417
H    -1.203376  0.805757  1.382436
C    -2.439184  -0.239386  -0.055918
C    -1.340565  -0.804187  -0.981749
C    -1.895264  -1.130030  -2.383233
C    -1.071703  -2.090661  -3.238859
N    0.212775  -1.483969  -3.799278
H    -2.829382  0.705846  -0.461495
H    -3.288912  -0.939150  -0.049723
H    -0.507960  -0.084191  -1.039928
H    -0.924563  -1.718961  -0.533835
H    -2.113301  -0.210098  -2.949413
H    -2.868567  -1.634329  -2.276151
H    -1.643421  -2.415650  -4.116283
H    -0.762246  -2.984278  -2.682036
H    0.712431  -2.168273  -4.387717
H    0.864244  -1.189876  -3.059144
H    0.016858  -0.663378  -4.390813
N    -4.049901  -0.161473  2.796614
C    -4.295401  -1.608261  2.683828
H    -4.701520  0.334931  3.403113
H    -4.187617  -1.951164  1.651676
H    -5.327379  -1.792798  2.996608
H    -3.616368  -2.165914  3.341183
Ba    -3.003285  4.039671  3.431752
