35
Energy: -243351.722620 eV PBE+vdW (tier 2 basis)
C    -0.017032  -1.178541  0.699628
C    -0.148930  -0.640547  2.091881
O    0.786809  -0.601910  2.905115
H    0.377796  -2.201997  0.753171
H    0.723899  -0.582768  0.149402
H    -0.955772  -1.185045  0.135400
N    -1.388740  -0.182767  2.473901
C    -1.557704  0.429984  3.790479
C    -2.946107  0.076460  4.328581
O    -3.858600  0.975983  4.514316
H    -2.115451  -0.102815  1.769280
H    -0.842422  -0.118822  4.426391
C    -1.162070  1.923083  3.849876
C    -0.341308  2.325456  5.091960
C    1.026424  1.630511  5.254283
C    2.061931  2.006621  4.183982
N    2.954145  0.827481  3.856931
H    -2.057808  2.558234  3.781272
H    -0.596508  2.137498  2.933657
H    -0.920173  2.125232  6.007288
H    -0.196629  3.415749  5.069146
H    0.888147  0.539349  5.248924
H    1.424965  1.877972  6.247130
H    2.707171  2.832353  4.504031
H    1.600535  2.288463  3.230485
H    3.697552  1.085653  3.193901
H    2.360862  0.079116  3.424535
H    3.414970  0.448422  4.695209
N    -3.219700  -1.184964  4.610843
C    -2.354408  -2.365420  4.490260
H    -4.169783  -1.370808  4.931235
H    -2.674212  -3.097722  5.238050
H    -1.307967  -2.104659  4.674139
H    -2.449896  -2.807221  3.490508
Ba    -5.594135  2.528000  4.916161
