35
Energy: -243352.601936 eV PBE+vdW (tier 2 basis)
C    -1.146862  -0.981561  0.630354
C    -0.072962  -0.090798  1.159688
O    1.119592  -0.191408  0.751188
H    -1.459601  -0.654514  -0.373603
H    -2.026968  -1.033627  1.278347
H    -0.725220  -1.988338  0.511057
N    -0.359169  0.849517  2.100196
C    -1.510509  1.745286  2.002742
C    -1.274523  2.641827  0.742831
O    -0.145474  2.643658  0.165565
H    0.479106  1.297287  2.473633
H    -2.411899  1.138289  1.828598
C    -1.655928  2.529540  3.336376
C    -3.056477  3.061564  3.695503
C    -3.031918  3.749171  5.077130
C    -4.327544  4.408410  5.552218
N    -5.328560  3.432750  6.167434
H    -0.932396  3.360141  3.349962
H    -1.341886  1.829489  4.124837
H    -3.774501  2.224586  3.680786
H    -3.403523  3.796146  2.951194
H    -2.289597  4.561304  5.053643
H    -2.663529  3.052257  5.848121
H    -4.863525  4.925600  4.746465
H    -4.120070  5.138318  6.343477
H    -6.169183  3.931902  6.497307
H    -4.927951  2.947689  6.984111
H    -5.645882  2.713740  5.503414
N    -2.282428  3.378970  0.301464
C    -2.214003  4.278666  -0.857010
H    -3.183142  3.281367  0.760861
H    -3.105728  4.911076  -0.859124
H    -2.185809  3.703721  -1.791279
H    -1.323922  4.912421  -0.787845
Ba    2.045844  1.635597  -0.635104
