35
Energy: -243351.755121 eV PBE+vdW (tier 2 basis)
C    -0.321996  -0.641305  -0.127668
C    -0.206211  -0.789429  1.367627
O    0.587195  -1.552922  1.910014
H    0.685407  -0.603420  -0.557535
H    -0.889699  0.238536  -0.451550
H    -0.810256  -1.537201  -0.536642
N    -1.081437  0.004912  2.102790
C    -1.331450  -0.008331  3.541063
C    -0.739232  1.232969  4.244588
O    -1.547034  1.988036  4.935315
H    -1.722725  0.569834  1.555633
H    -2.417384  0.127522  3.661857
C    -0.947703  -1.303577  4.309187
C    -1.643006  -2.571526  3.770406
C    -0.807833  -3.834464  4.052745
C    -1.463608  -5.082987  3.469773
N    -0.601819  -6.320713  3.687981
H    -1.227019  -1.145459  5.362343
H    0.137219  -1.440684  4.281799
H    -1.786409  -2.484531  2.685118
H    -2.645575  -2.668042  4.213229
H    -0.666782  -3.959285  5.138646
H    0.186946  -3.693841  3.600709
H    -1.604919  -5.004898  2.384497
H    -2.433970  -5.305405  3.930863
H    -1.043108  -7.162441  3.288598
H    -0.443908  -6.504047  4.689511
H    0.323423  -6.219992  3.245306
N    0.529440  1.574279  4.179518
C    1.662479  0.941338  3.493662
H    0.762056  2.435776  4.674600
H    1.416228  -0.068935  3.156101
H    1.947142  1.555114  2.629135
H    2.505580  0.904848  4.193034
Ba    -2.926241  3.478281  6.096941
