35
Energy: -243352.047232 eV PBE+vdW (tier 2 basis)
C    0.221779  -0.218022  0.206465
C    -0.142230  -0.698246  1.568371
O    0.790481  -1.141552  2.352356
H    0.818542  0.701428  0.302787
H    -0.644146  -0.021393  -0.431184
H    0.856694  -0.969427  -0.281249
N    -1.389189  -0.692153  2.025421
C    -2.662065  -0.156604  1.445063
C    -3.073782  -0.905561  0.142805
O    -2.813651  -0.417043  -0.972546
H    -1.479231  -1.039356  2.980012
H    -3.404902  -0.400164  2.218296
C    -2.633752  1.372345  1.270594
C    -4.017455  2.053493  1.258366
C    -4.936302  1.845261  0.039593
C    -4.397490  2.435904  -1.277732
N    -4.366495  1.397423  -2.380739
H    -2.061451  1.620448  0.365413
H    -2.074786  1.789207  2.120111
H    -3.843448  3.132691  1.380739
H    -4.575845  1.753578  2.158037
H    -5.900772  2.316257  0.268125
H    -5.169201  0.777318  -0.093854
H    -3.365762  2.794129  -1.183266
H    -5.008215  3.270337  -1.638773
H    -5.312764  1.069213  -2.614171
H    -3.794179  0.579966  -2.053586
H    -3.955555  1.773144  -3.245731
N    -3.715701  -2.067025  0.317509
C    -4.181065  -2.922520  -0.775830
H    -3.945875  -2.357818  1.263430
H    -4.037539  -3.972288  -0.499415
H    -3.602586  -2.699448  -1.676422
H    -5.248357  -2.755551  -0.972902
Ba    2.780218  -1.797877  3.434525
