35
Energy: -243352.145244 eV PBE+vdW (tier 2 basis)
C    -0.499357  0.399508  -0.055530
C    0.058241  0.133199  1.300445
O    1.321743  0.369701  1.489114
H    -0.353885  1.467684  -0.279000
H    -1.556647  0.157588  -0.150365
H    0.051666  -0.188182  -0.798588
N    -0.671314  -0.183684  2.370518
C    -1.914629  -0.971475  2.424053
C    -1.591863  -2.334548  1.717010
O    -0.755386  -2.353710  0.813631
H    -0.122155  -0.228891  3.227863
H    -2.076253  -1.137960  3.498663
C    -3.188109  -0.270627  1.872123
C    -4.465959  -0.758905  2.581392
C    -5.751848  0.049178  2.300289
C    -6.381512  -0.217159  0.934602
N    -7.746051  0.454986  0.826804
H    -3.266964  -0.428676  0.787530
H    -3.071089  0.810492  2.039582
H    -4.303580  -0.708858  3.668396
H    -4.651952  -1.818308  2.346735
H    -5.551307  1.125909  2.420116
H    -6.479466  -0.222226  3.081517
H    -6.561748  -1.286373  0.765470
H    -5.788385  0.172273  0.098408
H    -8.186085  0.279131  -0.088689
H    -7.680336  1.476641  0.945455
H    -8.394487  0.107385  1.549369
N    -2.292476  -3.398895  2.143662
C    -2.129274  -4.738607  1.573164
H    -2.853962  -3.312089  2.984212
H    -1.360799  -5.305299  2.114964
H    -1.830087  -4.645528  0.525522
H    -3.080628  -5.276080  1.636859
Ba    3.629889  0.530540  1.256423
