35
Energy: -243351.943287 eV PBE+vdW (tier 2 basis)
C    0.663836  -0.038485  0.855418
C    0.162983  -0.313036  2.237528
O    0.992463  -0.653868  3.169799
H    1.690309  -0.398372  0.746429
H    0.661848  1.044739  0.658054
H    0.043692  -0.514963  0.086293
N    -1.126692  -0.197650  2.530403
C    -2.235627  0.157429  1.611204
C    -3.193332  1.185833  2.287724
O    -4.370412  0.879988  2.533411
H    -1.384823  -0.421264  3.492249
H    -1.782594  0.662534  0.748007
C    -3.006768  -1.074100  1.106809
C    -3.543749  -2.049845  2.178586
C    -4.850482  -2.771177  1.771095
C    -6.143506  -2.183364  2.330289
N    -6.445604  -0.784392  1.827243
H    -2.363165  -1.622475  0.404024
H    -3.822393  -0.673401  0.488737
H    -3.712128  -1.530447  3.133817
H    -2.778042  -2.811946  2.375618
H    -4.828776  -3.804311  2.144583
H    -4.915841  -2.867696  0.675670
H    -6.107626  -2.106313  3.424387
H    -7.002720  -2.809779  2.062699
H    -6.603630  -0.778252  0.811550
H    -5.654581  -0.121961  2.052943
H    -7.301440  -0.416975  2.264109
N    -2.714629  2.408925  2.571428
C    -1.426872  2.998658  2.216604
H    -3.406816  3.026795  2.994159
H    -1.184734  2.830082  1.158836
H    -0.612958  2.624322  2.852656
H    -1.495018  4.080394  2.364330
Ba    2.904369  -1.253387  4.433466
