35
Energy: -243351.905319 eV PBE+vdW (tier 2 basis)
C    0.573349  -0.794346  0.098888
C    0.143925  -0.325383  1.454920
O    0.887393  0.392413  2.174204
H    1.506103  -1.367815  0.190317
H    0.804909  0.081639  -0.522505
H    -0.167205  -1.415665  -0.415199
N    -1.097616  -0.682920  1.867403
C    -1.732482  -0.498549  3.184776
C    -1.949046  0.962477  3.609373
O    -3.061670  1.262694  4.200685
H    -1.638594  -1.235296  1.208172
H    -2.760399  -0.848962  3.026391
C    -1.171209  -1.422770  4.324188
C    0.342708  -1.655484  4.459383
C    1.152511  -0.535453  5.130378
C    2.668315  -0.680857  5.026783
N    3.161550  -0.590979  3.579198
H    -1.632896  -2.404150  4.150881
H    -1.587183  -1.064611  5.279377
H    0.744170  -1.911004  3.467350
H    0.461408  -2.573770  5.053522
H    0.925246  -0.514628  6.206817
H    0.872961  0.452896  4.742674
H    3.028235  -1.637182  5.424476
H    3.171384  0.122563  5.575471
H    2.462630  -0.103741  2.965974
H    4.058677  -0.091906  3.523166
H    3.321062  -1.523425  3.179220
N    -1.030012  1.864724  3.372998
C    -1.130717  3.285038  3.697567
H    -0.162083  1.490636  2.921298
H    -1.991506  3.739109  3.189110
H    -1.214592  3.434548  4.782191
H    -0.225275  3.786641  3.345421
Ba    -5.127508  1.949442  5.099670
