35
Energy: -243351.947203 eV PBE+vdW (tier 2 basis)
C    0.652571  0.390542  2.703802
C    -0.332736  -0.724316  2.569176
O    -0.031594  -1.912463  2.982469
H    0.178858  1.345402  2.960072
H    1.181935  0.534700  1.747760
H    1.396765  0.147780  3.467663
N    -1.517933  -0.512770  2.009805
C    -1.976261  0.733504  1.353568
C    -2.484192  1.862137  2.284130
O    -2.217814  3.024818  1.933561
H    -2.134286  -1.323487  1.944804
H    -1.098826  1.180264  0.869919
C    -2.998042  0.398353  0.240377
C    -3.336293  1.603903  -0.662193
C    -4.557237  2.450264  -0.234337
C    -4.487949  3.898740  -0.712469
N    -3.588520  4.743449  0.192022
H    -3.917074  -0.027882  0.673084
H    -2.545318  -0.388858  -0.379702
H    -3.523851  1.225804  -1.675407
H    -2.437636  2.233919  -0.752794
H    -4.714381  2.435174  0.855277
H    -5.470052  2.012346  -0.660526
H    -5.471747  4.379665  -0.713972
H    -4.078818  3.969997  -1.727168
H    -3.052705  5.440318  -0.339889
H    -2.925428  4.145650  0.745700
H    -4.149015  5.262936  0.878695
N    -3.210359  1.601906  3.385837
C    -3.738472  0.337200  3.893116
H    -3.454855  2.441226  3.909794
H    -4.568119  0.563036  4.570329
H    -2.986208  -0.226930  4.460771
H    -4.145085  -0.283179  3.085756
Ba    1.068679  -3.873548  3.715682
