35
Energy: -243352.585798 eV PBE+vdW (tier 2 basis)
C    -0.127662  1.427375  -0.310450
C    -0.364932  0.454239  0.798064
O    0.565223  -0.281273  1.230894
H    0.602606  0.994850  -1.005072
H    -1.039341  1.694071  -0.854411
H    0.322050  2.352321  0.085113
N    -1.601804  0.354256  1.364650
C    -2.360971  1.540346  1.770936
C    -1.511944  2.291760  2.845654
O    -0.487951  1.721679  3.346622
H    -1.645879  -0.398793  2.053017
H    -2.462504  2.208464  0.902677
C    -3.766505  1.158101  2.294314
C    -4.894148  1.024382  1.248970
C    -4.993842  -0.306650  0.474731
C    -6.284832  -0.318356  -0.348340
N    -6.521298  -1.641887  -1.063906
H    -4.082964  1.931042  3.005588
H    -3.683233  0.240294  2.898770
H    -4.836065  1.864336  0.538491
H    -5.837253  1.168460  1.796828
H    -5.006551  -1.144010  1.191452
H    -4.121571  -0.450187  -0.181940
H    -6.285676  0.451100  -1.130522
H    -7.167690  -0.162336  0.284546
H    -7.402788  -1.618620  -1.599790
H    -6.591436  -2.428854  -0.402116
H    -5.767894  -1.863992  -1.730398
N    -1.843007  3.518931  3.215506
C    -2.929261  4.381478  2.739625
H    -1.252565  3.914508  3.948902
H    -2.548189  5.405438  2.659591
H    -3.766758  4.375291  3.449427
H    -3.280325  4.067143  1.752876
Ba    1.559614  0.287254  3.449854
