35
Energy: -243353.003618 eV PBE+vdW (tier 2 basis)
C    -0.811340  1.042847  0.188829
C    -0.763192  0.467627  1.569485
O    0.142997  -0.353757  1.892234
H    0.137920  1.551001  -0.028782
H    -1.634530  1.746816  0.028161
H    -0.898690  0.218444  -0.533208
N    -1.715149  0.860941  2.438579
C    -1.995624  0.404775  3.819116
C    -0.835575  0.708925  4.795263
O    0.259545  0.075920  4.751288
H    -2.368300  1.548056  2.072495
H    -2.840795  1.034340  4.131158
C    -2.462834  -1.068024  3.911816
C    -3.800993  -1.329070  3.192836
C    -4.262710  -2.804711  3.248852
C    -5.125441  -3.225775  4.441250
N    -6.611016  -2.949002  4.218207
H    -2.541144  -1.318925  4.981323
H    -1.687328  -1.725511  3.493482
H    -3.700854  -1.047520  2.135522
H    -4.576778  -0.660474  3.604439
H    -3.382693  -3.464185  3.256477
H    -4.787561  -3.066031  2.316824
H    -4.858089  -2.712874  5.373637
H    -5.061474  -4.305879  4.617206
H    -6.969948  -3.474665  3.406738
H    -6.808985  -1.952979  4.049049
H    -7.171200  -3.237328  5.035074
N    -1.064127  1.643245  5.708844
C    -0.120305  2.051065  6.753623
H    -1.950322  2.140797  5.675357
H    -0.686533  2.348988  7.641692
H    0.481350  2.904256  6.413704
H    0.534740  1.212116  7.002757
Ba    2.011979  -0.924449  3.346677
