35
Energy: -243351.470832 eV PBE+vdW (tier 2 basis)
C    0.232562  0.799577  -0.677629
C    0.390048  0.564222  0.796151
O    1.441220  0.803883  1.391179
H    0.720465  1.737445  -0.964309
H    -0.803212  0.791152  -1.032728
H    0.778474  -0.003818  -1.197862
N    -0.651677  -0.052162  1.504108
C    -2.073793  0.315600  1.465225
C    -2.879582  -0.593584  0.522814
O    -4.134222  -0.384351  0.313531
H    -0.329023  -0.297094  2.439294
H    -2.454176  0.046267  2.464571
C    -2.377229  1.833933  1.257174
C    -1.314004  2.811891  1.794680
C    -0.932211  2.728504  3.286372
C    0.348100  3.506856  3.621636
N    1.610975  2.669694  3.459984
H    -3.345985  2.043432  1.732703
H    -2.502502  2.046519  0.186170
H    -1.695161  3.824622  1.596313
H    -0.413012  2.739331  1.170865
H    -0.822559  1.690828  3.640034
H    -1.740761  3.153141  3.897534
H    0.466188  4.382459  2.971711
H    0.347228  3.860617  4.658316
H    2.440816  3.268788  3.351098
H    1.577156  2.003592  2.641519
H    1.776402  2.093374  4.295559
N    -2.251746  -1.613320  -0.017912
C    -2.836461  -2.626944  -0.892099
H    -1.267696  -1.693065  0.253276
H    -2.043449  -3.302982  -1.223685
H    -3.282422  -2.159170  -1.779423
H    -3.587059  -3.219054  -0.351069
Ba    -6.450194  -0.339680  -0.156504
