35
Energy: -243352.623413 eV PBE+vdW (tier 2 basis)
C    -0.693213  0.198980  -1.351966
C    0.039844  -0.047866  -0.071536
O    1.303511  -0.065002  -0.042418
H    0.023992  0.440414  -2.141190
H    -1.272130  -0.684476  -1.661479
H    -1.399925  1.031491  -1.245312
N    -0.638897  -0.256902  1.089409
C    -1.805968  -1.141430  1.207032
C    -1.393619  -2.531242  0.620528
O    -0.174527  -2.781834  0.377132
H    -0.022661  -0.267825  1.900939
H    -1.905411  -1.314501  2.290638
C    -3.148945  -0.520850  0.717577
C    -4.330697  -0.724870  1.688475
C    -5.587142  0.061466  1.259092
C    -6.719056  -0.089157  2.276457
N    -7.948261  0.720077  1.884302
H    -3.405876  -0.882313  -0.288815
H    -2.970780  0.558187  0.619915
H    -4.024735  -0.395380  2.693956
H    -4.588674  -1.792998  1.786067
H    -5.925433  -0.284060  0.269081
H    -5.324621  1.126690  1.154842
H    -6.429400  0.269637  3.272115
H    -7.060465  -1.127603  2.370746
H    -8.703103  0.609398  2.578770
H    -8.329371  0.426902  0.972529
H    -7.740806  1.727890  1.820512
N    -2.335332  -3.441790  0.433872
C    -2.084175  -4.813648  -0.026089
H    -3.295201  -3.190655  0.648697
H    -3.038621  -5.344260  -0.069951
H    -1.417327  -5.333323  0.671833
H    -1.634700  -4.804770  -1.025836
Ba    2.301340  -2.327225  0.067803
