35
Energy: -243352.897635 eV PBE+vdW (tier 2 basis)
C    -0.276648  1.174205  0.529236
C    -0.505781  -0.196513  1.083905
O    0.247407  -1.157094  0.754914
H    -0.350453  1.127454  -0.566754
H    0.747903  1.495071  0.761249
H    -0.977607  1.928523  0.901790
N    -1.537658  -0.355623  1.937041
C    -2.073271  -1.585054  2.564033
C    -1.033652  -2.277897  3.471143
O    -0.081810  -2.958663  2.981681
H    -2.055474  0.493838  2.143741
H    -2.870504  -1.214885  3.220021
C    -2.720942  -2.574077  1.565318
C    -3.960468  -1.992675  0.857321
C    -4.592009  -2.943014  -0.187033
C    -5.644248  -3.937707  0.310807
N    -7.050188  -3.341094  0.337096
H    -2.984349  -3.482861  2.129088
H    -1.977787  -2.879386  0.814916
H    -4.706954  -1.687941  1.610959
H    -3.673919  -1.068367  0.336713
H    -3.801811  -3.540679  -0.664199
H    -5.019651  -2.353202  -1.012815
H    -5.451036  -4.303202  1.327116
H    -5.717568  -4.806134  -0.354056
H    -7.118772  -2.511136  0.942270
H    -7.739995  -4.027273  0.679907
H    -7.352046  -3.057378  -0.607350
N    -1.169102  -2.175693  4.787576
C    -2.161491  -1.428576  5.573877
H    -0.473531  -2.699241  5.320563
H    -1.870017  -1.493843  6.626081
H    -3.162607  -1.865828  5.473493
H    -2.175179  -0.368646  5.294983
Ba    1.744217  -2.992407  1.338369
