35
Energy: -243352.174803 eV PBE+vdW (tier 2 basis)
C    -2.521063  2.419822  1.890657
C    -1.763157  1.416806  2.707246
O    -0.553979  1.187237  2.520890
H    -2.333531  2.225288  0.827165
H    -2.117147  3.420797  2.097188
H    -3.600550  2.425451  2.076099
N    -2.454825  0.767197  3.697402
C    -1.946404  -0.367217  4.481325
C    -0.834218  0.062906  5.459646
O    -0.963569  -0.157083  6.733158
H    -3.433001  1.006521  3.820358
H    -2.784982  -0.687903  5.113055
C    -1.502180  -1.580536  3.612835
C    -2.648988  -2.128562  2.748344
C    -2.292790  -3.335879  1.852612
C    -1.503282  -2.963139  0.598613
N    -1.343952  -4.165163  -0.325481
H    -1.142672  -2.365551  4.296507
H    -0.646422  -1.278174  2.995094
H    -3.061170  -1.325550  2.118705
H    -3.473060  -2.447986  3.403198
H    -3.240152  -3.806568  1.546140
H    -1.741483  -4.091243  2.435268
H    -0.486715  -2.611552  0.812260
H    -2.016821  -2.196937  0.004262
H    -0.841584  -4.938631  0.134131
H    -0.818072  -3.921165  -1.177974
H    -2.258961  -4.533533  -0.625905
N    0.226924  0.640545  4.959617
C    1.363930  1.128459  5.728895
H    0.149135  0.836955  3.912362
H    2.118903  1.506183  5.033676
H    1.813630  0.317389  6.317943
H    1.066769  1.956392  6.389251
Ba    -0.940246  -0.158746  9.063327
