35
Energy: -243352.043338 eV PBE+vdW (tier 2 basis)
C    -0.256195  -0.268535  0.039105
C    0.001187  0.084783  1.463601
O    1.221135  0.280764  1.854992
H    0.349936  -1.145105  -0.228163
H    0.075600  0.563365  -0.598950
H    -1.304313  -0.487656  -0.180229
N    -0.972482  0.205456  2.357691
C    -2.456031  0.139626  2.207900
C    -2.953929  -1.204778  1.591513
O    -3.467216  -1.217095  0.457169
H    -0.653420  0.460217  3.292331
H    -2.813272  0.170788  3.247609
C    -3.046239  1.339232  1.454526
C    -4.569981  1.439372  1.685382
C    -5.374225  2.097844  0.551635
C    -5.333108  1.420594  -0.816934
N    -5.707422  -0.049183  -0.753005
H    -2.811669  1.232540  0.386895
H    -2.555617  2.258651  1.801623
H    -4.757991  2.013047  2.603197
H    -4.985626  0.439962  1.891679
H    -5.033507  3.131679  0.391032
H    -6.421413  2.187298  0.878320
H    -4.339047  1.447466  -1.279188
H    -6.035817  1.905123  -1.504648
H    -5.819198  -0.443106  -1.696403
H    -4.950153  -0.590362  -0.264690
H    -6.598576  -0.191557  -0.259238
N    -2.828385  -2.317239  2.328022
C    -2.331428  -2.459564  3.696455
H    -3.186752  -3.156292  1.873135
H    -2.533819  -3.482150  4.027392
H    -2.849093  -1.781484  4.387508
H    -1.247298  -2.295875  3.756595
Ba    3.546660  0.601817  2.113574
