35
Energy: -243352.014771 eV PBE+vdW (tier 2 basis)
C    -0.620945  1.811708  -0.020177
C    -0.373473  0.912742  1.146962
O    0.774442  0.335794  1.295105
H    0.326530  2.123423  -0.468084
H    -1.196010  2.704551  0.253642
H    -1.199880  1.273314  -0.787891
N    -1.332754  0.684857  2.035867
C    -2.731892  1.163690  1.982738
C    -2.986431  2.635376  2.399964
O    -3.848540  3.246339  1.743613
H    -1.093667  0.056528  2.803857
H    -3.036543  1.146579  0.929681
C    -3.634099  0.192973  2.786382
C    -5.090878  0.653584  2.949523
C    -5.946344  0.654503  1.662482
C    -7.091438  1.665103  1.698614
N    -6.607134  3.062467  1.325040
H    -3.206113  0.059896  3.792650
H    -3.598930  -0.790633  2.293601
H    -5.099389  1.647015  3.423913
H    -5.564912  -0.012447  3.683004
H    -5.339428  0.836580  0.761569
H    -6.390099  -0.339393  1.516503
H    -7.536174  1.738275  2.698432
H    -7.890472  1.411917  0.993480
H    -7.198841  3.794541  1.737850
H    -6.636266  3.195413  0.306321
H    -5.608014  3.219081  1.612488
N    -2.354217  3.201737  3.439760
C    -1.413853  2.628432  4.400297
H    -2.630915  4.170899  3.594081
H    -0.390094  2.593683  4.003753
H    -1.726938  1.629992  4.726796
H    -1.406651  3.266386  5.289475
Ba    2.941808  -0.577644  1.039345
