35
Energy: -243351.970051 eV PBE+vdW (tier 2 basis)
C    0.386651  0.123117  0.103916
C    0.231371  0.106413  1.595757
O    1.217548  0.057164  2.357521
H    1.090912  -0.664688  -0.191088
H    0.849817  1.075733  -0.190237
H    -0.551565  -0.000613  -0.447480
N    -1.045293  0.163329  2.080263
C    -1.497462  0.079935  3.479403
C    -0.930841  1.180378  4.396405
O    -1.752502  1.832531  5.164532
H    -1.786565  0.233944  1.390170
H    -2.567181  0.319631  3.428459
C    -1.444292  -1.334999  4.138945
C    -0.122194  -2.137127  4.197227
C    0.097432  -3.053792  2.979186
C    1.443428  -3.770947  2.912888
N    1.564477  -4.929312  3.901622
H    -2.208455  -1.937917  3.625817
H    -1.824723  -1.201464  5.162909
H    -0.169827  -2.746364  5.113885
H    0.741673  -1.469603  4.316860
H    0.046568  -2.469471  2.051161
H    -0.721544  -3.787892  2.899049
H    2.285319  -3.099558  3.124207
H    1.601605  -4.220172  1.925462
H    2.477101  -5.399824  3.807386
H    0.838117  -5.641530  3.736592
H    1.481144  -4.621547  4.879796
N    0.353534  1.417820  4.399924
C    1.019922  2.432344  5.207978
H    0.896102  0.854038  3.669612
H    0.846031  2.256573  6.278065
H    0.678197  3.440216  4.932369
H    2.095374  2.376508  5.018202
Ba    -3.038937  3.312999  6.429125
