35
Energy: -243351.550915 eV PBE+vdW (tier 2 basis)
C    0.121317  0.843159  -0.173460
C    -0.081846  0.488385  1.265866
O    0.725210  -0.179951  1.928538
H    -0.686879  1.445800  -0.601572
H    0.217398  -0.087906  -0.750028
H    1.072883  1.378949  -0.289104
N    -1.254222  0.911077  1.862230
C    -1.453380  0.666017  3.289070
C    -2.950663  0.517784  3.577912
O    -3.468692  0.862760  4.704465
H    -1.754769  1.675338  1.413039
H    -1.036850  -0.346703  3.447959
C    -0.669865  1.625921  4.218676
C    -0.096832  0.975326  5.494096
C    0.899594  -0.196420  5.347184
C    2.377493  0.095618  5.080171
N    2.704765  0.529561  3.656679
H    -1.297898  2.484934  4.496407
H    0.137904  2.054386  3.610883
H    -0.936601  0.595063  6.098729
H    0.362657  1.767686  6.104512
H    0.547193  -0.945123  4.621552
H    0.911201  -0.728226  6.310066
H    2.951522  -0.822558  5.248085
H    2.779987  0.864874  5.750523
H    3.642931  0.206029  3.386009
H    2.712816  1.551438  3.562029
H    2.008217  0.155376  2.954970
N    -3.696694  -0.029819  2.636181
C    -5.121016  -0.337163  2.742926
H    -3.213740  -0.276923  1.771203
H    -5.446900  -0.813920  1.814026
H    -5.708177  0.582153  2.874511
H    -5.305071  -1.038595  3.568212
Ba    -4.843153  1.412700  6.551452
