35
Energy: -243351.741406 eV PBE+vdW (tier 2 basis)
C    0.650919  -0.127943  0.073789
C    0.387332  -0.153806  1.548421
O    1.270556  -0.300640  2.403070
H    -0.230077  0.109529  -0.532374
H    1.027233  -1.116926  -0.226366
H    1.449273  0.590612  -0.149965
N    -0.932964  -0.044240  1.947502
C    -1.248597  0.033476  3.373672
C    -2.650694  -0.527164  3.625884
O    -3.309599  -0.242747  4.694270
H    -1.565488  0.402571  1.285591
H    -0.583016  -0.715115  3.845134
C    -0.914722  1.404659  4.028935
C    0.287525  1.337044  5.006421
C    1.273293  2.518284  4.947734
C    2.148082  2.653877  3.701650
N    3.070464  1.466963  3.483534
H    -1.795440  1.808624  4.544928
H    -0.714221  2.107746  3.209532
H    0.831870  0.396505  4.840569
H    -0.082176  1.276572  6.039433
H    1.926796  2.474419  5.833144
H    0.733380  3.472778  5.042791
H    1.567131  2.750053  2.775687
H    2.784829  3.541781  3.788889
H    3.814507  1.700492  2.812647
H    2.530050  0.654958  3.088177
H    3.534698  1.177621  4.354645
N    -3.138914  -1.378288  2.743295
C    -4.406692  -2.095174  2.856585
H    -2.536475  -1.581521  1.944039
H    -4.545424  -2.705986  1.959934
H    -5.245371  -1.388480  2.916709
H    -4.398270  -2.765877  3.727143
Ba    -4.835076  -0.054883  6.491449
