35
Energy: -243352.030685 eV PBE+vdW (tier 2 basis)
C    -0.585739  0.342571  -0.082718
C    -0.415442  0.362858  1.406142
O    0.689448  0.555564  1.942575
H    0.119302  -0.384719  -0.506624
H    -0.295755  1.322337  -0.485874
H    -1.601194  0.102500  -0.415940
N    -1.541446  0.170148  2.168785
C    -1.566141  -0.018422  3.625258
C    -1.177842  1.270657  4.384177
O    -1.967930  1.777359  5.279953
H    -2.427422  0.089718  1.681556
H    -2.616775  -0.204810  3.880534
C    -0.691107  -1.207417  4.132254
C    -0.823066  -2.536591  3.364030
C    -2.120683  -3.327048  3.593420
C    -2.248788  -4.619035  2.785510
N    -1.282338  -5.713787  3.231641
H    -0.927350  -1.358662  5.197143
H    0.363085  -0.909692  4.087502
H    0.047274  -3.137808  3.673127
H    -0.686946  -2.351706  2.287593
H    -2.995864  -2.727511  3.298275
H    -2.262722  -3.543757  4.665254
H    -2.048740  -4.463266  1.717774
H    -3.249619  -5.054695  2.887546
H    -1.418017  -6.571083  2.674706
H    -1.425993  -5.968590  4.219632
H    -0.297391  -5.435012  3.121842
N    -0.022991  1.815594  4.099240
C    0.492904  3.031522  4.707809
H    0.492797  1.336823  3.288077
H    1.483276  3.241454  4.293065
H    0.603186  2.909647  5.796017
H    -0.153319  3.893912  4.479150
Ba    -2.895331  3.286153  6.804275
