35
Energy: -243351.404324 eV PBE+vdW (tier 2 basis)
C    -0.089128  -0.596360  -0.400266
C    -0.163834  0.324343  0.792390
O    0.140640  1.500439  0.734736
H    -0.599689  -0.130656  -1.251477
H    -0.487511  -1.604696  -0.243855
H    0.968820  -0.681583  -0.688667
N    -0.522359  -0.214655  2.055385
C    -1.563999  -1.206079  2.324605
C    -0.977193  -2.634300  2.327194
O    -1.724353  -3.680875  2.439904
H    -0.441825  0.510602  2.767401
H    -1.836994  -1.059340  3.385617
C    -2.873852  -1.049235  1.512568
C    -3.664583  0.253952  1.783849
C    -3.181579  1.525330  1.053771
C    -4.150436  2.687932  1.264005
N    -3.648676  3.954350  0.581869
H    -3.528511  -1.889172  1.783971
H    -2.671311  -1.155790  0.437508
H    -3.703098  0.441648  2.869038
H    -4.703463  0.057666  1.479643
H    -3.091995  1.315026  -0.024535
H    -2.182747  1.827682  1.398543
H    -4.268093  2.944342  2.324501
H    -5.145259  2.491125  0.845047
H    -4.288822  4.746383  0.743180
H    -3.565736  3.832040  -0.437968
H    -2.719372  4.233190  0.930695
N    0.331459  -2.732180  2.287335
C    1.111717  -3.961410  2.362667
H    0.808259  -1.824955  2.228773
H    0.845327  -4.639623  1.540697
H    0.966022  -4.456029  3.333344
H    2.172083  -3.711387  2.267160
Ba    -2.679965  -5.797578  2.806575
