35
Energy: -243353.223509 eV PBE+vdW (tier 2 basis)
C    -1.467392  -3.574992  0.985842
C    -0.703219  -2.402421  1.510501
O    0.384838  -2.040910  0.976853
H    -0.827224  -4.467340  0.997230
H    -1.723039  -3.384992  -0.066457
H    -2.385242  -3.788924  1.543488
N    -1.212520  -1.734719  2.564685
C    -0.666566  -0.504904  3.165026
C    0.591004  -0.848819  4.010700
O    1.698380  -1.003097  3.415001
H    -2.060705  -2.114612  2.977986
H    -0.282504  0.113350  2.339419
C    -1.769965  0.266610  3.915393
C    -2.863105  0.900898  3.028203
C    -3.980510  1.519624  3.892976
C    -5.204370  2.070455  3.159406
N    -5.006961  3.473517  2.589949
H    -1.283960  1.060539  4.501523
H    -2.256450  -0.404319  4.645918
H    -3.303744  0.142647  2.362254
H    -2.396656  1.656232  2.374870
H    -3.571883  2.289320  4.568752
H    -4.380596  0.742210  4.561893
H    -6.055997  2.159659  3.844006
H    -5.512092  1.440948  2.314999
H    -4.783360  4.153007  3.332094
H    -5.868939  3.804414  2.129518
H    -4.254533  3.517181  1.889785
N    0.476870  -0.985590  5.321586
C    1.576470  -1.321727  6.233039
H    -0.441065  -0.858083  5.738882
H    1.386870  -0.848351  7.201091
H    2.518367  -0.948798  5.822428
H    1.638751  -2.408721  6.372475
Ba    2.783047  -1.657294  1.298689
