35
Energy: -243351.114834 eV PBE+vdW (tier 2 basis)
C    -0.529400  -0.170238  -0.530581
C    -0.227527  -0.296210  0.934506
O    0.870750  -0.675453  1.353020
H    0.411790  0.020178  -1.057561
H    -1.238496  0.633819  -0.758984
H    -0.927536  -1.118989  -0.922534
N    -1.202700  0.058256  1.862559
C    -2.611166  -0.279192  1.699374
C    -3.587564  0.711823  2.347290
O    -4.724597  0.895118  1.749745
H    -0.833386  -0.077867  2.799318
H    -2.836601  -0.172356  0.629690
C    -2.931406  -1.767947  2.062180
C    -2.473302  -2.351642  3.416881
C    -0.966314  -2.559095  3.705298
C    -0.208968  -3.430922  2.693125
N    1.257349  -3.061664  2.661936
H    -2.516957  -2.362755  1.234603
H    -4.020369  -1.910624  1.992313
H    -2.968736  -3.330308  3.502213
H    -2.891897  -1.761791  4.246924
H    -0.888417  -3.020429  4.700087
H    -0.442355  -1.596659  3.800183
H    -0.285651  -4.497709  2.931954
H    -0.559620  -3.290945  1.663968
H    1.794790  -3.691600  2.050521
H    1.690648  -3.102765  3.594276
H    1.338406  -2.082166  2.277139
N    -3.357383  1.374809  3.464745
C    -2.198372  1.381094  4.373057
H    -4.110192  2.006393  3.736922
H    -2.505379  1.887951  5.292479
H    -1.360513  1.932683  3.931120
H    -1.902986  0.361506  4.639951
Ba    -6.769051  1.413322  0.666099
