35
Energy: -243351.987028 eV PBE+vdW (tier 2 basis)
C    -1.011509  -1.445800  -1.461274
C    -0.485751  -1.635916  -0.081419
O    0.757449  -1.985986  0.072977
H    -0.682761  -2.283455  -2.089821
H    -0.573386  -0.527082  -1.881098
H    -2.104742  -1.391738  -1.501829
N    -1.213805  -1.454047  1.013796
C    -2.646893  -1.073041  1.207449
C    -3.585560  -2.135089  0.552734
O    -3.924499  -1.994664  -0.621554
H    -0.698936  -1.613359  1.879169
H    -2.765495  -1.097600  2.298087
C    -2.975715  0.342179  0.703661
C    -4.405305  0.788058  1.070205
C    -4.751111  2.143220  0.426858
C    -6.220130  2.553858  0.459534
N    -6.703747  2.986994  1.842439
H    -2.878975  0.365302  -0.389787
H    -2.238888  1.044611  1.120803
H    -4.504887  0.832317  2.168178
H    -5.118777  0.031935  0.708923
H    -4.501242  2.100083  -0.644483
H    -4.124204  2.951508  0.838092
H    -6.888090  1.740796  0.148066
H    -6.401387  3.416315  -0.192656
H    -6.633150  2.229514  2.534881
H    -7.691591  3.280400  1.811244
H    -6.159946  3.786825  2.197275
N    -3.988617  -3.167367  1.324799
C    -3.678852  -3.447382  2.725040
H    -4.606558  -3.816785  0.841233
H    -4.153692  -4.395140  2.995306
H    -4.075176  -2.677549  3.401294
H    -2.599537  -3.565555  2.894317
Ba    2.958306  -2.691176  -0.287286
