35
Energy: -243352.136660 eV PBE+vdW (tier 2 basis)
C    0.157041  0.326595  0.901204
C    -0.246233  0.015929  2.304547
O    0.683137  -0.168653  3.195771
H    0.909157  -0.401112  0.570006
H    0.627058  1.320577  0.868724
H    -0.675053  0.315026  0.192891
N    -1.506282  -0.068063  2.674037
C    -2.744546  0.188150  1.912432
C    -3.707692  0.706670  3.015284
O    -3.673604  0.118311  4.102256
H    -1.738934  -0.287043  3.656412
H    -2.546838  0.940557  1.140488
C    -3.270335  -1.127201  1.280590
C    -4.574552  -0.995054  0.463173
C    -5.907813  -1.246047  1.206151
C    -6.236270  -2.733746  1.318656
N    -7.626787  -2.955487  1.902423
H    -3.376336  -1.867061  2.088272
H    -2.477600  -1.505597  0.619833
H    -4.514432  -1.685131  -0.390615
H    -4.625297  0.001142  0.003945
H    -6.709075  -0.749731  0.636684
H    -5.895734  -0.784702  2.205359
H    -5.544775  -3.279634  1.972216
H    -6.245004  -3.223330  0.336667
H    -7.855172  -3.958830  1.964519
H    -8.353364  -2.513393  1.319708
H    -7.713196  -2.561054  2.850197
N    -4.541012  1.727257  2.740699
C    -4.541259  2.632496  1.588187
H    -5.107264  2.005031  3.541239
H    -5.443282  3.249284  1.640912
H    -4.574515  2.086427  0.639189
H    -3.672076  3.304305  1.594378
Ba    2.560556  -0.300691  4.567509
