35
Energy: -243351.424441 eV PBE+vdW (tier 2 basis)
C    -1.534026  1.363154  0.458971
C    -1.397553  1.043903  1.920483
O    -1.552512  1.895716  2.790981
H    -1.703240  0.495274  -0.186941
H    -0.590049  1.836476  0.142008
H    -2.320773  2.108383  0.301630
N    -0.971036  -0.249162  2.295229
C    -1.744654  -1.454629  1.937627
C    -1.142152  -2.181473  0.724561
O    -1.703635  -3.229500  0.225808
H    -0.709688  -0.238167  3.281909
H    -1.567543  -2.169859  2.761181
C    -3.269407  -1.179043  1.897707
C    -3.788571  -0.775891  3.300542
C    -5.054235  0.100632  3.332906
C    -4.918247  1.578905  2.962796
N    -4.047855  2.372406  3.925043
H    -3.805551  -2.072784  1.551188
H    -3.472479  -0.397205  1.151777
H    -2.988274  -0.276079  3.866361
H    -4.003028  -1.691414  3.869181
H    -5.500786  0.031148  4.337101
H    -5.820814  -0.310403  2.658597
H    -4.481586  1.741014  1.969418
H    -5.906313  2.053459  2.972728
H    -4.201535  3.383279  3.804506
H    -3.031438  2.200109  3.738974
H    -4.260400  2.151658  4.907406
N    0.010503  -1.736505  0.277117
C    0.808591  -2.317877  -0.797747
H    0.373613  -0.931491  0.798580
H    0.201948  -2.438202  -1.704520
H    1.235141  -3.282257  -0.488036
H    1.635417  -1.639809  -1.027626
Ba    -2.279935  -5.302490  -0.755085
