35
Energy: -243352.313689 eV PBE+vdW (tier 2 basis)
C    -0.063905  -1.612602  2.160485
C    0.067655  -0.131365  2.034169
O    1.238943  0.407445  2.218154
H    0.587324  -2.102107  1.422658
H    -1.085296  -1.974523  2.018835
H    0.284035  -1.923736  3.155083
N    -0.947533  0.650036  1.744593
C    -2.295788  0.326311  1.254334
C    -2.607709  1.569302  0.356003
O    -1.941154  2.596533  0.540757
H    -0.800345  1.673001  1.579663
H    -2.249467  -0.582528  0.639485
C    -3.357638  0.129277  2.367099
C    -3.689626  1.385932  3.186598
C    -4.732299  1.182439  4.308221
C    -6.166113  1.038892  3.799958
N    -7.158372  1.000805  4.956671
H    -3.013480  -0.677055  3.033834
H    -4.256061  -0.259927  1.864205
H    -4.024995  2.196869  2.521963
H    -2.774408  1.760240  3.666725
H    -4.679574  2.059591  4.972069
H    -4.462450  0.306407  4.920180
H    -6.335107  0.115012  3.233779
H    -6.466935  1.890180  3.176214
H    -8.128838  0.909893  4.620771
H    -7.110391  1.860538  5.523583
H    -6.977801  0.208029  5.589872
N    -3.606172  1.440833  -0.525607
C    -4.017494  2.511114  -1.438681
H    -4.019133  0.523249  -0.663450
H    -5.110906  2.561087  -1.478084
H    -3.630873  2.325899  -2.448710
H    -3.617899  3.459328  -1.069957
Ba    3.437543  1.151448  2.290083
