35
Energy: -243352.816507 eV PBE+vdW (tier 2 basis)
C    -1.406459  0.137892  -0.496837
C    -1.056343  0.539333  0.902230
O    -0.431433  1.616864  1.123221
H    -1.824211  -0.871061  -0.579045
H    -0.527762  0.220858  -1.148115
H    -2.149011  0.855407  -0.878945
N    -1.433089  -0.288659  1.896346
C    -1.540896  -0.050827  3.344894
C    -0.293846  0.566248  4.000039
O    0.841557  0.583756  3.437765
H    -1.951405  -1.103940  1.580361
H    -2.359251  0.673152  3.498820
C    -1.976456  -1.374567  4.039599
C    -0.941556  -2.513583  4.036080
C    -1.302403  -3.726223  4.926095
C    -2.452758  -4.586983  4.402128
N    -2.641004  -5.831899  5.260901
H    -2.918885  -1.682048  3.558411
H    -2.250636  -1.130938  5.074604
H    0.020346  -2.132929  4.409665
H    -0.741349  -2.861886  3.010839
H    -1.532611  -3.378544  5.946243
H    -0.399278  -4.351267  5.005240
H    -2.263914  -4.952357  3.384601
H    -3.420418  -4.070737  4.413009
H    -3.413725  -6.418973  4.911266
H    -2.858283  -5.594741  6.240477
H    -1.793351  -6.419312  5.271333
N    -0.436393  1.099286  5.215767
C    -1.627328  1.280738  6.052874
H    0.442914  1.406673  5.631142
H    -1.751447  0.444528  6.752968
H    -2.530021  1.390626  5.443999
H    -1.498890  2.198811  6.635780
Ba    1.831954  2.199248  1.805384
