35
Energy: -243352.087252 eV PBE+vdW (tier 2 basis)
C    -0.223872  1.364175  1.435026
C    -0.136929  -0.016063  1.997419
O    0.963019  -0.441894  2.522879
H    0.598458  1.981984  1.805880
H    -1.175548  1.852037  1.679333
H    -0.150336  1.321708  0.336247
N    -1.189915  -0.827750  1.948196
C    -2.497831  -0.576912  1.291685
C    -3.439672  0.388311  2.051617
O    -4.212831  1.089122  1.377978
H    -1.048933  -1.768716  2.320010
H    -2.299090  -0.080792  0.333294
C    -3.170564  -1.953461  1.056479
C    -4.636851  -1.982625  0.580992
C    -4.938556  -1.765777  -0.914639
C    -4.829772  -0.369941  -1.524066
N    -5.721787  0.638280  -0.831916
H    -3.139205  -2.494402  2.017419
H    -2.543501  -2.522773  0.352696
H    -5.254631  -1.328295  1.214672
H    -4.995363  -2.995920  0.809059
H    -5.957704  -2.139567  -1.101665
H    -4.289913  -2.416252  -1.521195
H    -5.126382  -0.400535  -2.579071
H    -3.818046  0.050897  -1.473131
H    -5.807681  1.502707  -1.381637
H    -5.285674  0.882588  0.097523
H    -6.672388  0.272869  -0.689260
N    -3.402929  0.403855  3.389079
C    -4.308995  1.210419  4.214185
H    -2.784761  -0.243825  3.866365
H    -3.780085  1.541644  5.113206
H    -5.189362  0.625207  4.509507
H    -4.633888  2.081027  3.638108
Ba    3.190426  -0.800275  3.260430
