35
Energy: -243351.501470 eV PBE+vdW (tier 2 basis)
C    0.342649  -0.626703  0.286217
C    0.022646  -0.689574  1.750764
O    0.724766  -1.260484  2.585263
H    1.284933  -0.078988  0.149931
H    -0.437028  -0.150085  -0.317949
H    0.514956  -1.645820  -0.083026
N    -1.150150  -0.063688  2.157617
C    -1.453340  -0.009601  3.581092
C    -2.936058  -0.336282  3.759852
O    -3.802355  0.564095  4.113211
H    -1.642620  0.531560  1.499027
H    -0.889657  -0.870361  3.981739
C    -0.942544  1.253833  4.304744
C    -0.426622  1.035718  5.748739
C    1.105733  0.889666  5.913633
C    1.673593  -0.475414  5.530268
N    3.181029  -0.515523  5.751320
H    -1.728248  2.023766  4.303010
H    -0.136952  1.668661  3.684310
H    -0.935781  0.178708  6.220070
H    -0.706983  1.907589  6.353672
H    1.345236  1.092790  6.969132
H    1.599674  1.679949  5.325080
H    1.512192  -0.735328  4.474787
H    1.261957  -1.277649  6.156393
H    3.571733  -1.435774  5.500971
H    3.432612  -0.331490  6.734082
H    3.667842  0.187267  5.176135
N    -3.355991  -1.566209  3.521385
C    -2.583472  -2.730124  3.069424
H    -4.361488  -1.713865  3.602009
H    -3.079951  -3.632556  3.438994
H    -1.560753  -2.699928  3.455720
H    -2.552124  -2.757766  1.972680
Ba    -5.487830  2.103444  4.667237
