35
Energy: -243352.120864 eV PBE+vdW (tier 2 basis)
C    0.182565  -0.687918  0.037260
C    -0.033422  0.326035  1.115598
O    0.817975  1.292399  1.257803
H    -0.312483  -0.348704  -0.887212
H    -0.217427  -1.676087  0.284732
H    1.251882  -0.788636  -0.174714
N    -1.091385  0.265746  1.906218
C    -2.227016  -0.673846  1.807284
C    -3.443046  0.096173  2.366129
O    -3.275732  0.835075  3.362311
H    -1.227822  0.994817  2.615694
H    -2.377879  -0.889484  0.742489
C    -2.022436  -2.028933  2.564694
C    -2.575121  -2.142446  3.993895
C    -1.808218  -1.363926  5.079696
C    -2.628542  -1.035989  6.321906
N    -3.770162  -0.063500  5.999860
H    -0.949950  -2.274330  2.552101
H    -2.513750  -2.798393  1.953568
H    -2.578794  -3.208929  4.259445
H    -3.640372  -1.859723  3.975478
H    -1.394059  -0.424686  4.685742
H    -0.945268  -1.954721  5.418911
H    -2.010757  -0.550981  7.084997
H    -3.083608  -1.925829  6.772465
H    -3.850701  0.666860  6.717754
H    -4.676801  -0.544120  5.970443
H    -3.626424  0.395998  5.062768
N    -4.611625  -0.118926  1.762802
C    -5.883483  0.476429  2.177908
H    -4.631652  -0.731443  0.951415
H    -6.422113  0.829432  1.292025
H    -5.682338  1.324306  2.838214
H    -6.507786  -0.264095  2.694673
Ba    2.566139  2.832230  0.912688
