35
Energy: -243352.488154 eV PBE+vdW (tier 2 basis)
C    -0.328804  0.795727  1.073097
C    -0.554995  0.506039  2.524336
O    0.375976  0.704321  3.357432
H    -1.184730  1.301590  0.614717
H    -0.143642  -0.135143  0.515564
H    0.556750  1.431646  0.976811
N    -1.754849  0.057509  2.987425
C    -2.521543  -1.056443  2.409347
C    -1.619442  -2.330077  2.493038
O    -0.378864  -2.209716  2.749991
H    -1.787246  0.075088  4.007207
H    -3.351294  -1.215738  3.116011
C    -3.164711  -0.790737  1.023063
C    -4.093470  0.437929  1.055829
C    -4.716546  0.865971  -0.291941
C    -5.892502  0.002731  -0.750125
N    -6.592946  0.623396  -1.953251
H    -3.726632  -1.692894  0.746700
H    -2.391195  -0.675466  0.252633
H    -3.527608  1.301504  1.431605
H    -4.895136  0.276794  1.794463
H    -3.943187  0.895016  -1.076379
H    -5.070818  1.900990  -0.165029
H    -6.661515  -0.086268  0.027790
H    -5.595758  -1.005305  -1.064381
H    -7.390698  0.048896  -2.265088
H    -5.958292  0.727789  -2.758824
H    -6.961884  1.561233  -1.733519
N    -2.150422  -3.535897  2.343880
C    -3.548947  -3.937497  2.168740
H    -1.474762  -4.299378  2.395559
H    -4.229905  -3.184945  2.577692
H    -3.708034  -4.871397  2.718586
H    -3.775239  -4.116849  1.109861
Ba    1.670515  -1.316851  3.943935
