35
Energy: -243352.537346 eV PBE+vdW (tier 2 basis)
C    0.702795  0.171884  0.558609
C    0.908722  0.622078  1.968604
O    2.062904  0.893775  2.402537
H    0.659653  1.041257  -0.117026
H    -0.211508  -0.413934  0.420343
H    1.571059  -0.423946  0.252280
N    -0.157961  0.747712  2.808107
C    -1.388697  1.423704  2.394697
C    -1.019437  2.924823  2.112478
O    0.162220  3.339950  2.321138
H    0.128804  0.980016  3.760504
H    -1.722086  0.991318  1.438444
C    -2.508296  1.271940  3.447582
C    -3.254117  -0.079306  3.524351
C    -2.490582  -1.261829  4.153719
C    -3.364251  -2.322341  4.826225
N    -4.239599  -3.121847  3.863750
H    -3.266010  2.041131  3.245122
H    -2.102047  1.532148  4.439293
H    -3.623382  -0.341492  2.519385
H    -4.150582  0.122536  4.131951
H    -1.850154  -0.894544  4.970871
H    -1.804565  -1.734805  3.434389
H    -4.055035  -1.878833  5.554771
H    -2.749105  -3.065771  5.346921
H    -4.786784  -3.830582  4.376578
H    -3.678747  -3.625418  3.161588
H    -4.914664  -2.528907  3.361192
N    -1.960976  3.719054  1.633997
C    -1.774913  5.140488  1.313258
H    -2.881111  3.324992  1.454954
H    -1.343935  5.667089  2.171669
H    -2.752022  5.572717  1.082386
H    -1.119739  5.254826  0.440815
Ba    2.650826  3.297576  2.676779
