35
Energy: -243352.097359 eV PBE+vdW (tier 2 basis)
C    -0.709089  -1.903315  0.670799
C    -0.333356  -0.654149  1.396675
O    0.923451  -0.438369  1.654612
H    -0.306898  -2.771022  1.211123
H    -0.246259  -1.899243  -0.326484
H    -1.787258  -2.035916  0.552373
N    -1.220995  0.236696  1.781283
C    -2.651986  0.358103  1.452248
C    -2.854200  1.901380  1.470005
O    -2.085364  2.569882  2.174391
H    -0.915526  1.122905  2.233342
H    -2.824671  -0.044219  0.446301
C    -3.583019  -0.385584  2.450358
C    -3.640801  0.147421  3.900234
C    -4.683039  1.253473  4.174657
C    -6.129586  0.795334  4.359130
N    -6.393992  0.238040  5.756638
H    -3.260437  -1.436300  2.464676
H    -4.587509  -0.400400  2.001243
H    -2.655434  0.529816  4.199759
H    -3.816649  -0.713896  4.564887
H    -4.696578  1.978053  3.349273
H    -4.376774  1.846630  5.050811
H    -6.426615  0.003077  3.660075
H    -6.830994  1.630221  4.246679
H    -7.372858  -0.069524  5.858080
H    -6.223002  0.952221  6.479904
H    -5.795626  -0.570538  5.975061
N    -3.867897  2.427839  0.762737
C    -4.715760  1.768420  -0.233622
H    -3.909065  3.445145  0.807676
H    -5.522865  2.455931  -0.503123
H    -5.178959  0.857886  0.164321
H    -4.159057  1.526083  -1.149195
Ba    3.234606  -0.182587  1.764082
