35
Energy: -243352.925033 eV PBE+vdW (tier 2 basis)
C    -0.142069  -0.423520  0.137638
C    -0.164500  -0.358209  1.631527
O    0.896356  -0.527237  2.300133
H    -1.109469  -0.215322  -0.331085
H    0.190247  -1.427817  -0.163383
H    0.603212  0.283933  -0.249563
N    -1.348539  -0.115203  2.225816
C    -1.712581  -0.120249  3.661570
C    -0.957175  0.975592  4.454252
O    0.259537  0.845789  4.773484
H    -2.126985  0.024192  1.587029
H    -2.773387  0.167184  3.656380
C    -1.599149  -1.520580  4.310068
C    -2.394938  -1.675282  5.625809
C    -3.917426  -1.893537  5.460661
C    -4.383125  -3.336338  5.241780
N    -4.526990  -4.113090  6.548103
H    -0.540353  -1.744795  4.493691
H    -1.938541  -2.253893  3.563560
H    -2.233325  -0.793901  6.263932
H    -1.949418  -2.508356  6.191596
H    -4.297129  -1.322504  4.600078
H    -4.454617  -1.469586  6.323392
H    -3.696590  -3.920685  4.616156
H    -5.376458  -3.369299  4.779332
H    -4.833106  -5.082428  6.371732
H    -5.232920  -3.682402  7.164278
H    -3.646410  -4.164668  7.079190
N    -1.659885  2.047075  4.800581
C    -1.137369  3.189206  5.556547
H    -2.624729  2.109476  4.485764
H    -1.953835  3.629602  6.137045
H    -0.737996  3.951088  4.874121
H    -0.349063  2.850324  6.234241
Ba    2.508158  0.210365  3.952706
