35
Energy: -243352.480046 eV PBE+vdW (tier 2 basis)
C    0.094180  -0.278839  -0.425865
C    0.037620  0.178150  0.997047
O    1.096944  0.439092  1.635025
H    -0.415394  -1.241268  -0.575060
H    1.136270  -0.372534  -0.742615
H    -0.402741  0.454086  -1.076740
N    -1.157437  0.337600  1.631179
C    -2.250991  -0.641503  1.570488
C    -1.653147  -2.030047  1.976074
O    -0.494150  -2.098081  2.485654
H    -1.051501  0.788560  2.538899
H    -2.908287  -0.365961  2.410536
C    -3.108423  -0.589470  0.270018
C    -4.633651  -0.506044  0.498755
C    -5.396952  -0.449156  -0.839042
C    -6.924509  -0.483062  -0.769294
N    -7.559548  0.859592  -0.414672
H    -2.874668  -1.443262  -0.383298
H    -2.794189  0.305670  -0.281986
H    -4.847340  0.382206  1.116331
H    -4.992226  -1.372798  1.079587
H    -5.121699  -1.325554  -1.445778
H    -5.069288  0.419165  -1.434471
H    -7.299798  -1.200091  -0.028235
H    -7.348596  -0.749913  -1.744431
H    -8.588640  0.784942  -0.407094
H    -7.316384  1.585970  -1.104480
H    -7.275668  1.202630  0.512965
N    -2.402255  -3.109362  1.818605
C    -2.006466  -4.462528  2.230679
H    -3.322050  -3.000649  1.403048
H    -1.124382  -4.790432  1.668233
H    -2.834868  -5.144154  2.021766
H    -1.786965  -4.483930  3.304378
Ba    1.813539  -1.331046  3.210588
