35
Energy: -243353.111468 eV PBE+vdW (tier 2 basis)
C    -0.012842  1.566526  2.488235
C    -0.485890  0.213962  2.061022
O    0.239415  -0.520457  1.328364
H    0.960143  1.472693  2.988704
H    -0.707708  2.090519  3.152626
H    0.151270  2.179788  1.590244
N    -1.699827  -0.183956  2.484286
C    -2.490004  -1.383432  2.123919
C    -1.754398  -2.689799  2.495933
O    -0.848567  -3.172081  1.750050
H    -2.192178  0.488838  3.066449
H    -3.367747  -1.314061  2.777813
C    -3.010997  -1.355741  0.667802
C    -4.255974  -2.239781  0.460718
C    -4.947002  -1.991312  -0.896643
C    -6.239739  -2.798632  -1.019613
N    -6.972819  -2.509276  -2.323076
H    -2.210207  -1.635519  -0.030877
H    -3.266789  -0.308562  0.450075
H    -4.978634  -2.029164  1.265820
H    -3.990993  -3.304987  0.551095
H    -4.263465  -2.251315  -1.720501
H    -5.173632  -0.917252  -0.993713
H    -6.950905  -2.559892  -0.218819
H    -6.059364  -3.880754  -1.008523
H    -7.843902  -3.057924  -2.390238
H    -6.401902  -2.744351  -3.148241
H    -7.234040  -1.515277  -2.403899
N    -2.104454  -3.317869  3.612381
C    -3.089988  -2.929107  4.632142
H    -1.601916  -4.190314  3.779039
H    -3.027275  -3.653185  5.449446
H    -4.111333  -2.957652  4.233292
H    -2.868049  -1.937422  5.042968
Ba    1.330712  -2.594251  0.734717
