35
Energy: -243351.978965 eV PBE+vdW (tier 2 basis)
C    0.225708  -2.128793  1.922151
C    -0.439812  -0.904405  2.469112
O    -0.086318  -0.365579  3.531350
H    0.199900  -2.922426  2.679769
H    1.286332  -1.898758  1.750017
H    -0.216925  -2.497589  0.990425
N    -1.484115  -0.369920  1.749621
C    -2.050252  0.937625  2.082018
C    -3.001229  0.803017  3.297922
O    -4.279259  0.986384  3.247738
H    -1.823906  -0.859737  0.927862
H    -1.209478  1.540128  2.467255
C    -2.636916  1.643372  0.853820
C    -1.554446  2.024128  -0.179683
C    -2.138059  2.743974  -1.408399
C    -1.193815  2.931884  -2.594589
N    -0.119461  3.993526  -2.367318
H    -3.156320  2.551930  1.192694
H    -3.402955  1.008870  0.379526
H    -1.025569  1.117273  -0.511219
H    -0.801032  2.653361  0.323286
H    -2.580293  3.713257  -1.124834
H    -2.974792  2.153030  -1.812418
H    -0.655093  2.010624  -2.850173
H    -1.743708  3.263639  -3.483187
H    0.473668  4.098212  -3.204589
H    0.504085  3.760727  -1.582524
H    -0.534580  4.916513  -2.173921
N    -2.401990  0.471728  4.419320
C    -3.094177  0.244961  5.673698
H    -1.364199  0.237256  4.300877
H    -2.366667  -0.026908  6.445148
H    -3.807983  -0.594369  5.592322
H    -3.599185  1.164368  6.017135
Ba    -6.400101  0.963455  4.268874
