35
Energy: -243352.130104 eV PBE+vdW (tier 2 basis)
C    -0.578328  0.478535  -0.096141
C    -0.382669  0.485605  1.389930
O    0.738381  0.632597  1.908608
H    -0.310321  1.467695  -0.492542
H    -1.596735  0.230058  -0.413723
H    0.128787  -0.233088  -0.541286
N    -1.503093  0.340724  2.169483
C    -1.508847  0.145642  3.625992
C    -1.061525  1.418137  4.378422
O    -1.830838  1.961998  5.271879
H    -2.396532  0.266250  1.694985
H    -2.560705  -0.007935  3.898999
C    -0.681180  -1.081962  4.106805
C    -1.021050  -2.408309  3.403183
C    -0.034151  -3.515837  3.821778
C    -0.039384  -4.795876  2.990026
N    -1.227673  -5.712812  3.274524
H    -0.835570  -1.179049  5.192700
H    0.386267  -0.871464  3.958780
H    -0.955243  -2.266786  2.313690
H    -2.063671  -2.693318  3.623554
H    -0.142898  -3.761700  4.890976
H    0.991259  -3.127225  3.722050
H    0.848470  -5.402654  3.203918
H    -0.064979  -4.595873  1.911373
H    -1.172886  -6.571426  2.705896
H    -2.128981  -5.264683  3.062230
H    -1.248143  -6.005027  4.262345
N    0.115397  1.909636  4.089365
C    0.694366  3.103035  4.688088
H    0.598769  1.411385  3.271706
H    1.699318  3.247477  4.280939
H    0.782598  2.990594  5.778409
H    0.100878  3.996975  4.442125
Ba    -2.833948  3.446874  6.763518
