35
Energy: -243351.822490 eV PBE+vdW (tier 2 basis)
C    0.271240  -0.747557  1.740538
C    -0.568976  -1.206045  2.883183
O    -0.043362  -2.049390  3.719164
H    -0.246995  -0.081413  1.052303
H    0.613340  -1.618713  1.170059
H    1.154079  -0.232395  2.149662
N    -1.770619  -0.716038  3.180520
C    -2.773599  -0.118451  2.281337
C    -3.073345  -1.193038  1.183372
O    -2.183157  -1.971724  0.844123
H    -2.157694  -1.091455  4.045022
H    -3.659648  -0.012124  2.917219
C    -2.405736  1.307539  1.739873
C    -2.453562  1.527216  0.214877
C    -1.861354  2.887858  -0.214251
C    -2.758483  4.121037  -0.084867
N    -3.651427  4.321339  -1.307960
H    -1.395861  1.549773  2.097558
H    -3.066706  2.024857  2.245565
H    -3.483640  1.412406  -0.159715
H    -1.880150  0.739355  -0.294690
H    -1.491961  2.820676  -1.249962
H    -0.962262  3.098283  0.383734
H    -2.166483  5.040600  -0.011184
H    -3.432843  4.081695  0.779429
H    -4.262400  3.512342  -1.485202
H    -3.087441  4.471076  -2.157893
H    -4.258379  5.147568  -1.197431
N    -4.313814  -1.196842  0.655184
C    -5.495068  -0.465139  1.109908
H    -4.457194  -1.926628  -0.040620
H    -5.299617  0.611103  1.203050
H    -5.874943  -0.845550  2.068649
H    -6.285479  -0.592977  0.364216
Ba    1.143866  -3.776558  4.738228
