35
Energy: -243352.740837 eV PBE+vdW (tier 2 basis)
C    0.087275  0.299646  -0.421419
C    0.343690  0.484247  1.037928
O    1.506312  0.733299  1.467751
H    0.096553  1.269105  -0.943437
H    -0.855670  -0.211261  -0.638197
H    0.918983  -0.283860  -0.838749
N    -0.674494  0.374392  1.935970
C    -1.955348  1.051910  1.744399
C    -1.710857  2.573084  2.041086
O    -0.531690  2.994598  2.249976
H    -0.340650  0.396523  2.900932
H    -2.208523  0.990124  0.674028
C    -3.091253  0.383224  2.550967
C    -3.387387  -1.044097  2.050033
C    -4.694232  -1.694131  2.556709
C    -4.647279  -2.195591  3.999424
N    -5.904486  -2.988143  4.339247
H    -4.001491  0.993504  2.449006
H    -2.834444  0.398316  3.622263
H    -2.535127  -1.705225  2.267097
H    -3.467616  -1.014574  0.953085
H    -4.900634  -2.549926  1.894847
H    -5.535372  -0.993743  2.429195
H    -4.593278  -1.387938  4.739604
H    -3.807487  -2.881412  4.168930
H    -5.881256  -3.340370  5.308148
H    -6.014582  -3.806003  3.720522
H    -6.757540  -2.417575  4.241700
N    -2.746843  3.393913  2.021935
C    -2.663687  4.846057  2.224380
H    -3.664271  3.007796  1.817849
H    -2.124343  5.318784  1.394336
H    -2.154518  5.067416  3.168802
H    -3.679362  5.248172  2.262572
Ba    1.988885  3.007286  2.326843
