35
Energy: -243351.796358 eV PBE+vdW (tier 2 basis)
C    0.825511  -0.645216  0.076491
C    0.485583  -0.641868  1.535369
O    1.230700  -1.087331  2.416599
H    1.053207  -1.675481  -0.229264
H    1.740360  -0.059261  -0.086707
H    0.031720  -0.248883  -0.565810
N    -0.751805  -0.125959  1.886349
C    -1.081654  0.067646  3.296303
C    -2.573547  -0.187496  3.522570
O    -3.204131  0.328874  4.519998
H    -1.200027  0.476248  1.197830
H    -0.576953  -0.775319  3.805207
C    -0.528642  1.383224  3.909471
C    0.189251  1.228427  5.265516
C    1.422140  0.301814  5.293489
C    2.622819  0.812386  4.484569
N    3.421038  -0.346074  3.923580
H    -1.332730  2.125997  4.008558
H    0.159054  1.811137  3.168067
H    -0.518138  0.842806  6.017216
H    0.474259  2.232099  5.614693
H    1.140588  -0.693755  4.920609
H    1.726207  0.160746  6.339583
H    3.302266  1.422995  5.089834
H    2.323837  1.403940  3.611549
H    2.813188  -0.857830  3.239326
H    3.722420  -1.000056  4.658693
H    4.269643  -0.024757  3.438083
N    -3.188452  -1.001481  2.686419
C    -4.578795  -1.439351  2.781891
H    -2.612864  -1.368615  1.926572
H    -4.779232  -2.147250  1.972622
H    -5.263010  -0.587974  2.663831
H    -4.758383  -1.952604  3.736323
Ba    -4.727284  1.133577  6.135395
