35
Energy: -243352.726722 eV PBE+vdW (tier 2 basis)
C    -0.318211  -0.169404  0.265230
C    -0.415958  -0.174146  1.755757
O    0.592978  -0.427430  2.473274
H    0.382389  -0.957985  -0.036195
H    0.107471  0.782675  -0.088993
H    -1.280167  -0.327024  -0.232202
N    -1.602864  0.095119  2.366455
C    -2.440934  1.225738  1.971875
C    -1.672788  2.531184  2.385524
O    -0.535375  2.448712  2.942722
H    -1.559023  -0.046142  3.377165
H    -2.513733  1.233577  0.873126
C    -3.855294  1.113838  2.580933
C    -4.687979  -0.071285  2.052195
C    -6.040455  -0.174118  2.784734
C    -6.889789  -1.412340  2.497583
N    -7.651456  -1.350151  1.175386
H    -4.399097  2.051067  2.392346
H    -3.763123  1.045480  3.677634
H    -4.126337  -1.007745  2.191799
H    -4.831449  0.049773  0.965322
H    -6.642850  0.736395  2.629881
H    -5.855181  -0.208629  3.869408
H    -7.662373  -1.536462  3.265566
H    -6.294688  -2.333527  2.460829
H    -8.292115  -0.543207  1.146953
H    -8.227633  -2.196165  1.046207
H    -7.027747  -1.282548  0.359927
N    -2.228161  3.699079  2.111746
C    -1.623313  5.002556  2.415040
H    -3.126865  3.707153  1.637208
H    -2.350611  5.783871  2.179887
H    -0.723585  5.158712  1.807320
H    -1.365645  5.061171  3.478257
Ba    1.651506  1.450823  3.701788
