35
Energy: -243351.933201 eV PBE+vdW (tier 2 basis)
C    -0.968239  1.233767  -0.088405
C    -0.671913  0.823019  1.320555
O    0.501822  0.688645  1.749769
H    -0.445441  2.175211  -0.303804
H    -2.035216  1.353820  -0.303087
H    -0.558276  0.481892  -0.777539
N    -1.726767  0.618628  2.147940
C    -1.695817  0.050149  3.509137
C    -1.196828  1.050530  4.562435
O    -1.833786  1.172516  5.680385
H    -2.651437  0.772751  1.756471
H    -2.753774  -0.103211  3.753485
C    -1.021638  -1.362457  3.603683
C    0.482681  -1.475827  3.933135
C    1.180199  -2.684295  3.278851
C    1.351405  -2.653969  1.761534
N    2.211077  -1.494282  1.283697
H    -1.256302  -1.841025  2.642302
H    -1.586925  -1.937966  4.349114
H    0.610083  -1.577149  5.019786
H    1.017452  -0.560593  3.657217
H    0.629716  -3.610507  3.503441
H    2.167609  -2.820761  3.746803
H    0.401102  -2.561141  1.220597
H    1.840283  -3.573036  1.417853
H    2.457084  -1.607112  0.291002
H    3.096486  -1.443188  1.805350
H    1.698712  -0.582254  1.387593
N    -0.120989  1.755305  4.298733
C    0.479894  2.757900  5.175539
H    0.329296  1.542610  3.389301
H    -0.226250  3.576147  5.368569
H    1.357212  3.176267  4.675063
H    0.801088  2.305390  6.122852
Ba    -3.012922  1.610980  7.676983
