35
Energy: -243352.205326 eV PBE+vdW (tier 2 basis)
C    1.445477  1.179148  1.093067
C    0.713421  -0.062498  1.483240
O    1.401833  -1.141452  1.720273
H    2.119305  0.955758  0.255363
H    2.071507  1.512651  1.933670
H    0.789281  2.003267  0.802667
N    -0.595112  -0.103910  1.601759
C    -1.572782  0.997003  1.627265
C    -2.653831  0.446451  2.604009
O    -2.735372  -0.783500  2.730817
H    -1.071341  -0.965833  1.942236
H    -1.092679  1.891952  2.041722
C    -2.171381  1.350559  0.240064
C    -3.223942  0.385841  -0.335006
C    -3.708215  0.865029  -1.715704
C    -4.717867  -0.028042  -2.431977
N    -6.128497  0.072323  -1.855153
H    -1.338041  1.457080  -0.471493
H    -2.611601  2.354258  0.330899
H    -4.065147  0.310487  0.373836
H    -2.808182  -0.629723  -0.423993
H    -2.848136  0.932275  -2.399424
H    -4.101511  1.893887  -1.655791
H    -4.449316  -1.090905  -2.386303
H    -4.816817  0.256737  -3.486036
H    -6.784916  -0.526782  -2.377785
H    -6.488166  1.036369  -1.911215
H    -6.168814  -0.219240  -0.869236
N    -3.465817  1.318164  3.221141
C    -3.360114  2.778892  3.270988
H    -4.135104  0.876449  3.849286
H    -4.198933  3.158657  3.861003
H    -3.428736  3.229780  2.273668
H    -2.432954  3.105678  3.760579
Ba    2.896545  -2.805623  2.356495
