35
Energy: -243351.938187 eV PBE+vdW (tier 2 basis)
C    -0.073967  1.163597  0.943410
C    -0.137407  -0.109461  1.731492
O    0.854379  -0.944642  1.668728
H    -0.958343  1.794696  1.078648
H    0.015846  0.932686  -0.127839
H    0.809866  1.743555  1.244723
N    -1.209635  -0.331663  2.460021
C    -1.610897  -1.466228  3.304994
C    -3.138731  -1.557364  3.037149
O    -3.755712  -0.486554  3.021437
H    -1.978863  0.353966  2.418814
H    -1.055121  -2.360711  3.003193
C    -1.351801  -1.111825  4.797183
C    -2.009422  -2.045546  5.838766
C    -3.429999  -1.668162  6.322420
C    -3.423744  -0.530025  7.341242
N    -4.828488  -0.247194  7.859742
H    -1.683596  -0.073765  4.946002
H    -0.263840  -1.109137  4.948760
H    -1.345238  -2.103403  6.713166
H    -2.049560  -3.073349  5.453168
H    -3.871675  -2.561059  6.791330
H    -4.074482  -1.399533  5.472214
H    -3.063612  0.418504  6.924234
H    -2.820764  -0.772174  8.225468
H    -4.829006  0.510689  8.558529
H    -5.238040  -1.078515  8.311349
H    -5.466159  0.033813  7.100497
N    -3.722103  -2.760462  2.887901
C    -3.100397  -4.076429  2.742854
H    -4.720096  -2.699777  2.688426
H    -2.305704  -4.230683  3.481269
H    -2.699967  -4.229984  1.730962
H    -3.863619  -4.839785  2.923213
Ba    2.915633  -1.695365  0.832869
