35
Energy: -243351.944859 eV PBE+vdW (tier 2 basis)
C    -0.048208  0.270314  0.010402
C    -0.173285  0.068048  1.493126
O    0.801960  -0.110534  2.239806
H    0.673197  -0.449100  -0.394490
H    0.361012  1.273584  -0.180232
H    -0.997483  0.184623  -0.530037
N    -1.446770  0.096053  2.011110
C    -1.672708  0.133994  3.455217
C    -2.899349  -0.728358  3.779937
O    -2.900365  -1.989722  3.513194
H    -2.189137  0.423667  1.397596
H    -0.811996  -0.402784  3.889049
C    -1.718165  1.569869  4.031166
C    -0.427768  2.384934  3.825095
C    0.737972  2.010126  4.761194
C    2.098930  2.515677  4.276659
N    2.776428  1.512214  3.350185
H    -1.931517  1.518300  5.111726
H    -2.543420  2.126663  3.556139
H    -0.675887  3.442755  3.988269
H    -0.125541  2.323748  2.769460
H    0.798057  0.922520  4.926171
H    0.559309  2.447749  5.752913
H    2.794136  2.687819  5.105363
H    2.008524  3.454320  3.716559
H    3.470845  1.967435  2.743830
H    2.085692  0.986345  2.755638
H    3.280849  0.802374  3.896413
N    -3.949896  -0.165570  4.341650
C    -5.183479  -0.847873  4.735109
H    -3.891518  0.834632  4.526488
H    -5.861937  -0.113177  5.177392
H    -4.972492  -1.619372  5.487036
H    -5.675646  -1.289451  3.858955
Ba    -3.054320  -4.309412  3.145521
