35
Energy: -243351.840987 eV PBE+vdW (tier 2 basis)
C    -0.962732  0.228055  -0.637079
C    -0.172294  0.213293  0.630147
O    1.111185  0.034179  0.600691
H    -1.666124  -0.618339  -0.666101
H    -0.301193  0.158659  -1.503946
H    -1.570243  1.139938  -0.724180
N    -0.778021  0.379504  1.798427
C    -2.233332  0.560203  1.999230
C    -2.790206  1.954122  1.586967
O    -3.851357  1.956259  0.969860
H    -0.178580  0.374859  2.623976
H    -2.734827  -0.116945  1.296692
C    -2.645153  0.136903  3.427300
C    -4.178705  0.046940  3.632290
C    -4.854482  1.350465  4.097210
C    -6.376143  1.371025  3.994283
N    -7.069096  0.438721  4.987269
H    -2.202961  0.810782  4.177579
H    -2.215114  -0.859107  3.606779
H    -4.350620  -0.748637  4.373107
H    -4.645348  -0.294121  2.695133
H    -4.534705  2.191702  3.467324
H    -4.540410  1.606719  5.122257
H    -6.725407  1.067776  2.999086
H    -6.773148  2.370064  4.208789
H    -8.094093  0.506478  4.900639
H    -6.829660  0.677920  5.960450
H    -6.817131  -0.547752  4.838082
N    -2.141224  3.092355  1.942073
C    -0.943320  3.283766  2.750496
H    -2.604914  3.930709  1.596370
H    -0.931836  4.318263  3.108305
H    -0.018193  3.121884  2.177633
H    -0.941139  2.641609  3.640406
Ba    3.317218  -0.442260  -0.051674
