35
Energy: -243351.231201 eV PBE+vdW (tier 2 basis)
C    -2.190896  1.203673  0.020938
C    -1.919434  0.279166  1.179944
O    -1.103344  0.581115  2.052714
H    -1.310712  1.168503  -0.638274
H    -2.258413  2.236469  0.379874
H    -3.079275  0.972506  -0.573187
N    -2.496559  -0.988170  1.216267
C    -3.895889  -1.356187  0.943477
C    -4.246830  -1.202751  -0.544114
O    -3.541833  -1.824285  -1.423836
H    -2.109278  -1.514981  2.000425
H    -3.916667  -2.453694  1.054136
C    -4.916010  -0.806587  1.987426
C    -4.723205  0.641721  2.489227
C    -3.833415  0.729455  3.750280
C    -3.238475  2.126549  3.996164
N    -1.785267  2.025071  4.419801
H    -4.862263  -1.486115  2.850556
H    -5.939204  -0.963645  1.612054
H    -5.709239  1.067257  2.719103
H    -4.313052  1.281563  1.692613
H    -3.005947  0.012069  3.661061
H    -4.413508  0.410252  4.626470
H    -3.232175  2.736445  3.084580
H    -3.767636  2.688550  4.773366
H    -1.366028  2.954204  4.564896
H    -1.251930  1.529658  3.670710
H    -1.676852  1.503438  5.300417
N    -5.299902  -0.498648  -0.902893
C    -5.800809  -0.336903  -2.270233
H    -5.825692  -0.046579  -0.157882
H    -6.634904  0.369699  -2.252931
H    -6.165332  -1.295491  -2.661363
H    -5.014070  0.063120  -2.921244
Ba    -2.320177  -3.193650  -2.910838
