35
Energy: -243352.556435 eV PBE+vdW (tier 2 basis)
C    -1.010857  0.343371  0.538140
C    -0.642292  -0.241069  1.865825
O    0.563750  -0.286475  2.237538
H    -1.832434  1.062553  0.636013
H    -1.333995  -0.441227  -0.163582
H    -0.139660  0.848189  0.110777
N    -1.602740  -0.727523  2.698922
C    -2.691869  -1.617808  2.266068
C    -2.047135  -2.799306  1.467505
O    -0.789744  -2.971349  1.500905
H    -1.229164  -0.954659  3.619473
H    -3.047593  -2.080384  3.201393
C    -3.927859  -0.926874  1.637941
C    -4.496949  0.167650  2.563924
C    -5.950331  0.616416  2.292038
C    -6.132469  1.528346  1.079454
N    -7.557744  2.065866  1.014807
H    -4.701728  -1.698895  1.500410
H    -3.695908  -0.539566  0.636589
H    -3.830732  1.043358  2.568193
H    -4.486221  -0.210972  3.596724
H    -6.287473  1.157320  3.190274
H    -6.602811  -0.266733  2.199608
H    -5.960170  1.020631  0.122508
H    -5.483438  2.411949  1.128474
H    -7.693048  2.688801  0.204224
H    -7.795667  2.608717  1.859004
H    -8.252063  1.307778  0.937014
N    -2.839881  -3.634663  0.818556
C    -2.381365  -4.842631  0.119913
H    -3.840133  -3.459520  0.834838
H    -1.910619  -5.536290  0.826720
H    -1.666786  -4.578539  -0.667981
H    -3.248766  -5.329178  -0.333282
Ba    1.634515  -2.520710  2.038318
