35
Energy: -243351.930817 eV PBE+vdW (tier 2 basis)
C    -0.768572  -0.203215  -0.023547
C    -0.589444  -0.365290  1.455230
O    0.563098  -0.710777  1.926051
H    -0.531404  -1.149557  -0.530561
H    -0.080917  0.567916  -0.399469
H    -1.786522  0.084032  -0.307633
N    -1.637823  -0.146495  2.233105
C    -1.775111  -0.215257  3.701286
C    -3.190226  -0.805087  3.946765
O    -4.167501  -0.086135  3.656245
H    -2.493942  0.142466  1.755647
H    -0.976472  -0.855584  4.091629
C    -1.731338  1.199034  4.315654
C    -2.057940  1.225316  5.828091
C    -2.897799  2.435586  6.293336
C    -4.411374  2.242284  6.364857
N    -5.100448  2.130628  5.014729
H    -2.446012  1.814662  3.751660
H    -0.742673  1.639504  4.128802
H    -1.116915  1.220342  6.392126
H    -2.576119  0.300802  6.130290
H    -2.652237  3.333687  5.704027
H    -2.606758  2.688105  7.322911
H    -4.879819  3.090081  6.878883
H    -4.674992  1.329348  6.914066
H    -4.750760  1.306304  4.454635
H    -6.115236  2.012884  5.138701
H    -4.967390  2.985336  4.459463
N    -3.324732  -2.040139  4.436668
C    -2.284956  -3.002941  4.805100
H    -4.294221  -2.339985  4.541067
H    -1.710817  -3.330337  3.928474
H    -2.775610  -3.883769  5.229043
H    -1.613671  -2.596104  5.571692
Ba    2.866194  -1.248461  1.716651
