35
Energy: -243351.767699 eV PBE+vdW (tier 2 basis)
C    -0.033855  0.843516  0.168386
C    -0.326874  -0.420463  0.914332
O    0.404252  -1.465468  0.722382
H    -0.737664  1.652278  0.392888
H    -0.063044  0.653101  -0.913727
H    0.976792  1.195662  0.421144
N    -1.344570  -0.423369  1.766365
C    -1.782514  -1.507119  2.658059
C    -2.925353  -2.409759  2.137291
O    -2.931608  -3.580971  2.564043
H    -1.831543  0.466466  1.855808
H    -0.927451  -2.183603  2.771102
C    -2.170004  -0.933515  4.049014
C    -2.125387  -1.980516  5.195436
C    -3.411596  -2.143070  6.024072
C    -4.629865  -2.761098  5.344913
N    -4.372161  -4.176976  4.857273
H    -3.163504  -0.463330  3.980432
H    -1.467093  -0.121468  4.279517
H    -1.335022  -1.684589  5.896588
H    -1.805362  -2.954736  4.798931
H    -3.737359  -1.164572  6.408231
H    -3.172805  -2.731195  6.924333
H    -4.964733  -2.200595  4.462399
H    -5.469979  -2.811409  6.047225
H    -5.252255  -4.652638  4.619641
H    -3.907762  -4.744183  5.578910
H    -3.773948  -4.150026  3.992516
N    -3.897168  -1.951273  1.328574
C    -4.186633  -0.603621  0.832163
H    -4.565182  -2.676562  1.070742
H    -5.215820  -0.597445  0.460167
H    -3.532183  -0.317333  -0.001029
H    -4.134964  0.144806  1.633234
Ba    2.172884  -2.773953  -0.162525
