35
Energy: -243352.119826 eV PBE+vdW (tier 2 basis)
C    -0.008611  -0.322831  0.407763
C    -0.075564  0.046185  1.854743
O    1.035087  0.186810  2.515676
H    -0.948615  -0.715801  0.011555
H    0.776990  -1.072046  0.253640
H    0.262968  0.567189  -0.181482
N    -1.223428  0.250142  2.467358
C    -2.567089  0.372824  1.873198
C    -3.278592  1.378528  2.818700
O    -2.935629  1.394860  4.010018
H    -1.244847  0.556166  3.456066
H    -2.453882  0.805687  0.871361
C    -3.356233  -0.965145  1.745036
C    -4.288597  -1.408222  2.890255
C    -3.615737  -1.884568  4.187857
C    -4.519670  -2.694739  5.114879
N    -5.676362  -1.881105  5.691520
H    -2.641078  -1.770419  1.518216
H    -3.980746  -0.864010  0.846730
H    -4.890042  -2.234005  2.477902
H    -4.999270  -0.591221  3.099048
H    -3.173144  -1.038159  4.735636
H    -2.785519  -2.566215  3.944790
H    -3.968211  -3.076302  5.982090
H    -4.984174  -3.545668  4.600251
H    -6.316929  -1.549496  4.957366
H    -5.339589  -1.055876  6.207933
H    -6.234793  -2.448286  6.346679
N    -4.244188  2.127109  2.271199
C    -5.035710  3.110797  3.012637
H    -4.406896  2.054143  1.270936
H    -4.890082  4.109021  2.583399
H    -4.701794  3.114066  4.053408
H    -6.101579  2.857366  2.962985
Ba    3.235914  0.596237  3.179482
