35
Energy: -243352.816862 eV PBE+vdW (tier 2 basis)
C    -0.060598  -1.109528  0.431414
C    -0.105893  -0.550166  1.812733
O    0.919232  -0.043585  2.357754
H    -1.013427  -1.536383  0.101521
H    0.718725  -1.881850  0.375383
H    0.234435  -0.312607  -0.266310
N    -1.269508  -0.582949  2.495368
C    -1.397431  0.054539  3.809737
C    -0.491593  -0.643560  4.860241
O    0.458861  0.055119  5.336448
H    -2.089666  -0.956129  2.025978
H    -0.900311  1.030306  3.713230
C    -2.847122  0.423381  4.219786
C    -3.888236  -0.667103  4.521327
C    -5.243286  -0.129463  5.044594
C    -6.132370  0.530102  3.990036
N    -7.492483  0.891682  4.575027
H    -3.205918  1.092517  3.421572
H    -2.739118  1.061130  5.110696
H    -3.510547  -1.326254  5.312287
H    -4.071319  -1.309102  3.644605
H    -5.060566  0.573410  5.873346
H    -5.784877  -0.985846  5.475434
H    -6.339540  -0.140957  3.146685
H    -5.719904  1.467106  3.596796
H    -8.103556  1.329067  3.868561
H    -7.410102  1.555157  5.359948
H    -7.987054  0.059653  4.931434
N    -0.623296  -1.910027  5.239069
C    -1.488754  -2.988140  4.759697
H    0.049163  -2.183912  5.958014
H    -2.052669  -2.679257  3.879303
H    -2.179861  -3.304451  5.550442
H    -0.862480  -3.846645  4.487441
Ba    2.454372  0.842890  4.079459
