35
Energy: -243352.838661 eV PBE+vdW (tier 2 basis)
C    -0.726457  0.594837  0.031680
C    -0.576425  0.193115  1.463915
O    0.564829  -0.059849  1.947178
H    -1.756950  0.822226  -0.260351
H    -0.347752  -0.219390  -0.603064
H    -0.095592  1.471117  -0.169497
N    -1.695739  0.114112  2.209907
C    -1.869995  -0.361230  3.601019
C    -1.039710  0.486954  4.594161
O    0.187559  0.244660  4.797507
H    -2.556436  0.345658  1.720999
H    -2.926658  -0.156433  3.813023
C    -1.632629  -1.880122  3.760868
C    -2.229237  -2.477257  5.055791
C    -3.753591  -2.738229  5.027416
C    -4.208576  -4.075744  4.435187
N    -4.145693  -5.218951  5.445038
H    -0.554334  -2.081943  3.727441
H    -2.061104  -2.371221  2.874567
H    -2.000548  -1.819868  5.907838
H    -1.686981  -3.409644  5.277668
H    -4.265804  -1.960861  4.440642
H    -4.172980  -2.632571  6.040172
H    -3.603008  -4.395636  3.577750
H    -5.256309  -4.035056  4.115401
H    -4.448281  -6.108115  5.017978
H    -4.768437  -5.044244  6.248311
H    -3.197833  -5.368553  5.818381
N    -1.644821  1.473493  5.246105
C    -3.032528  1.945861  5.140134
H    -1.046021  1.972798  5.904748
H    -3.126579  2.847243  5.752553
H    -3.739902  1.201506  5.526849
H    -3.285290  2.213621  4.107644
Ba    2.344457  0.089267  3.589550
