35
Energy: -243352.470407 eV PBE+vdW (tier 2 basis)
C    -0.926582  0.766252  1.799443
C    -0.215820  -0.248573  2.638018
O    1.045972  -0.270940  2.689095
H    -0.211930  1.526473  1.470844
H    -1.737562  1.250981  2.355325
H    -1.367415  0.299577  0.904539
N    -0.913435  -1.162618  3.369386
C    -2.037102  -1.955458  2.844387
C    -1.551635  -2.635008  1.518480
O    -0.319307  -2.618547  1.215473
H    -0.303787  -1.687892  3.994791
H    -2.143931  -2.782937  3.564421
C    -3.404649  -1.231822  2.782778
C    -3.802725  -0.562085  4.113287
C    -5.104247  0.269129  4.024122
C    -6.428969  -0.455160  4.279695
N    -6.799104  -0.496867  5.760959
H    -4.168300  -1.976815  2.507944
H    -3.408067  -0.485033  1.976933
H    -2.991550  0.109146  4.426172
H    -3.869389  -1.324247  4.908019
H    -5.184978  0.716715  3.022625
H    -5.034411  1.134901  4.701036
H    -6.429168  -1.497995  3.938754
H    -7.264513  0.060924  3.792717
H    -7.693587  -0.989207  5.908151
H    -6.913061  0.454468  6.142500
H    -6.089792  -0.973926  6.334677
N    -2.438494  -3.258630  0.762026
C    -2.110196  -4.010731  -0.456201
H    -3.412500  -3.243086  1.048667
H    -3.034089  -4.430772  -0.861763
H    -1.417014  -4.827716  -0.223930
H    -1.660727  -3.347539  -1.204399
Ba    2.135346  -2.033502  1.320546
