35
Energy: -243351.283768 eV PBE+vdW (tier 2 basis)
C    -0.270138  0.852557  0.372034
C    -0.148616  -0.143136  1.490999
O    0.929018  -0.675923  1.772278
H    -1.287887  1.088105  0.046016
H    0.310631  0.509803  -0.491381
H    0.205213  1.785947  0.710726
N    -1.246621  -0.430250  2.295544
C    -2.630339  -0.563293  1.845061
C    -3.594498  -0.016300  2.918410
O    -4.567432  -0.739182  3.373058
H    -0.978628  -1.056029  3.056354
H    -2.756344  0.106485  0.979084
C    -2.963422  -2.000806  1.377722
C    -2.000295  -2.525121  0.284532
C    -0.750587  -3.269713  0.811827
C    0.431138  -3.243766  -0.175017
N    1.746078  -3.050344  0.553754
H    -3.987038  -1.996948  0.975177
H    -2.958976  -2.684599  2.241938
H    -1.693876  -1.682548  -0.355141
H    -2.560893  -3.193727  -0.381322
H    -1.011663  -4.309013  1.052609
H    -0.416600  -2.815633  1.753859
H    0.359149  -2.397841  -0.869511
H    0.513873  -4.159744  -0.770128
H    2.538077  -3.003820  -0.102401
H    1.943069  -3.816853  1.210940
H    1.700287  -2.149171  1.090826
N    -3.440821  1.210396  3.381151
C    -2.479531  2.249215  2.983412
H    -4.091740  1.480315  4.117890
H    -2.871571  3.211269  3.326241
H    -2.375836  2.285700  1.895029
H    -1.502767  2.070528  3.447067
Ba    -6.520740  -1.828573  4.135912
