35
Energy: -243352.005099 eV PBE+vdW (tier 2 basis)
C    0.811601  0.264028  0.616568
C    0.520102  -1.084934  1.200697
O    1.316459  -2.076073  0.936159
H    1.800576  0.608068  0.951347
H    0.073519  1.021145  0.900645
H    0.824068  0.198573  -0.480877
N    -0.542744  -1.210217  1.963195
C    -1.137658  -2.365996  2.650132
C    -2.657890  -2.075212  2.523124
O    -3.013681  -0.902648  2.676996
H    -1.158116  -0.390399  2.090538
H    -0.832041  -3.288004  2.143995
C    -0.692602  -2.363968  4.144701
C    -1.610208  -3.080319  5.164562
C    -2.605120  -2.137136  5.874687
C    -3.415166  -2.880296  6.933847
N    -4.322036  -1.935411  7.713208
H    -0.574789  -1.314220  4.449485
H    0.310596  -2.808078  4.185585
H    -0.963658  -3.540635  5.924966
H    -2.151500  -3.914150  4.694102
H    -3.279439  -1.663187  5.145001
H    -2.034513  -1.325115  6.354462
H    -2.775193  -3.365216  7.681990
H    -4.074836  -3.642163  6.500132
H    -4.875317  -2.442940  8.419784
H    -4.986349  -1.446272  7.095841
H    -3.779838  -1.214005  8.210803
N    -3.510403  -3.093969  2.300727
C    -3.204589  -4.478145  1.938959
H    -4.476617  -2.790118  2.187312
H    -4.118031  -5.071333  2.044815
H    -2.453001  -4.913826  2.607857
H    -2.865491  -4.565010  0.897143
Ba    3.154575  -3.053621  -0.141588
