35
Energy: -243351.983292 eV PBE+vdW (tier 2 basis)
C    -0.118370  1.817824  0.319775
C    0.088178  0.751616  1.344662
O    1.287930  0.437118  1.724261
H    -0.372616  1.356074  -0.648277
H    0.796435  2.402011  0.187807
H    -0.947940  2.491104  0.574760
N    -0.945341  0.101636  1.864102
C    -2.370498  0.359636  1.552699
C    -2.889830  1.691252  2.191426
O    -3.240280  2.572197  1.413383
H    -0.728393  -0.616448  2.555476
H    -2.421890  0.584871  0.480792
C    -3.248511  -0.878794  1.811255
C    -4.720750  -0.583923  1.466201
C    -5.633168  -1.822025  1.549059
C    -7.069188  -1.450551  1.182903
N    -8.002397  -2.653647  1.232942
H    -3.165857  -1.211730  2.856563
H    -2.874015  -1.701504  1.182424
H    -4.775120  -0.160012  0.451446
H    -5.105986  0.197325  2.139388
H    -5.604107  -2.244497  2.566529
H    -5.264408  -2.602372  0.863815
H    -7.145331  -1.053549  0.162875
H    -7.494998  -0.710619  1.872055
H    -8.035190  -3.073925  2.173091
H    -7.709243  -3.391789  0.576510
H    -8.966871  -2.388145  0.983046
N    -2.920931  1.845582  3.539762
C    -2.668390  0.887566  4.607862
H    -3.290085  2.754187  3.815087
H    -1.737804  0.327832  4.447429
H    -3.495483  0.176370  4.745352
H    -2.547778  1.441135  5.544454
Ba    3.620054  0.387375  1.941146
