35
Energy: -243352.171003 eV PBE+vdW (tier 2 basis)
C    -0.469706  0.740694  0.050455
C    -0.079415  0.303880  1.422362
O    1.087942  0.654482  1.881978
H    0.268732  0.368204  -0.672759
H    -1.461246  0.390833  -0.248140
H    -0.450894  1.837958  -0.002862
N    -0.860438  -0.417240  2.190309
C    -2.235602  -0.921411  2.025392
C    -2.677123  -1.051573  3.520126
O    -1.781902  -1.272760  4.345258
H    -0.557976  -0.683154  3.154290
H    -2.838196  -0.192777  1.470358
C    -2.186314  -2.310752  1.329409
C    -3.470840  -3.160163  1.259778
C    -4.451456  -2.840410  0.113087
C    -5.555963  -3.897097  0.071910
N    -6.494074  -3.724089  -1.116601
H    -1.439840  -2.898287  1.882736
H    -1.775562  -2.169017  0.317610
H    -3.994994  -3.141083  2.226418
H    -3.136830  -4.200855  1.135448
H    -3.903499  -2.843415  -0.843473
H    -4.894045  -1.838650  0.231044
H    -6.192823  -3.870303  0.965022
H    -5.142971  -4.909503  -0.021229
H    -7.223914  -4.452944  -1.122279
H    -5.989902  -3.792747  -2.012705
H    -6.974041  -2.812825  -1.102293
N    -3.971889  -0.944685  3.861530
C    -5.126489  -0.566161  3.059001
H    -4.131686  -1.083946  4.859341
H    -5.765083  -1.433662  2.838486
H    -4.816127  -0.098409  2.119409
H    -5.726987  0.166638  3.610362
Ba    3.136996  1.392209  2.685454
