35
Energy: -243351.769847 eV PBE+vdW (tier 2 basis)
C    0.174592  0.661315  0.234342
C    0.084862  0.290785  1.673779
O    1.165334  0.223667  2.387173
H    -0.564198  0.110260  -0.355805
H    1.179056  0.449327  -0.143235
H    -0.011354  1.740152  0.119299
N    -1.069617  0.036826  2.279565
C    -2.500843  0.085098  1.843679
C    -2.847673  -1.177650  1.018585
O    -2.366479  -1.335683  -0.122994
H    -0.960949  -0.196514  3.265784
H    -3.019824  0.017815  2.804596
C    -2.958707  1.429368  1.193050
C    -3.214011  1.503490  -0.322132
C    -4.583045  0.947742  -0.774329
C    -4.606762  0.499978  -2.233046
N    -4.007407  -0.897060  -2.389980
H    -2.226516  2.195625  1.483213
H    -3.882724  1.720475  1.712929
H    -2.403554  1.012195  -0.874093
H    -3.167433  2.563155  -0.609588
H    -5.349917  1.725638  -0.657090
H    -4.925375  0.117166  -0.135397
H    -4.022008  1.171220  -2.873363
H    -5.623368  0.450573  -2.637884
H    -3.586020  -1.031165  -3.317789
H    -3.286892  -1.096383  -1.648373
H    -4.737972  -1.613053  -2.293052
N    -3.691674  -2.064082  1.569059
C    -4.352079  -2.040896  2.880746
H    -3.851935  -2.889990  0.993922
H    -5.028292  -2.899268  2.931443
H    -4.957108  -1.136004  3.014221
H    -3.630426  -2.138396  3.702123
Ba    3.331248  0.273318  3.315195
