35
Energy: -243351.848953 eV PBE+vdW (tier 2 basis)
C    0.912878  -0.152836  0.307256
C    0.560596  0.027068  1.756601
O    1.421657  0.105815  2.647980
H    1.701994  0.560919  0.040505
H    0.068479  -0.034284  -0.380650
H    1.332633  -1.159412  0.165473
N    -0.780866  0.103747  2.039370
C    -1.469102  0.114734  3.334688
C    -2.168476  1.458731  3.619140
O    -3.414212  1.431556  3.984768
H    -1.390882  -0.001753  1.234076
H    -2.305103  -0.594682  3.232447
C    -0.649345  -0.333063  4.574284
C    -0.135402  -1.780010  4.474135
C    0.940189  -2.154184  5.511885
C    2.266723  -1.394767  5.488665
N    3.011643  -1.522466  4.173476
H    -1.318964  -0.246019  5.444324
H    0.172906  0.369598  4.742158
H    0.238951  -1.978580  3.460873
H    -0.976526  -2.475172  4.610648
H    1.142957  -3.232763  5.423283
H    0.543215  -2.023488  6.530186
H    2.929822  -1.782371  6.270911
H    2.148841  -0.317344  5.655351
H    3.101478  -2.504787  3.882343
H    3.965031  -1.144919  4.255916
H    2.514332  -0.976686  3.422038
N    -1.559631  2.621974  3.518582
C    -0.171975  2.941931  3.158764
H    -2.148960  3.432355  3.711111
H    0.142071  3.798597  3.764556
H    -0.117131  3.220110  2.098362
H    0.494643  2.099165  3.353366
Ba    -5.696748  1.476835  4.593746
