35
Energy: -243352.956368 eV PBE+vdW (tier 2 basis)
C    0.247770  1.857684  2.070845
C    -0.098592  0.406177  2.205515
O    0.809993  -0.453838  2.392892
H    -0.618889  2.512484  1.932257
H    0.926523  1.977592  1.214364
H    0.803605  2.188606  2.958283
N    -1.402730  0.078134  2.120247
C    -2.081166  -1.233079  2.058244
C    -1.924952  -2.085419  3.331931
O    -0.791316  -2.362502  3.828394
H    -2.025159  0.872071  1.997788
H    -3.142121  -0.960066  2.002056
C    -1.778361  -2.052926  0.773973
C    -2.273465  -1.324514  -0.493538
C    -2.538188  -2.194995  -1.742721
C    -1.291015  -2.646640  -2.500207
N    -1.671841  -3.313821  -3.817390
H    -2.306121  -3.013892  0.881513
H    -0.705367  -2.285355  0.722959
H    -1.588772  -0.503573  -0.754516
H    -3.235991  -0.843851  -0.261922
H    -3.159381  -1.590835  -2.422829
H    -3.145486  -3.070987  -1.463693
H    -0.692885  -3.384268  -1.951446
H    -0.644514  -1.801918  -2.769983
H    -0.840265  -3.620838  -4.344110
H    -2.197880  -2.670181  -4.428221
H    -2.265214  -4.144108  -3.671090
N    -3.025656  -2.574874  3.889713
C    -4.433233  -2.381776  3.512858
H    -2.852029  -3.167998  4.701968
H    -5.048733  -2.933832  4.228701
H    -4.638343  -2.780706  2.512103
H    -4.718956  -1.324109  3.569394
Ba    1.611952  -2.012977  4.097266
