35
Energy: -243352.136723 eV PBE+vdW (tier 2 basis)
C    -0.369434  0.229001  1.906300
C    -0.436478  -0.598623  3.148489
O    0.420204  -0.342606  4.085143
H    -0.943971  -0.168540  1.069555
H    0.671117  0.332782  1.582468
H    -0.759930  1.230465  2.148641
N    -1.481908  -1.392802  3.456838
C    -2.075022  -2.341743  2.500053
C    -0.850147  -2.998567  1.754054
O    0.278917  -2.512964  1.915610
H    -1.412096  -1.757666  4.405386
H    -2.539575  -3.119138  3.125342
C    -3.155284  -1.763231  1.560222
C    -4.471090  -1.313398  2.233842
C    -5.560750  -2.403066  2.313318
C    -6.876071  -1.816263  2.824520
N    -8.015258  -2.827960  2.782743
H    -3.373618  -2.517184  0.789790
H    -2.740361  -0.913961  1.006167
H    -4.870019  -0.472708  1.648276
H    -4.265047  -0.906955  3.235985
H    -5.242747  -3.233449  2.964743
H    -5.716730  -2.822458  1.305827
H    -7.208190  -0.969993  2.209983
H    -6.808974  -1.478947  3.866209
H    -8.895532  -2.412209  3.123055
H    -7.821373  -3.652979  3.368404
H    -8.189529  -3.165165  1.824485
N    -1.109731  -4.060336  0.986214
C    -0.080373  -4.788074  0.238131
H    -2.053632  -4.430729  0.959234
H    -0.535333  -5.229996  -0.653400
H    0.360181  -5.584776  0.851259
H    0.705683  -4.089922  -0.062933
Ba    2.556848  -0.056219  4.956765
