35
Energy: -243352.217172 eV PBE+vdW (tier 2 basis)
C    0.152754  -0.248465  0.079861
C    0.092978  -0.243353  1.573761
O    1.189108  -0.305984  2.259607
H    1.077925  -0.726308  -0.255770
H    0.155773  0.786932  -0.295891
H    -0.694941  -0.768510  -0.379015
N    -1.064193  -0.155488  2.213814
C    -2.428741  -0.070030  1.638235
C    -3.242626  0.924082  2.517055
O    -3.729711  0.522598  3.590615
H    -1.022325  -0.183025  3.234938
H    -2.339079  0.321129  0.616956
C    -3.119019  -1.443800  1.649191
C    -4.581830  -1.371596  1.163974
C    -5.532283  -2.406606  1.792788
C    -5.663336  -2.405705  3.314828
N    -6.032970  -1.044966  3.879518
H    -3.065918  -1.819229  2.680993
H    -2.542823  -2.146443  1.031265
H    -4.617269  -1.504506  0.074420
H    -4.987107  -0.360524  1.332430
H    -5.220228  -3.425650  1.518795
H    -6.528788  -2.280320  1.343019
H    -4.735922  -2.690762  3.825906
H    -6.444997  -3.107565  3.628129
H    -5.227635  -0.371741  3.785900
H    -6.857182  -0.652612  3.405463
H    -6.266281  -1.115178  4.878777
N    -3.359692  2.172743  2.053947
C    -4.089215  3.240579  2.741203
H    -2.964073  2.392038  1.144279
H    -3.505719  4.166478  2.696611
H    -4.240175  2.952813  3.784793
H    -5.061216  3.412883  2.261094
Ba    3.420674  -0.421691  3.019875
