35
Energy: -243351.727264 eV PBE+vdW (tier 2 basis)
C    -1.821948  -2.809476  0.406787
C    -0.756069  -1.831081  0.779924
O    0.492406  -2.184968  0.755238
H    -2.449667  -2.422802  -0.409113
H    -2.496031  -3.004073  1.254888
H    -1.380803  -3.758158  0.090950
N    -1.081277  -0.595137  1.132601
C    -2.466582  -0.088902  1.255522
C    -3.239397  0.218730  -0.065550
O    -4.455688  0.137671  0.013399
H    -0.308448  0.033775  1.348932
H    -3.046849  -0.922461  1.668465
C    -2.621766  1.072229  2.268805
C    -2.475490  2.513051  1.745974
C    -3.091751  3.518153  2.741677
C    -3.091099  4.944628  2.198883
N    -3.794685  5.902733  3.152902
H    -1.957931  0.892014  3.128337
H    -3.643868  0.955617  2.654599
H    -3.002569  2.607140  0.784480
H    -1.420945  2.771692  1.560547
H    -2.548920  3.481082  3.699841
H    -4.129175  3.208123  2.948111
H    -3.629265  5.023657  1.245920
H    -2.078941  5.344521  2.060633
H    -3.795541  6.866233  2.786217
H    -3.338798  5.926759  4.076696
H    -4.777929  5.632554  3.304016
N    -2.591575  0.545935  -1.217559
C    -1.204421  0.922935  -1.455274
H    -3.242497  0.686879  -1.988389
H    -1.164417  1.518357  -2.373177
H    -0.546432  0.053102  -1.599842
H    -0.803393  1.553269  -0.650650
Ba    2.423514  -3.514033  0.668037
