35
Energy: -243351.389045 eV PBE+vdW (tier 2 basis)
C    0.416906  0.678327  2.145586
C    -0.262923  -0.266548  3.096566
O    0.360280  -1.087786  3.772198
H    -0.242581  1.433870  1.706078
H    0.918096  0.122410  1.340805
H    1.221895  1.183633  2.697313
N    -1.649023  -0.175604  3.251796
C    -2.537404  -0.158460  2.091371
C    -3.393705  1.114752  2.033569
O    -3.642624  1.777792  3.110777
H    -1.945938  -0.843896  3.963660
H    -1.921887  -0.179991  1.181667
C    -3.476445  -1.405597  2.102279
C    -2.855117  -2.779496  2.442728
C    -1.972749  -3.501373  1.402027
C    -0.466027  -3.245628  1.349074
N    0.262528  -3.606015  2.635117
H    -3.985584  -1.468304  1.130312
H    -4.270347  -1.220260  2.843068
H    -3.722414  -3.432502  2.613520
H    -2.356395  -2.750190  3.425834
H    -2.350165  -3.306846  0.386274
H    -2.117706  -4.584467  1.539175
H    -0.024765  -3.860846  0.556155
H    -0.198394  -2.203092  1.140908
H    1.258862  -3.788791  2.451100
H    -0.122038  -4.455405  3.070406
H    0.229404  -2.805877  3.315801
N    -3.908687  1.521297  0.888339
C    -3.783908  0.943742  -0.456536
H    -4.515149  2.340169  0.950410
H    -3.719908  1.764036  -1.179377
H    -4.667007  0.335107  -0.689926
H    -2.881935  0.332490  -0.541952
Ba    -3.857165  3.046337  5.085155
