35
Energy: -243353.094622 eV PBE+vdW (tier 2 basis)
C    1.210102  0.826524  0.948989
C    0.598057  0.073219  2.083595
O    1.280128  -0.736562  2.775256
H    0.500216  1.461239  0.408400
H    1.671724  0.121855  0.244683
H    2.021389  1.455546  1.343823
N    -0.703937  0.284182  2.364849
C    -1.411005  -0.271297  3.529446
C    -1.714630  -1.776591  3.302086
O    -0.843439  -2.620468  3.665428
H    -1.202080  0.934682  1.763872
H    -0.677144  -0.289937  4.347971
C    -2.546569  0.666323  4.015280
C    -3.714223  1.016193  3.067615
C    -4.487212  2.305792  3.438734
C    -5.328137  2.196945  4.711729
N    -6.172436  3.448204  4.919547
H    -2.037845  1.598379  4.307616
H    -2.931627  0.229274  4.947977
H    -4.441444  0.190096  3.012392
H    -3.356630  1.173310  2.038117
H    -5.149918  2.544329  2.592356
H    -3.777122  3.143272  3.528998
H    -4.723487  2.090645  5.620551
H    -6.038631  1.361636  4.666827
H    -5.592151  4.295747  5.009272
H    -6.743447  3.378340  5.775814
H    -6.821916  3.605885  4.133902
N    -2.843265  -2.154654  2.721286
C    -3.204972  -3.548084  2.435286
H    -3.489847  -1.434227  2.416962
H    -2.735078  -3.885526  1.502342
H    -4.291513  -3.612545  2.329394
H    -2.881828  -4.189472  3.260502
Ba    1.616390  -2.920736  3.820095
