35
Energy: -243352.992052 eV PBE+vdW (tier 2 basis)
C    0.102252  -0.313102  0.004343
C    -0.125429  -0.304787  1.483357
O    0.842916  -0.448811  2.282641
H    0.581864  -1.262163  -0.273770
H    0.809734  0.484977  -0.259342
H    -0.810111  -0.185191  -0.587525
N    -1.392594  -0.138911  1.916020
C    -1.929485  -0.158478  3.295564
C    -1.364190  0.993409  4.161149
O    -0.173852  0.976822  4.590166
H    -2.077203  0.019157  1.182384
H    -3.001667  0.043292  3.166234
C    -1.768927  -1.523316  4.005587
C    -2.645329  -2.683133  3.481885
C    -4.142424  -2.580269  3.850667
C    -4.890185  -3.902900  4.026188
N    -5.137765  -4.668675  2.728588
H    -1.982446  -1.371219  5.074769
H    -0.715562  -1.826481  3.943632
H    -2.230721  -3.599174  3.930316
H    -2.509572  -2.792625  2.393914
H    -4.695877  -1.933074  3.151468
H    -4.239471  -2.094610  4.834717
H    -5.884645  -3.733177  4.455950
H    -4.348262  -4.595822  4.682364
H    -5.700677  -4.120661  2.061811
H    -5.659139  -5.539334  2.916204
H    -4.263927  -4.938334  2.256295
N    -2.199750  1.978016  4.463020
C    -1.871413  3.133445  5.303847
H    -3.136249  1.951988  4.068227
H    -2.779539  3.461290  5.819234
H    -1.493602  3.960332  4.688057
H    -1.116620  2.847221  6.041298
Ba    2.171043  0.382210  4.157805
