35
Energy: -243351.719123 eV PBE+vdW (tier 2 basis)
C    -2.390497  -1.326698  0.139334
C    -1.603120  -0.937759  1.358476
O    -0.380422  -1.011599  1.441678
H    -3.457093  -1.083364  0.200172
H    -2.282681  -2.409509  -0.014617
H    -1.955437  -0.842869  -0.743260
N    -2.342952  -0.489413  2.451134
C    -1.654291  -0.079248  3.663962
C    -2.285330  -0.796968  4.854716
O    -2.983031  -0.163457  5.750512
H    -3.338223  -0.322081  2.341839
H    -0.647630  -0.517182  3.534591
C    -1.486206  1.444385  3.822778
C    -0.659700  2.083024  2.682322
C    0.841656  1.735293  2.710288
C    1.586831  1.884745  1.388319
N    1.767361  3.334536  0.939906
H    -2.475456  1.926609  3.847180
H    -0.998987  1.650881  4.789475
H    -0.802178  3.172189  2.748544
H    -1.097017  1.776564  1.719836
H    0.976338  0.671411  2.951724
H    1.359132  2.293639  3.506844
H    1.068856  1.370250  0.569323
H    2.601488  1.476117  1.461095
H    0.869133  3.812435  0.786582
H    2.291459  3.380851  0.053209
H    2.297621  3.881428  1.633525
N    -2.133824  -2.103513  4.974212
C    -1.414640  -3.035664  4.096456
H    -2.622574  -2.534557  5.758122
H    -1.037671  -3.858603  4.711637
H    -0.573584  -2.544598  3.598780
H    -2.097677  -3.437848  3.337154
Ba    -4.233240  0.791953  7.485756
