35
Energy: -243352.989405 eV PBE+vdW (tier 2 basis)
C    0.548063  1.407664  0.866652
C    -0.206732  0.168521  1.235936
O    0.301675  -0.972818  1.045830
H    0.813559  1.356861  -0.198457
H    1.494081  1.436539  1.424771
H    -0.000190  2.336392  1.056472
N    -1.433322  0.329000  1.773362
C    -2.439386  -0.680956  2.168347
C    -1.935420  -1.613323  3.290172
O    -1.066133  -2.509388  3.062726
H    -1.716445  1.295377  1.908284
H    -3.252488  -0.083640  2.597796
C    -3.036680  -1.485711  0.987546
C    -4.068872  -0.693026  0.158363
C    -4.738868  -1.576590  -0.913976
C    -6.047841  -1.066180  -1.516233
N    -5.878058  0.061811  -2.531794
H    -3.533729  -2.372420  1.410465
H    -2.226742  -1.860548  0.345970
H    -3.584380  0.184953  -0.299107
H    -4.844628  -0.307559  0.840063
H    -5.012512  -2.540515  -0.457035
H    -4.028610  -1.832862  -1.716802
H    -6.737662  -0.682713  -0.753756
H    -6.557932  -1.868174  -2.062943
H    -6.791980  0.338840  -2.922606
H    -5.287779  -0.228231  -3.325128
H    -5.458383  0.906225  -2.120435
N    -2.459828  -1.492766  4.502970
C    -3.458378  -0.538387  5.007127
H    -2.117557  -2.181958  5.174005
H    -3.161527  0.495928  4.799825
H    -3.514230  -0.657932  6.092943
H    -4.452515  -0.745089  4.591646
Ba    1.021288  -3.129894  1.946921
