35
Energy: -243351.908533 eV PBE+vdW (tier 2 basis)
C    -0.155106  -1.586618  -0.204675
C    0.314971  -0.727486  0.916602
O    1.570717  -0.393019  0.962738
H    0.539321  -2.428786  -0.324091
H    -1.159046  -1.993408  -0.044522
H    -0.124580  -1.000010  -1.135824
N    -0.478003  -0.266565  1.877816
C    -1.939495  -0.445457  2.142749
C    -2.269840  -1.949254  2.381165
O    -2.497619  -2.678421  1.417338
H    0.006295  0.313188  2.562315
H    -2.087229  0.115678  3.073182
C    -2.820407  0.165327  1.033740
C    -4.341758  -0.019896  1.217886
C    -4.980577  0.750957  2.384434
C    -6.472189  0.489833  2.590688
N    -7.344955  1.055611  1.473100
H    -2.559587  -0.300995  0.076306
H    -2.574083  1.234754  0.950445
H    -4.563152  -1.093888  1.309081
H    -4.791565  0.299131  0.263621
H    -4.800207  1.834660  2.289808
H    -4.518144  0.460603  3.340644
H    -6.836292  0.959950  3.511684
H    -6.702859  -0.582196  2.634560
H    -8.342784  0.876026  1.660094
H    -7.127222  0.634522  0.559428
H    -7.231030  2.075554  1.382591
N    -2.310473  -2.379788  3.662386
C    -2.028903  -1.646027  4.894011
H    -2.537804  -3.369085  3.747645
H    -2.131623  -2.339224  5.734137
H    -2.738934  -0.824113  5.062063
H    -1.002784  -1.253681  4.919331
Ba    3.865893  -0.231683  0.531446
