35
Energy: -243353.207766 eV PBE+vdW (tier 2 basis)
C    -1.833081  -3.686129  1.426590
C    -1.024778  -2.446665  1.638658
O    -0.058331  -2.160358  0.875616
H    -2.262297  -3.657851  0.414970
H    -2.639918  -3.816872  2.155336
H    -1.175043  -4.564830  1.463864
N    -1.361136  -1.637127  2.662979
C    -0.740546  -0.340051  2.981494
C    0.650983  -0.570096  3.634269
O    1.641438  -0.806472  2.880612
H    -2.109883  -1.957061  3.272111
H    -0.514543  0.149950  2.022297
C    -1.700591  0.554804  3.788588
C    -2.922219  1.097995  3.014668
C    -3.670923  2.154598  3.854226
C    -4.746725  2.978977  3.145632
N    -6.096353  2.275090  3.021430
H    -1.114756  1.414991  4.146015
H    -2.048645  0.021378  4.690688
H    -3.589943  0.270237  2.726038
H    -2.575762  1.562423  2.077992
H    -2.940957  2.899500  4.206606
H    -4.084222  1.708334  4.773860
H    -4.458232  3.263627  2.125939
H    -4.957468  3.896859  3.706973
H    -6.786715  2.890613  2.564012
H    -6.480006  2.029603  3.946205
H    -6.046330  1.411783  2.464308
N    0.769699  -0.526891  4.951124
C    2.019374  -0.738743  5.690790
H    -0.063194  -0.338927  5.502306
H    2.137519  -1.799890  5.946048
H    1.984511  -0.151520  6.613365
H    2.865243  -0.410812  5.080780
Ba    2.346830  -1.710465  0.697609
