35
Energy: -243351.875525 eV PBE+vdW (tier 2 basis)
C    0.161856  0.054322  0.139279
C    0.142106  -0.125602  1.622154
O    1.246274  -0.255088  2.283119
H    1.181916  0.226689  -0.212834
H    -0.470117  0.893991  -0.179285
H    -0.227463  -0.847493  -0.359202
N    -1.013151  -0.164036  2.275843
C    -2.368797  -0.130307  1.682246
C    -2.874726  1.256348  1.201316
O    -3.573386  1.270437  0.175639
H    -0.954667  -0.289079  3.286555
H    -2.319640  -0.724242  0.761315
C    -3.419945  -0.765994  2.641149
C    -4.292112  -1.873022  2.013073
C    -5.073865  -1.521314  0.735712
C    -6.151812  -0.441859  0.912370
N    -6.208761  0.446767  -0.312936
H    -2.899401  -1.213904  3.501172
H    -4.047356  0.030443  3.066455
H    -4.986808  -2.222197  2.791052
H    -3.655151  -2.739032  1.780016
H    -5.539713  -2.440595  0.356760
H    -4.368560  -1.198292  -0.045331
H    -5.943473  0.235203  1.749093
H    -7.150594  -0.865586  1.064002
H    -6.394672  -0.093277  -1.168742
H    -5.280385  0.919132  -0.402813
H    -6.943713  1.162729  -0.237521
N    -2.606326  2.377206  1.895372
C    -1.976964  2.547001  3.203469
H    -3.004832  3.212998  1.469315
H    -2.303757  3.507082  3.615187
H    -0.880789  2.567499  3.136023
H    -2.296565  1.771677  3.910456
Ba    3.481229  -0.595556  2.981494
