35
Energy: -243352.006584 eV PBE+vdW (tier 2 basis)
C    -1.599946  -2.301125  0.422711
C    -1.688854  -1.155180  1.383989
O    -2.598851  -1.090002  2.233978
H    -2.551706  -2.377824  -0.119617
H    -1.492109  -3.233601  0.992965
H    -0.779864  -2.221064  -0.298618
N    -0.714564  -0.196816  1.290301
C    -0.599729  1.094704  1.994078
C    -0.600616  0.968438  3.529453
O    0.349566  1.549697  4.204801
H    -0.008527  -0.354788  0.578210
H    0.417202  1.437065  1.763879
C    -1.538903  2.208464  1.429291
C    -3.060840  2.022164  1.580951
C    -3.921953  2.742679  0.519905
C    -3.954264  4.264785  0.628448
N    -4.936995  4.854921  -0.377674
H    -1.279860  2.263956  0.360246
H    -1.212581  3.165095  1.868005
H    -3.387727  2.321542  2.588433
H    -3.314866  0.960033  1.493591
H    -4.949385  2.358882  0.622581
H    -3.577311  2.449993  -0.485449
H    -2.987033  4.735348  0.413227
H    -4.296961  4.602127  1.614910
H    -5.892620  4.499790  -0.222667
H    -4.679541  4.616263  -1.346871
H    -4.978644  5.883002  -0.315558
N    -1.547997  0.290193  4.116154
C    -1.649513  0.073334  5.552828
H    -2.178546  -0.261350  3.424054
H    -2.573125  -0.475373  5.758607
H    -1.687704  1.029675  6.092305
H    -0.809384  -0.535112  5.921106
Ba    2.053235  2.042648  5.712821
