35
Energy: -243352.425459 eV PBE+vdW (tier 2 basis)
C    -0.308115  0.618204  0.320905
C    -0.135676  -0.382127  1.419026
O    0.971570  -0.965158  1.594455
H    -0.560513  1.602318  0.738912
H    0.623330  0.709454  -0.244042
H    -1.119571  0.342360  -0.367685
N    -1.164563  -0.677640  2.263166
C    -2.537819  -0.942705  1.811463
C    -2.457522  -2.058015  0.714175
O    -1.379655  -2.704180  0.544573
H    -0.861119  -1.268424  3.036277
H    -3.016474  -1.435621  2.672475
C    -3.376004  0.322001  1.454905
C    -4.774150  0.421167  2.111887
C    -4.741924  0.858366  3.588365
C    -6.095879  0.963586  4.293881
N    -6.898804  2.201881  3.902538
H    -3.486470  0.404681  0.365193
H    -2.788484  1.198283  1.757743
H    -5.317637  -0.535081  2.026813
H    -5.348949  1.144210  1.512280
H    -4.194214  1.809676  3.691591
H    -4.168401  0.133903  4.187338
H    -5.963606  1.038654  5.379579
H    -6.747300  0.104690  4.088468
H    -7.787895  2.239270  4.424925
H    -7.138316  2.222469  2.901629
H    -6.387177  3.070413  4.118429
N    -3.544885  -2.332191  0.011985
C    -3.638469  -3.400858  -0.991466
H    -4.378008  -1.775003  0.174572
H    -4.668265  -3.444727  -1.355078
H    -3.374659  -4.365708  -0.543682
H    -2.971163  -3.192082  -1.836147
Ba    1.082104  -3.282498  0.724971
