35
Energy: -243351.946774 eV PBE+vdW (tier 2 basis)
C    1.133834  -1.878093  0.759107
C    0.700344  -1.790971  2.190651
O    1.367046  -2.442520  3.095250
H    0.503981  -1.287123  0.086434
H    1.097484  -2.924739  0.423814
H    2.169494  -1.523202  0.661021
N    -0.350506  -1.055183  2.474091
C    -1.082656  -0.841259  3.726348
C    -2.549296  -0.702633  3.227170
O    -2.718921  -0.283007  2.076412
H    -0.913280  -0.657779  1.696679
H    -0.948358  -1.711632  4.380234
C    -0.612062  0.440482  4.473930
C    -0.658386  1.766029  3.679878
C    -1.969186  2.588925  3.692241
C    -2.093407  3.488087  4.921076
N    -3.268187  4.450827  4.785563
H    0.425404  0.261736  4.789786
H    -1.194630  0.510333  5.404504
H    -0.405306  1.572871  2.629081
H    0.156681  2.405422  4.048934
H    -2.849748  1.936298  3.603939
H    -1.966776  3.222175  2.791462
H    -1.207379  4.121603  5.055109
H    -2.264116  2.933040  5.851951
H    -4.163905  3.953606  4.677834
H    -3.159249  5.060579  3.961304
H    -3.353420  5.063922  5.609985
N    -3.554906  -0.981042  4.076588
C    -3.478252  -1.640558  5.380491
H    -4.477041  -0.900836  3.650247
H    -2.740255  -1.160757  6.034278
H    -3.246379  -2.710745  5.286509
H    -4.453627  -1.551529  5.868198
Ba    2.983631  -3.989075  3.800295
