35
Energy: -243352.196175 eV PBE+vdW (tier 2 basis)
C    -0.673232  -0.706658  -0.116216
C    -0.199577  -0.432540  1.270151
O    0.864919  -1.024922  1.708590
H    -1.747080  -0.537624  -0.243111
H    -0.441448  -1.740062  -0.394133
H    -0.143123  -0.032818  -0.807668
N    -0.843187  0.404661  2.067902
C    -1.892879  1.370213  1.679517
C    -1.297251  2.284185  0.560232
O    -0.095767  2.535826  0.570381
H    -0.400317  0.570842  2.971442
H    -2.767884  0.807017  1.318880
C    -2.268341  2.177525  2.943061
C    -3.431804  3.172487  2.782524
C    -3.655640  3.964631  4.085109
C    -4.645402  5.125130  4.021198
N    -6.107849  4.683563  4.023020
H    -1.370755  2.731152  3.264477
H    -2.515533  1.461025  3.742887
H    -4.342863  2.622858  2.489463
H    -3.208207  3.878934  1.969167
H    -2.702282  4.426254  4.385129
H    -3.921585  3.291296  4.916902
H    -4.516486  5.740338  3.121729
H    -4.541568  5.775413  4.897752
H    -6.738005  5.499560  4.001053
H    -6.336760  4.146926  4.872409
H    -6.342443  4.096626  3.211375
N    -2.188177  2.748025  -0.342084
C    -1.823299  3.653589  -1.432347
H    -3.141423  2.401245  -0.313210
H    -2.513463  4.504374  -1.463301
H    -1.857223  3.133625  -2.398111
H    -0.807188  4.015626  -1.253703
Ba    2.948787  -2.058153  1.917863
