35
Energy: -243352.272240 eV PBE+vdW (tier 2 basis)
C    -1.322086  -0.012213  0.263918
C    -0.880508  0.100626  1.691914
O    0.306884  0.305179  2.002470
H    -1.161265  0.954533  -0.233048
H    -2.369472  -0.307872  0.140239
H    -0.674421  -0.734307  -0.249338
N    -1.850148  -0.010251  2.656414
C    -1.606582  -0.111126  4.102317
C    -1.072515  1.212231  4.689171
O    -1.701449  1.800396  5.662065
H    -2.805587  -0.146934  2.344192
H    -2.594217  -0.259949  4.557542
C    -0.690703  -1.302576  4.507439
C    -1.198197  -2.664609  4.007827
C    -0.209091  -3.804841  4.323877
C    -0.701966  -5.139001  3.767114
N    0.284020  -6.267332  4.044559
H    -0.617748  -1.305818  5.606171
H    0.321999  -1.123378  4.122482
H    -1.351793  -2.618734  2.919250
H    -2.179638  -2.890716  4.454127
H    -0.067510  -3.885842  5.413668
H    0.773705  -3.562649  3.887835
H    -0.826599  -5.111912  2.677350
H    -1.652816  -5.452872  4.215568
H    -0.054798  -7.163343  3.662860
H    0.435297  -6.403706  5.054674
H    1.204379  -6.082895  3.618965
N    0.027707  1.701771  4.180671
C    0.666930  2.941478  4.597663
H    0.379067  1.160093  3.323761
H    1.591692  3.067051  4.027256
H    0.925865  2.908190  5.665409
H    0.021783  3.808272  4.389094
Ba    -2.571708  3.312953  7.202044
