35
Energy: -243352.043010 eV PBE+vdW (tier 2 basis)
C    0.216170  0.329291  0.602880
C    -0.295467  0.101758  1.985039
O    0.515725  0.340827  2.968984
H    -0.489550  0.061487  -0.181460
H    1.133306  -0.249832  0.449086
H    0.459142  1.399179  0.506322
N    -1.577368  -0.139739  2.288795
C    -2.503494  -1.005031  1.538561
C    -1.743632  -2.370862  1.369087
O    -0.510590  -2.360435  1.336880
H    -1.746035  -0.142183  3.294086
H    -3.363473  -1.134099  2.211434
C    -3.029823  -0.422239  0.198072
C    -4.378020  -1.016522  -0.253848
C    -4.825244  -0.526689  -1.650370
C    -5.600789  0.789217  -1.719274
N    -7.098001  0.590961  -1.488123
H    -2.298814  -0.601967  -0.601816
H    -3.112762  0.668219  0.320249
H    -5.152418  -0.815919  0.506826
H    -4.288844  -2.109691  -0.313426
H    -5.411580  -1.313839  -2.150369
H    -3.940452  -0.401844  -2.291518
H    -5.524081  1.247726  -2.711977
H    -5.274294  1.526894  -0.975698
H    -7.607072  1.486399  -1.533532
H    -7.301703  0.167792  -0.572201
H    -7.504444  -0.025503  -2.207772
N    -2.504243  -3.468773  1.244266
C    -1.947059  -4.808685  1.037963
H    -3.500667  -3.398254  1.419893
H    -2.646389  -5.400067  0.438658
H    -1.778165  -5.315438  1.996985
H    -0.995363  -4.720805  0.506870
Ba    2.448073  0.402994  4.264282
