35
Energy: -243352.573904 eV PBE+vdW (tier 2 basis)
C    -0.875614  2.030212  0.487655
C    -0.695586  0.786729  1.296355
O    0.456773  0.329278  1.536683
H    -1.863323  2.105622  0.022361
H    -0.101917  2.053784  -0.289350
H    -0.719857  2.920698  1.116983
N    -1.780987  0.129309  1.791322
C    -2.872363  0.833413  2.463668
C    -2.274021  1.489752  3.757899
O    -1.062894  1.280929  4.074919
H    -1.527652  -0.751824  2.242019
H    -3.219178  1.650071  1.812222
C    -4.034683  -0.134125  2.781657
C    -4.783254  -0.759903  1.584977
C    -5.691163  0.209321  0.797536
C    -6.951598  -0.403390  0.184958
N    -6.686907  -1.374665  -0.962794
H    -4.764382  0.388567  3.417286
H    -3.638055  -0.947468  3.410123
H    -5.401049  -1.562978  2.016539
H    -4.063261  -1.255035  0.915019
H    -5.129281  0.757877  0.025126
H    -6.083496  0.982045  1.477825
H    -7.600468  0.374312  -0.235230
H    -7.530960  -0.969517  0.925427
H    -6.195987  -0.919108  -1.745704
H    -7.575290  -1.742026  -1.337914
H    -6.126495  -2.186928  -0.669613
N    -3.059096  2.265528  4.485390
C    -2.649554  2.946101  5.721273
H    -4.012698  2.420104  4.169056
H    -3.533834  3.402803  6.173225
H    -1.915808  3.731349  5.501732
H    -2.220009  2.224272  6.424456
Ba    1.362317  0.642910  3.830837
