35
Energy: -243351.996299 eV PBE+vdW (tier 2 basis)
C    -1.706601  -1.517769  -1.393464
C    -0.695239  -0.698899  -0.668999
O    0.355657  -0.285682  -1.304993
H    -1.203674  -2.372539  -1.866156
H    -2.143797  -0.910648  -2.199589
H    -2.505680  -1.896618  -0.751412
N    -0.820901  -0.369671  0.611578
C    -1.928262  -0.595044  1.593080
C    -2.219556  -2.110885  1.819905
O    -3.220387  -2.643377  1.304858
H    -0.057705  0.205942  0.967000
H    -1.512744  -0.194212  2.529128
C    -3.200954  0.201741  1.250465
C    -4.054356  0.602721  2.474501
C    -4.655796  -0.482202  3.390804
C    -5.965200  -1.148854  2.977431
N    -5.865752  -2.003044  1.716024
H    -3.778905  -0.360008  0.503194
H    -2.890068  1.135308  0.760957
H    -4.861484  1.257336  2.111575
H    -3.433130  1.252597  3.109002
H    -4.899832  0.005884  4.346299
H    -3.917632  -1.253097  3.660226
H    -6.303105  -1.821281  3.773941
H    -6.760673  -0.414953  2.800196
H    -6.511588  -2.801268  1.760219
H    -4.884092  -2.361163  1.571598
H    -6.120257  -1.465213  0.880315
N    -1.345676  -2.768685  2.588331
C    -1.458159  -4.189165  2.930400
H    -0.590855  -2.245798  3.023474
H    -0.462303  -4.644298  2.917676
H    -2.099901  -4.683628  2.196785
H    -1.889739  -4.310141  3.932551
Ba    2.063858  0.268354  -2.838798
