35
Energy: -243351.231569 eV PBE+vdW (tier 2 basis)
C    0.303295  0.108367  0.842569
C    0.315309  -0.330435  2.279543
O    1.336309  -0.764594  2.821051
H    -0.671326  0.066501  0.344381
H    1.025864  -0.487115  0.275109
H    0.661437  1.148670  0.803345
N    -0.822935  -0.195229  3.066039
C    -2.216756  -0.404335  2.667895
C    -3.096252  0.700864  3.305057
O    -4.044047  0.414077  4.139089
H    -0.616328  -0.462405  4.029436
H    -2.285679  -0.251457  1.579461
C    -2.696132  -1.831274  3.011327
C    -2.241178  -2.984431  2.083370
C    -0.745122  -3.293230  1.865294
C    0.049118  -3.678692  3.117140
N    1.537422  -3.521751  2.878882
H    -3.795817  -1.841397  2.972568
H    -2.427537  -2.041517  4.060025
H    -2.675362  -2.817851  1.086418
H    -2.734300  -3.893306  2.459118
H    -0.256011  -2.452641  1.357481
H    -0.695959  -4.125363  1.147376
H    -0.134484  -4.718063  3.413447
H    -0.167915  -3.035523  3.977971
H    2.090731  -3.883427  3.667732
H    1.748462  -2.496973  2.774492
H    1.849382  -4.021038  2.034628
N    -2.877307  1.967990  3.007101
C    -1.905664  2.555816  2.075895
H    -3.459918  2.638203  3.507316
H    -2.203237  3.592535  1.894516
H    -1.912235  2.022816  1.120150
H    -0.899749  2.541145  2.511098
Ba    -5.961285  0.119593  5.496176
