35
Energy: -243351.321756 eV PBE+vdW (tier 2 basis)
C    -0.177737  0.163783  -0.041085
C    -0.055292  0.203767  1.455085
O    1.037524  0.319421  2.018830
H    -1.169043  0.445748  -0.411616
H    0.081411  -0.837629  -0.416162
H    0.568390  0.852258  -0.455594
N    -1.204906  0.150559  2.234134
C    -2.314924  -0.754637  1.953561
C    -3.703781  -0.100751  2.005352
O    -4.575054  -0.444848  1.108212
H    -0.957324  0.235320  3.218719
H    -2.209623  -1.078390  0.910330
C    -2.250988  -2.026348  2.854167
C    -0.851409  -2.692668  2.824760
C    0.031705  -2.403745  4.059807
C    1.522753  -2.731667  3.862754
N    2.357661  -1.485077  3.625132
H    -3.016803  -2.733472  2.506970
H    -2.528815  -1.767665  3.887506
H    -0.324322  -2.402194  1.902718
H    -0.984030  -3.779981  2.749051
H    -0.340774  -2.995937  4.906324
H    -0.061197  -1.355669  4.386637
H    1.684672  -3.387699  2.999057
H    1.951517  -3.229264  4.739068
H    3.279424  -1.721090  3.233621
H    2.533286  -0.987308  4.507861
H    1.882215  -0.796928  2.976744
N    -4.056692  0.770205  2.930622
C    -3.299244  1.304178  4.073349
H    -5.003022  1.137120  2.834342
H    -4.017654  1.753905  4.765017
H    -2.593827  2.075984  3.743858
H    -2.778106  0.502663  4.606573
Ba    -6.275198  -0.956913  -0.458454
