35
Energy: -243352.446978 eV PBE+vdW (tier 2 basis)
C    -0.940154  0.906288  0.441187
C    -0.841202  0.345651  1.826188
O    0.110553  0.700411  2.578813
H    -0.542725  0.191352  -0.295908
H    -0.334121  1.816556  0.389139
H    -1.971222  1.142363  0.160792
N    -1.773663  -0.519138  2.318416
C    -2.243895  -1.730335  1.626556
C    -0.999948  -2.647641  1.392906
O    0.172416  -2.170507  1.532221
H    -1.637234  -0.668425  3.318977
H    -2.874073  -2.245951  2.368221
C    -3.118571  -1.513894  0.369760
C    -4.478654  -0.847861  0.662401
C    -5.358017  -0.792479  -0.603857
C    -6.852656  -0.544473  -0.402321
N    -7.213611  0.903934  -0.080235
H    -3.306896  -2.502653  -0.069734
H    -2.567173  -0.959386  -0.399483
H    -4.318906  0.157367  1.084245
H    -4.998291  -1.430859  1.440257
H    -5.314000  -1.769370  -1.110228
H    -4.952258  -0.076844  -1.337465
H    -7.271031  -1.147073  0.413792
H    -7.407695  -0.780051  -1.318130
H    -8.235430  1.010529  0.014995
H    -6.913533  1.544140  -0.829921
H    -6.793289  1.231099  0.799965
N    -1.163155  -3.927959  1.092956
C    -2.387270  -4.728982  0.991636
H    -0.291416  -4.435073  0.934490
H    -3.197096  -4.289907  1.581858
H    -2.176791  -5.726231  1.392917
H    -2.699313  -4.835520  -0.055268
Ba    2.037042  -0.859467  2.613180
