35
Energy: -243351.873938 eV PBE+vdW (tier 2 basis)
C    -0.183847  0.462026  0.947200
C    -0.199861  -0.323755  2.211845
O    0.797437  -0.210900  3.036971
H    -0.274186  1.530487  1.194522
H    -0.977387  0.180723  0.248302
H    0.785125  0.322428  0.449721
N    -1.194811  -1.134810  2.547090
C    -2.481951  -1.455825  1.858470
C    -2.223760  -2.071505  0.446833
O    -2.333287  -1.361674  -0.555122
H    -1.070356  -1.594739  3.448498
H    -2.923084  -2.225346  2.506077
C    -3.445345  -0.257160  1.787615
C    -4.939485  -0.642613  1.720682
C    -5.448531  -1.418155  0.489133
C    -5.491937  -0.670109  -0.841290
N    -6.701203  0.258972  -0.937210
H    -3.160877  0.373151  0.934219
H    -3.308007  0.344648  2.696872
H    -5.515647  0.288337  1.850753
H    -5.190816  -1.240149  2.609931
H    -6.451687  -1.815205  0.714692
H    -4.839638  -2.315091  0.312231
H    -5.592410  -1.363281  -1.684141
H    -4.603566  -0.052610  -1.017272
H    -7.583239  -0.269255  -0.864001
H    -6.719297  0.757871  -1.838555
H    -6.708312  0.969446  -0.192779
N    -1.899961  -3.380346  0.394352
C    -1.781683  -4.340584  1.490053
H    -1.741978  -3.725520  -0.550758
H    -2.724516  -4.458165  2.041202
H    -1.530444  -5.315565  1.062501
H    -0.976957  -4.072744  2.188833
Ba    2.794292  0.324737  4.145549
