35
Energy: -243351.982775 eV PBE+vdW (tier 2 basis)
C    -0.194950  0.390576  -0.015784
C    -0.214825  0.480379  1.474007
O    0.844548  0.840822  2.125993
H    0.747986  0.773079  -0.413929
H    -1.026256  0.954766  -0.461283
H    -0.313170  -0.654763  -0.340873
N    -1.323510  0.184732  2.143180
C    -2.592076  -0.306824  1.554722
C    -3.423923  0.766248  0.796721
O    -4.129365  0.375515  -0.127632
H    -1.268856  0.248444  3.160766
H    -2.331372  -1.040069  0.780061
C    -3.417701  -1.027230  2.646259
C    -4.675287  -1.761347  2.115931
C    -5.971306  -0.929492  2.147999
C    -7.111387  -1.462931  1.288272
N    -7.703814  -2.773577  1.805271
H    -3.702788  -0.310214  3.433644
H    -2.756339  -1.769178  3.116658
H    -4.796901  -2.666998  2.728940
H    -4.482922  -2.101256  1.086995
H    -5.785223  0.075230  1.745174
H    -6.313206  -0.781494  3.185234
H    -6.789223  -1.659797  0.257889
H    -7.949679  -0.757144  1.259327
H    -8.486977  -3.083168  1.211019
H    -8.070057  -2.669841  2.762568
H    -7.012192  -3.535292  1.817278
N    -3.340650  2.047446  1.221715
C    -4.133276  3.126743  0.628625
H    -2.802021  2.257852  2.054495
H    -3.535385  4.043037  0.585915
H    -5.041882  3.320472  1.213910
H    -4.420331  2.831036  -0.384570
Ba    3.036433  1.409467  2.765906
