35
Energy: -243351.647101 eV PBE+vdW (tier 2 basis)
C    0.226724  -0.378928  0.293703
C    0.048029  0.167932  1.683666
O    0.985666  0.630966  2.352816
H    0.890238  0.280249  -0.277675
H    -0.711462  -0.524115  -0.253646
H    0.725143  -1.357757  0.358534
N    -1.219914  0.126217  2.196228
C    -1.567781  0.353882  3.601424
C    -1.765615  1.848211  3.913996
O    -2.194190  2.659644  3.012070
H    -1.914415  -0.363756  1.641088
H    -2.602173  -0.026825  3.676575
C    -0.757009  -0.494903  4.634576
C    0.544606  0.056869  5.270487
C    1.606079  -1.022981  5.564515
C    2.307254  -1.675650  4.376293
N    3.105913  -0.685808  3.545714
H    -0.553276  -1.436304  4.106139
H    -1.450261  -0.787392  5.437042
H    0.325731  0.511569  6.249958
H    0.971462  0.853800  4.650156
H    1.154903  -1.845045  6.140939
H    2.367742  -0.594180  6.234321
H    1.614700  -2.160507  3.676645
H    3.011028  -2.438204  4.729937
H    3.726482  -1.175612  2.887686
H    3.704803  -0.094557  4.137464
H    2.454703  -0.074394  2.988831
N    -1.607127  2.259574  5.155270
C    -1.897633  3.604375  5.652099
H    -1.244086  1.584894  5.825263
H    -1.665312  3.639334  6.720107
H    -2.962997  3.839527  5.527306
H    -1.275088  4.348920  5.139140
Ba    -3.124329  4.282843  1.581754
