35
Energy: -243353.125404 eV PBE+vdW (tier 2 basis)
C    1.705154  1.966001  0.968826
C    1.030772  1.351637  2.155248
O    1.523465  0.330196  2.716640
H    1.769628  1.211467  0.171750
H    2.737501  2.233483  1.231592
H    1.197243  2.854065  0.578457
N    -0.105713  1.929308  2.589305
C    -1.058141  1.505935  3.640970
C    -0.427031  1.481779  5.051432
O    0.442530  0.624866  5.386198
H    -0.384546  2.758862  2.072429
H    -1.802914  2.314133  3.647608
C    -1.824270  0.198970  3.314524
C    -2.651680  0.324404  2.021030
C    -3.555971  -0.877259  1.660032
C    -4.888190  -0.899427  2.410925
N    -5.823302  -1.963479  1.847803
H    -2.470065  -0.012332  4.180913
H    -1.118226  -0.639896  3.234994
H    -1.965792  0.469244  1.175205
H    -3.269464  1.236505  2.061954
H    -3.015213  -1.824006  1.816964
H    -3.763970  -0.812839  0.580669
H    -5.427801  0.050790  2.310017
H    -4.783148  -1.127059  3.478654
H    -6.726199  -1.974645  2.346276
H    -5.422370  -2.910106  1.920739
H    -6.029354  -1.796656  0.851014
N    -0.877160  2.386231  5.911243
C    -0.449901  2.505100  7.308235
H    -1.550202  3.072390  5.579216
H    0.414915  3.176743  7.388936
H    -0.187882  1.517515  7.697668
H    -1.276069  2.921097  7.892918
Ba    2.430362  -0.667020  4.741615
