35
Energy: -243352.128693 eV PBE+vdW (tier 2 basis)
C    -0.067950  -1.507267  1.785090
C    0.195128  -0.101100  1.354187
O    1.383102  0.388634  1.528982
H    0.218195  -1.619683  2.839732
H    -1.108025  -1.823487  1.679122
H    0.563438  -2.190352  1.198478
N    -0.738910  0.650520  0.798565
C    -2.118823  0.270919  0.428876
C    -2.481677  1.190323  -0.752715
O    -2.088468  2.380132  -0.716471
H    -0.499945  1.609306  0.519211
H    -2.109225  -0.777070  0.110429
C    -3.126686  0.439021  1.600948
C    -3.482032  1.884508  1.998668
C    -4.726846  2.459876  1.281786
C    -4.723350  3.980272  1.139757
N    -3.946187  4.418886  -0.099212
H    -2.702956  -0.092561  2.464467
H    -4.038398  -0.116977  1.336772
H    -2.610159  2.538309  1.843738
H    -3.672367  1.907492  3.079406
H    -5.626091  2.185737  1.849711
H    -4.874795  2.004603  0.289219
H    -4.253101  4.470219  2.000733
H    -5.733787  4.389388  1.031878
H    -3.581869  5.375166  -0.003225
H    -3.151130  3.763076  -0.316540
H    -4.560064  4.420651  -0.923560
N    -3.235546  0.695517  -1.737338
C    -3.728593  -0.677420  -1.909756
H    -3.419119  1.349334  -2.497041
H    -4.420385  -0.683786  -2.756844
H    -4.281597  -1.020145  -1.027739
H    -2.910291  -1.372893  -2.137331
Ba    3.675898  0.674847  1.968436
