35
Energy: -243351.942783 eV PBE+vdW (tier 2 basis)
C    0.228014  0.425557  -0.369268
C    0.411605  0.747292  1.072654
O    1.510797  1.329435  1.450982
H    1.111947  -0.117852  -0.729956
H    0.168838  1.367047  -0.935718
H    -0.658480  -0.183567  -0.572890
N    -0.496551  0.475216  2.000846
C    -1.847378  -0.157627  1.906437
C    -1.769775  -1.582613  1.274354
O    -2.021701  -1.728234  0.077393
H    -0.228489  0.766484  2.940536
H    -2.152997  -0.249602  2.956939
C    -2.876073  0.716319  1.171210
C    -4.315517  0.132392  1.255617
C    -4.911790  -0.163972  -0.131298
C    -6.253377  -0.887027  -0.150401
N    -7.428313  -0.002665  0.268541
H    -2.580865  0.808629  0.118311
H    -2.847437  1.723595  1.606653
H    -4.943232  0.837291  1.821458
H    -4.311161  -0.801003  1.840902
H    -4.215912  -0.825266  -0.669664
H    -4.975736  0.757260  -0.733910
H    -6.274987  -1.752759  0.523739
H    -6.498923  -1.233689  -1.161078
H    -8.317623  -0.521498  0.219795
H    -7.519166  0.816265  -0.349750
H    -7.330590  0.344600  1.232036
N    -1.431661  -2.603074  2.090727
C    -1.164369  -2.578217  3.526988
H    -1.406753  -3.507676  1.623488
H    -0.922867  -3.596242  3.846147
H    -2.038842  -2.251450  4.106262
H    -0.301019  -1.945366  3.775387
Ba    3.636638  2.302704  1.574174
