35
Energy: -243352.522077 eV PBE+vdW (tier 2 basis)
C    -0.291182  -0.972479  0.839176
C    -0.382526  -0.445868  2.230987
O    0.633053  -0.408424  2.983914
H    0.255237  -1.926056  0.882075
H    0.313373  -0.305466  0.206934
H    -1.263179  -1.144414  0.367878
N    -1.573175  -0.011755  2.732775
C    -2.435050  0.924943  2.013119
C    -1.742026  2.322685  2.098795
O    -0.701108  2.459723  2.819423
H    -1.508164  0.185517  3.731395
H    -2.426571  0.635923  0.951353
C    -3.907576  0.831783  2.491857
C    -4.204144  1.295064  3.928926
C    -5.554038  0.802246  4.502645
C    -6.793649  1.405194  3.841264
N    -8.064802  0.942933  4.543493
H    -4.175558  -0.229342  2.377713
H    -4.534041  1.380906  1.776959
H    -3.439983  0.909451  4.620772
H    -4.148447  2.392736  4.000043
H    -5.566932  1.050795  5.575262
H    -5.594579  -0.296792  4.433458
H    -6.910777  1.107762  2.792092
H    -6.801815  2.501188  3.897404
H    -8.168478  -0.082555  4.514256
H    -8.906912  1.346674  4.105697
H    -8.075112  1.221250  5.536452
N    -2.203922  3.345414  1.393048
C    -3.294551  3.390306  0.413696
H    -1.689106  4.216367  1.527853
H    -3.035155  4.129164  -0.351550
H    -4.236180  3.698326  0.885360
H    -3.421627  2.422268  -0.080930
Ba    1.557293  1.764229  3.731987
