35
Energy: -243352.013643 eV PBE+vdW (tier 2 basis)
C    2.725810  -2.052997  1.393108
C    1.811160  -1.936651  2.574794
O    2.192706  -2.422121  3.718755
H    2.304184  -1.611844  0.484198
H    2.934688  -3.113063  1.188025
H    3.679671  -1.551186  1.608725
N    0.650988  -1.347173  2.398884
C    -0.511754  -1.192560  3.278961
C    -1.693062  -1.486779  2.299942
O    -1.483889  -1.293169  1.096640
H    0.334263  -1.150668  1.425863
H    -0.452255  -1.918750  4.098152
C    -0.637197  0.247690  3.857627
C    -0.723451  1.361058  2.797195
C    -0.981978  2.783717  3.342314
C    -2.453996  3.062644  3.642296
N    -2.680099  4.534931  3.967777
H    0.221480  0.429542  4.521724
H    -1.529701  0.246439  4.501260
H    -1.489062  1.117591  2.045563
H    0.224608  1.401228  2.243150
H    -0.640963  3.496102  2.574902
H    -0.369886  2.971306  4.239140
H    -2.836819  2.502916  4.504272
H    -3.092845  2.848206  2.776270
H    -3.672664  4.732591  4.164080
H    -2.398241  5.140339  3.182143
H    -2.138440  4.834255  4.791613
N    -2.883195  -1.860703  2.798217
C    -3.210878  -2.295347  4.154520
H    -3.585015  -2.028028  2.077670
H    -4.288361  -2.177659  4.307640
H    -2.703657  -1.681587  4.907205
H    -2.957691  -3.352651  4.316085
Ba    3.610978  -3.728899  5.047826
