35
Energy: -243350.983448 eV PBE+vdW (tier 2 basis)
C    -0.700618  1.621205  0.663461
C    -0.438961  0.495603  1.634765
O    0.676167  0.136787  1.965439
H    -1.582749  2.218102  0.928258
H    -0.828283  1.235414  -0.359026
H    0.181553  2.269115  0.655796
N    -1.545980  -0.160685  2.211796
C    -2.788760  -0.442752  1.513949
C    -4.004976  -0.021993  2.360700
O    -4.879917  0.787823  1.844211
H    -1.212663  -0.883460  2.848071
H    -2.827791  0.228794  0.646668
C    -2.903827  -1.900386  0.981048
C    -1.751653  -2.325233  0.031861
C    -0.502578  -2.906263  0.725914
C    0.665511  -3.271211  -0.188815
N    0.460556  -4.566807  -0.972977
H    -3.858210  -1.986639  0.441125
H    -2.972391  -2.610377  1.818719
H    -1.457032  -1.470218  -0.597778
H    -2.178708  -3.069264  -0.658723
H    -0.775299  -3.776064  1.346532
H    -0.067640  -2.169846  1.417127
H    1.579069  -3.429537  0.396107
H    0.872283  -2.494907  -0.936278
H    1.286072  -4.776828  -1.554437
H    -0.350832  -4.523990  -1.604213
H    0.323295  -5.370515  -0.342860
N    -4.184858  -0.425617  3.604283
C    -3.346467  -1.277616  4.458123
H    -5.004284  -0.034628  4.068004
H    -2.894838  -2.091408  3.885495
H    -3.988863  -1.720271  5.225569
H    -2.568231  -0.677546  4.947077
Ba    -6.458051  2.371163  1.111913
