35
Energy: -243352.188430 eV PBE+vdW (tier 2 basis)
C    0.233772  -0.478189  -0.830703
C    0.211281  0.217206  0.488655
O    1.316742  0.747871  0.929271
H    0.939894  -1.319221  -0.781859
H    0.605060  0.208473  -1.603367
H    -0.742777  -0.859988  -1.136824
N    -0.865090  0.314362  1.235586
C    -2.292830  0.137052  0.926865
C    -2.907290  1.385309  1.651968
O    -2.222942  1.908262  2.546175
H    -0.838759  0.932065  2.085259
H    -2.449519  0.186455  -0.158053
C    -2.917914  -1.151175  1.513106
C    -2.499349  -2.461240  0.827125
C    -3.428314  -3.665448  1.101765
C    -3.418262  -4.168490  2.543441
N    -4.294521  -5.407814  2.688955
H    -4.008466  -1.032732  1.423642
H    -2.701133  -1.171660  2.591995
H    -1.462912  -2.724010  1.090317
H    -2.512567  -2.320371  -0.263952
H    -3.118009  -4.485009  0.434580
H    -4.457413  -3.397218  0.811824
H    -3.815245  -3.437763  3.258524
H    -2.415379  -4.469013  2.872230
H    -4.296186  -5.761280  3.657393
H    -3.968871  -6.175659  2.082857
H    -5.273959  -5.214160  2.432271
N    -4.126715  1.815533  1.309454
C    -5.029759  1.330734  0.269862
H    -4.453673  2.598978  1.874443
H    -5.511234  2.188484  -0.212460
H    -5.814675  0.685768  0.688564
H    -4.484504  0.780543  -0.503885
Ba    3.198780  1.981355  1.502519
