35
Energy: -243351.551095 eV PBE+vdW (tier 2 basis)
C    -0.382382  1.258204  1.465291
C    -0.423691  0.058664  2.367434
O    0.606420  -0.511702  2.763295
H    -1.359189  1.716066  1.274922
H    0.058495  0.964502  0.501874
H    0.291325  2.007194  1.901276
N    -1.671754  -0.373449  2.734960
C    -2.069433  -1.558589  3.500203
C    -2.576320  -1.209555  4.918154
O    -3.724488  -1.696233  5.283132
H    -2.441728  0.162817  2.345830
H    -2.976113  -1.935697  3.002592
C    -1.083677  -2.761721  3.571344
C    -0.983741  -3.625230  2.293634
C    -0.259318  -3.107261  1.032389
C    1.244245  -3.347520  0.896238
N    2.110029  -2.578360  1.884331
H    -1.486423  -3.422193  4.355476
H    -0.109072  -2.423553  3.934769
H    -2.009591  -3.886751  1.991380
H    -0.531623  -4.584049  2.592750
H    -0.492568  -2.054742  0.826069
H    -0.681348  -3.655466  0.176754
H    1.572684  -3.031610  -0.100705
H    1.500491  -4.408174  1.009333
H    3.054438  -2.429669  1.506083
H    2.224027  -3.090637  2.766342
H    1.678387  -1.646128  2.121774
N    -1.907224  -0.461660  5.769967
C    -0.594324  0.184563  5.652218
H    -2.383041  -0.298656  6.657838
H    -0.099951  0.119587  6.627434
H    -0.723271  1.243394  5.392654
H    0.024748  -0.306728  4.898823
Ba    -5.818776  -2.487156  6.043240
