35
Energy: -243352.039028 eV PBE+vdW (tier 2 basis)
C    0.127017  0.753876  0.320048
C    0.008737  0.128122  1.667503
O    1.067872  -0.012861  2.397442
H    0.147005  1.848192  0.439584
H    -0.705250  0.502721  -0.344213
H    1.064869  0.441777  -0.152656
N    -1.154279  -0.295816  2.136069
C    -2.499099  0.064904  1.634082
C    -2.570497  1.625138  1.618303
O    -1.921735  2.246289  2.457269
H    -1.129019  -0.654888  3.090566
H    -2.629040  -0.377419  0.637062
C    -3.512003  -0.530828  2.642583
C    -5.016030  -0.325426  2.386266
C    -5.672542  -1.301568  1.388644
C    -7.190908  -1.124621  1.409836
N    -7.912549  -2.159772  0.555695
H    -3.284466  -0.070159  3.616650
H    -3.302833  -1.608174  2.740278
H    -5.218944  0.715822  2.096621
H    -5.509898  -0.454222  3.360566
H    -5.418896  -2.334953  1.676641
H    -5.289818  -1.147200  0.367264
H    -7.504165  -0.145217  1.027026
H    -7.597289  -1.240548  2.422537
H    -8.934200  -2.022218  0.588990
H    -7.724725  -3.119203  0.881708
H    -7.630584  -2.110649  -0.433791
N    -3.343697  2.233231  0.688426
C    -4.093448  1.676912  -0.429965
H    -3.374752  3.245518  0.804643
H    -4.064245  2.385655  -1.264905
H    -5.149059  1.501502  -0.174719
H    -3.649373  0.739106  -0.782025
Ba    3.088501  0.322230  3.519390
