35
Energy: -243352.950795 eV PBE+vdW (tier 2 basis)
C    -0.236290  -0.255311  0.123739
C    0.086184  -0.097852  1.576273
O    1.265841  0.163868  1.948587
H    -1.290999  -0.470131  -0.077534
H    0.379507  -1.068241  -0.286982
H    0.049646  0.657991  -0.415465
N    -0.925132  -0.246112  2.455900
C    -0.906333  -0.247530  3.936294
C    -0.458228  1.112686  4.520797
O    0.746601  1.495542  4.467663
H    -1.834498  -0.413415  2.034566
H    -1.963913  -0.372179  4.208317
C    -0.110907  -1.426976  4.547874
C    -0.690059  -2.822341  4.224686
C    -1.935642  -3.241810  5.042503
C    -1.674345  -4.019234  6.335409
N    -1.430839  -5.506200  6.088455
H    -0.064939  -1.269226  5.636848
H    0.925076  -1.377275  4.188078
H    0.120855  -3.555139  4.360146
H    -0.930356  -2.874546  3.153492
H    -2.627880  -3.820047  4.410977
H    -2.518743  -2.357242  5.339961
H    -2.539634  -3.979335  7.007341
H    -0.797091  -3.655626  6.885370
H    -0.624898  -5.679939  5.471453
H    -2.252371  -5.953556  5.654246
H    -1.249487  -6.004650  6.973350
N    -1.394494  1.843129  5.111953
C    -1.165608  3.139620  5.757312
H    -2.352310  1.502657  5.095595
H    -1.910902  3.274097  6.547045
H    -1.269458  3.954482  5.028762
H    -0.163317  3.160672  6.194202
Ba    2.812960  1.625168  3.136790
