35
Energy: -243352.410395 eV PBE+vdW (tier 2 basis)
C    0.175515  0.255369  -0.050029
C    -0.056303  -0.059890  1.387417
O    0.894464  -0.415971  2.140046
H    0.587591  -0.654197  -0.516272
H    0.947585  1.027853  -0.164536
H    -0.728218  0.538970  -0.596136
N    -1.311324  -0.000576  1.917362
C    -2.199087  1.156621  1.755941
C    -1.444059  2.378507  2.360316
O    -0.537969  2.166884  3.230813
H    -1.343852  -0.394729  2.858768
H    -2.376524  1.324302  0.685397
C    -3.539049  0.819847  2.466951
C    -4.733822  1.758356  2.228600
C    -5.992949  1.335172  3.022737
C    -6.855657  0.206332  2.446825
N    -7.953868  0.717505  1.516550
H    -3.347297  0.758691  3.551068
H    -3.789198  -0.200409  2.137683
H    -4.954005  1.828073  1.150327
H    -4.481055  2.776146  2.554346
H    -6.626168  2.218585  3.199658
H    -5.690623  1.014441  4.030288
H    -7.386154  -0.331220  3.241132
H    -6.285322  -0.528479  1.865129
H    -8.520636  -0.061236  1.146629
H    -7.582490  1.234769  0.707778
H    -8.599761  1.348758  2.014580
N    -1.707823  3.617460  1.966844
C    -2.582661  4.116558  0.902916
H    -1.168467  4.332141  2.459137
H    -3.417947  4.683969  1.331028
H    -2.972964  3.296857  0.295858
H    -2.003726  4.786188  0.255798
Ba    1.581009  1.038403  4.031897
