35
Energy: -243351.625823 eV PBE+vdW (tier 2 basis)
C    0.967157  -1.338047  0.546829
C    0.576734  -0.688429  1.835041
O    1.418989  -0.348543  2.707034
H    1.715833  -0.713147  0.041853
H    0.126515  -1.520090  -0.130822
H    1.455954  -2.299562  0.761101
N    -0.738731  -0.448663  2.056087
C    -1.318052  -0.005320  3.334243
C    -1.104658  1.496346  3.591894
O    -2.107239  2.228495  3.952266
H    -1.393440  -0.715225  1.326321
H    -2.399652  -0.091577  3.180868
C    -0.958280  -0.953098  4.547953
C    -0.302841  -0.390591  5.826506
C    1.212728  -0.119125  5.908905
C    2.175888  -1.302978  6.006543
N    2.436583  -2.019181  4.681383
H    -0.377330  -1.783182  4.128926
H    -1.907368  -1.409206  4.856178
H    -0.560384  -1.090330  6.636314
H    -0.815609  0.542567  6.111331
H    1.377460  0.429629  6.848656
H    1.561576  0.557725  5.119093
H    1.838488  -2.063651  6.720967
H    3.153951  -0.942475  6.343717
H    3.413194  -2.336526  4.623705
H    2.234009  -1.393186  3.859631
H    1.852391  -2.857426  4.581997
N    0.095997  1.998412  3.427478
C    0.468580  3.401344  3.592421
H    0.818558  1.300654  3.163130
H    1.540592  3.501273  3.402030
H    0.261677  3.742308  4.615199
H    -0.066834  4.031992  2.870346
Ba    -3.910763  3.687027  4.401321
