35
Energy: -243352.096608 eV PBE+vdW (tier 2 basis)
C    -1.173991  0.756485  -0.122775
C    -0.474610  -0.010876  0.951028
O    0.784073  0.206652  1.143761
H    -1.083852  1.833042  0.061028
H    -2.234885  0.516092  -0.221865
H    -0.678418  0.525978  -1.078007
N    -1.052387  -1.050665  1.572326
C    -2.457241  -1.011929  1.986732
C    -2.603155  0.326284  2.822343
O    -1.694427  1.163623  2.745387
H    -0.431617  -1.520425  2.233250
H    -3.085115  -0.885920  1.091457
C    -2.841972  -2.315116  2.710565
C    -2.869250  -3.576981  1.818070
C    -4.148691  -3.764312  0.973287
C    -5.320735  -4.461686  1.666211
N    -5.154852  -5.978972  1.704436
H    -3.824681  -2.178695  3.185668
H    -2.144092  -2.468780  3.548240
H    -2.704901  -4.452214  2.466963
H    -2.002460  -3.564248  1.142606
H    -3.912820  -4.300922  0.040944
H    -4.531403  -2.789552  0.634810
H    -6.263423  -4.288304  1.134170
H    -5.453509  -4.148323  2.709583
H    -5.115466  -6.374475  0.753170
H    -5.947230  -6.429051  2.187224
H    -4.296030  -6.268259  2.193428
N    -3.729196  0.506363  3.517653
C    -4.011995  1.731482  4.273103
H    -4.424673  -0.229688  3.541354
H    -5.085480  1.777332  4.476169
H    -3.716228  2.604802  3.683124
H    -3.464563  1.738801  5.223974
Ba    2.598708  1.577631  1.648350
