35
Energy: -243352.238565 eV PBE+vdW (tier 2 basis)
C    -1.219935  -1.564227  -0.438160
C    -1.078526  -1.716942  1.039208
O    -0.253269  -2.598126  1.509462
H    -0.975258  -2.505140  -0.940633
H    -0.518694  -0.787588  -0.781302
H    -2.226252  -1.257098  -0.742552
N    -1.783351  -0.974809  1.878607
C    -2.580688  0.206579  1.510169
C    -1.591881  1.306758  0.989067
O    -0.390526  1.204500  1.227931
H    -1.561627  -1.098425  2.865440
H    -3.253136  -0.098168  0.695438
C    -3.472062  0.691405  2.675560
C    -2.788902  1.510988  3.785190
C    -3.831631  2.112044  4.750159
C    -3.186916  2.994702  5.815626
N    -4.233357  3.624839  6.727656
H    -3.999158  -0.178007  3.099237
H    -4.259240  1.309065  2.218998
H    -2.199017  2.323092  3.334015
H    -2.075104  0.893818  4.354075
H    -4.404778  1.303467  5.232132
H    -4.552343  2.709327  4.167761
H    -2.626753  3.830847  5.378677
H    -2.512199  2.433531  6.473955
H    -3.796318  4.220865  7.446484
H    -4.791718  2.911615  7.219154
H    -4.891437  4.216692  6.199456
N    -2.174528  2.316455  0.313114
C    -1.426836  3.444283  -0.245715
H    -3.164921  2.259310  0.096279
H    -1.913188  4.387959  0.025695
H    -1.377100  3.372074  -1.339533
H    -0.412620  3.423124  0.161804
Ba    1.488471  -4.145424  1.642912
