35
Energy: -243351.697468 eV PBE+vdW (tier 2 basis)
C    0.134533  0.310408  0.604759
C    0.034791  -0.505362  1.850662
O    1.102849  -0.833872  2.507572
H    -0.426471  -0.142562  -0.224690
H    1.177798  0.430377  0.303125
H    -0.304628  1.307699  0.762718
N    -1.150880  -0.891395  2.304819
C    -2.457212  -0.613891  1.665912
C    -2.901536  0.879586  1.705588
O    -3.396765  1.337889  0.680667
H    -1.151895  -1.418556  3.178241
H    -2.321621  -0.805676  0.594074
C    -3.574760  -1.551117  2.202736
C    -4.444878  -2.199021  1.102094
C    -5.294008  -1.258866  0.221121
C    -6.574767  -0.700154  0.835074
N    -7.732041  -1.697387  0.773860
H    -4.198097  -1.003928  2.924850
H    -3.112159  -2.373310  2.770041
H    -5.076254  -2.958429  1.592259
H    -3.785875  -2.775484  0.436312
H    -5.542543  -1.775187  -0.719802
H    -4.700664  -0.384766  -0.085408
H    -6.924604  0.182909  0.287923
H    -6.469976  -0.425398  1.892115
H    -8.588412  -1.308577  1.195538
H    -7.518469  -2.575662  1.266286
H    -7.956983  -1.940788  -0.202141
N    -2.765592  1.601782  2.845793
C    -2.349630  1.185712  4.179952
H    -3.102116  2.557867  2.744277
H    -2.765996  1.891017  4.906436
H    -1.256203  1.192861  4.300624
H    -2.740013  0.194131  4.442648
Ba    3.323611  -1.213555  3.179611
