35
Energy: -243352.608003 eV PBE+vdW (tier 2 basis)
C    -1.384813  2.371555  -1.193983
C    -0.278629  1.732165  -0.421300
O    0.931261  1.948978  -0.715469
H    -1.091152  2.400308  -2.251005
H    -1.521036  3.417701  -0.878326
H    -2.340979  1.848237  -1.097324
N    -0.557919  0.895931  0.616257
C    -1.534429  1.231863  1.650288
C    -0.913483  2.397296  2.498960
O    0.227514  2.863024  2.197246
H    0.279682  0.438252  0.980023
H    -2.430308  1.638936  1.156004
C    -1.922379  -0.018192  2.473729
C    -2.613183  -1.114806  1.638345
C    -2.774670  -2.459647  2.384778
C    -4.019530  -2.646101  3.256270
N    -5.213651  -3.178407  2.466376
H    -2.566529  0.290873  3.310354
H    -1.010720  -0.427955  2.939060
H    -2.011140  -1.302703  0.738707
H    -3.584187  -0.743182  1.269261
H    -1.908469  -2.616776  3.044015
H    -2.716497  -3.288998  1.662523
H    -4.361481  -1.719559  3.733998
H    -3.846009  -3.389047  4.043375
H    -5.487994  -2.555821  1.693844
H    -6.039693  -3.297041  3.072644
H    -5.005690  -4.101702  2.056701
N    -1.619449  2.888325  3.503436
C    -1.183072  3.992758  4.367958
H    -2.541401  2.500054  3.681027
H    -1.909343  4.106163  5.176897
H    -1.134464  4.929318  3.798984
H    -0.200081  3.770266  4.797333
Ba    2.286724  3.349887  0.816002
