35
Energy: -243353.026059 eV PBE+vdW (tier 2 basis)
C    -0.273545  1.448543  0.601064
C    -0.456117  0.064045  1.140630
O    0.284657  -0.881079  0.744127
H    -0.400590  1.419531  -0.490546
H    0.756352  1.781570  0.787954
H    -0.965633  2.185797  1.021186
N    -1.430677  -0.118379  2.053454
C    -1.947830  -1.353483  2.683452
C    -0.894806  -2.072201  3.550526
O    0.126056  -2.622584  3.036245
H    -1.938204  0.726099  2.302460
H    -2.720876  -0.982910  3.367190
C    -2.650393  -2.327906  1.702808
C    -3.865719  -1.674750  1.018134
C    -4.703242  -2.578328  0.083471
C    -5.689641  -3.489451  0.815413
N    -6.645463  -4.166285  -0.160298
H    -2.951588  -3.207454  2.293156
H    -1.932824  -2.684689  0.950336
H    -4.529898  -1.235656  1.780457
H    -3.515773  -0.830436  0.408465
H    -4.042307  -3.176374  -0.563750
H    -5.271852  -1.911842  -0.583688
H    -6.326560  -2.926095  1.509155
H    -5.203967  -4.300918  1.370865
H    -7.197348  -3.474633  -0.690321
H    -7.315900  -4.777287  0.330625
H    -6.147913  -4.749840  -0.848862
N    -1.093976  -2.142741  4.860985
C    -2.173546  -1.574277  5.681211
H    -0.381747  -2.675995  5.361406
H    -1.926141  -1.758422  6.730554
H    -3.134375  -2.059467  5.469943
H    -2.252576  -0.489893  5.541141
Ba    1.913958  -2.585210  1.358055
