35
Energy: -243352.488970 eV PBE+vdW (tier 2 basis)
C    -3.807304  -1.044192  -1.436112
C    -3.153396  -2.086265  -0.584344
O    -3.612082  -3.264986  -0.577942
H    -4.377331  -1.549906  -2.222658
H    -3.089567  -0.358364  -1.895366
H    -4.515429  -0.446716  -0.840640
N    -2.046049  -1.821195  0.168607
C    -1.904025  -0.694886  1.105976
C    -2.991461  -0.877731  2.213751
O    -3.957670  -1.683364  2.020794
H    -1.652245  -2.686183  0.541149
H    -0.924751  -0.849983  1.584461
C    -1.916436  0.718549  0.476815
C    -0.863158  0.966263  -0.627699
C    0.494695  1.514012  -0.138043
C    1.391844  1.848333  -1.331806
N    2.701715  2.504272  -0.914630
H    -1.779358  1.446658  1.287163
H    -2.914722  0.930563  0.077736
H    -0.702468  0.045223  -1.208243
H    -1.294486  1.696361  -1.327775
H    1.000458  0.785334  0.515964
H    0.322376  2.424570  0.458380
H    1.670630  0.955973  -1.905909
H    0.908764  2.558488  -2.014864
H    3.285666  2.718698  -1.737790
H    3.260818  1.898461  -0.296503
H    2.544642  3.392950  -0.416451
N    -2.899024  -0.217009  3.358911
C    -1.852670  0.684974  3.847410
H    -3.677252  -0.377939  3.999688
H    -1.730165  0.517188  4.922836
H    -2.135660  1.733625  3.689043
H    -0.895771  0.476678  3.359842
Ba    -5.139134  -3.793088  1.295154
