35
Energy: -243351.745605 eV PBE+vdW (tier 2 basis)
C    1.059820  -0.639832  1.935166
C    -0.156455  -1.360458  2.401265
O    -0.045321  -2.627778  2.667824
H    0.907539  0.428104  1.790817
H    1.383502  -1.064390  0.976668
H    1.860122  -0.797512  2.672872
N    -1.326580  -0.784182  2.654348
C    -1.905785  0.484932  2.165767
C    -2.015622  0.359913  0.614681
O    -1.131134  -0.235969  0.002028
H    -2.020494  -1.431639  3.025820
H    -2.908624  0.481490  2.606825
C    -1.191545  1.792960  2.655199
C    -0.430951  2.659413  1.618418
C    -1.230231  3.832967  1.012041
C    -1.396719  5.079186  1.882378
N    -0.158893  5.973639  1.865165
H    -0.512582  1.501737  3.466707
H    -1.962960  2.402009  3.146998
H    -0.079099  2.037838  0.783817
H    0.487741  3.037028  2.096331
H    -2.244367  3.500834  0.753056
H    -0.785434  4.124924  0.047268
H    -1.587513  4.850010  2.938629
H    -2.213291  5.713875  1.518859
H    -0.292605  6.808009  2.456044
H    0.046411  6.306511  0.911347
H    0.681159  5.487794  2.208314
N    -3.070163  0.957659  0.020366
C    -4.282960  1.493361  0.640521
H    -3.086558  0.831122  -0.990657
H    -4.813346  2.096106  -0.103389
H    -4.051065  2.149165  1.489122
H    -4.962254  0.697393  0.976238
Ba    0.532951  -4.885090  2.759592
