35
Energy: -243352.999572 eV PBE+vdW (tier 2 basis)
C    -0.070849  1.629851  0.380633
C    -0.538199  0.264121  0.767479
O    0.270404  -0.708107  0.810985
H    0.345644  1.584855  -0.636032
H    0.749221  1.935110  1.044721
H    -0.856350  2.392120  0.409096
N    -1.842021  0.108399  1.068104
C    -2.580795  -1.140075  1.365701
C    -1.974471  -1.850354  2.601562
O    -1.036213  -2.692271  2.477083
H    -2.409816  0.948457  0.995717
H    -3.582325  -0.793789  1.650660
C    -2.712831  -2.067068  0.139772
C    -3.840633  -3.121942  0.222633
C    -5.211254  -2.640482  -0.302917
C    -6.215718  -3.793930  -0.342588
N    -7.541899  -3.386446  -0.971498
H    -1.756498  -2.580470  -0.020872
H    -2.862168  -1.427319  -0.741528
H    -3.942508  -3.502526  1.251734
H    -3.528168  -3.987226  -0.378959
H    -5.078395  -2.236107  -1.319399
H    -5.608067  -1.821694  0.319019
H    -6.459197  -4.173074  0.657730
H    -5.846116  -4.632626  -0.946051
H    -8.003409  -2.627249  -0.449453
H    -8.200303  -4.180485  -0.996533
H    -7.422324  -3.062569  -1.942956
N    -2.462959  -1.560515  3.802680
C    -3.505884  -0.592224  4.166886
H    -2.034625  -2.078335  4.570514
H    -3.256232  0.414333  3.811643
H    -3.565633  -0.558196  5.258444
H    -4.488138  -0.898488  3.785625
Ba    1.298732  -2.742685  1.640366
