35
Energy: -243353.037245 eV PBE+vdW (tier 2 basis)
C    -0.589444  0.005543  -0.265666
C    -0.417339  0.277649  1.193631
O    0.538033  0.989709  1.617801
H    -0.723513  0.964397  -0.787254
H    -1.438452  -0.646599  -0.495979
H    0.327600  -0.445021  -0.668166
N    -1.317557  -0.250613  2.046956
C    -1.388365  -0.017388  3.500690
C    -0.263127  -0.818087  4.212763
O    0.905625  -0.330182  4.238429
H    -2.026767  -0.856709  1.640957
H    -1.126483  1.038342  3.671213
C    -2.822119  -0.291651  4.003951
C    -3.894487  0.704619  3.493584
C    -4.124809  1.945642  4.383857
C    -5.095871  1.772830  5.555201
N    -6.558595  1.862426  5.126742
H    -2.803461  -0.296022  5.103982
H    -3.117753  -1.309767  3.700950
H    -4.835929  0.150147  3.358947
H    -3.630960  1.045729  2.482409
H    -4.455823  2.794762  3.765720
H    -3.173476  2.281343  4.823428
H    -4.966039  2.566409  6.300273
H    -4.989960  0.806662  6.064886
H    -7.189622  1.738555  5.933546
H    -6.813995  1.147568  4.430780
H    -6.773740  2.782983  4.714770
N    -0.547665  -1.990852  4.756316
C    0.413145  -2.865854  5.436877
H    -1.503450  -2.330265  4.687232
H    -0.085963  -3.347692  6.283712
H    1.254443  -2.270272  5.798948
H    0.775541  -3.640574  4.748676
Ba    2.532072  1.087599  3.032926
