35
Energy: -243352.052675 eV PBE+vdW (tier 2 basis)
C    -1.735340  -0.010293  -0.736536
C    -1.721194  -0.159534  0.756952
O    -1.758624  -1.278604  1.305948
H    -2.459423  -0.714796  -1.161629
H    -0.750491  -0.305866  -1.127064
H    -1.959071  1.004270  -1.083823
N    -1.634713  0.992600  1.484258
C    -1.672263  1.159394  2.946635
C    -0.551842  0.425295  3.704692
O    0.097106  1.067627  4.629830
H    -1.574806  1.856582  0.954511
H    -1.432462  2.219607  3.099164
C    -3.066667  0.971850  3.618860
C    -3.798832  -0.389204  3.572261
C    -4.846099  -0.519564  2.447651
C    -5.561223  -1.865943  2.538472
N    -6.705379  -1.978851  1.538285
H    -3.712787  1.756574  3.198086
H    -2.925818  1.254121  4.673132
H    -4.321035  -0.507674  4.532789
H    -3.086951  -1.222656  3.509661
H    -4.372014  -0.419179  1.460455
H    -5.579006  0.297876  2.545150
H    -6.013543  -2.024974  3.525638
H    -4.888525  -2.705944  2.325058
H    -7.180987  -2.890448  1.616297
H    -6.376781  -1.889057  0.566244
H    -7.417801  -1.249793  1.690549
N    -0.296687  -0.824868  3.424047
C    0.736070  -1.637153  4.056623
H    -0.880971  -1.214000  2.619214
H    0.566920  -1.712260  5.139279
H    1.735051  -1.223028  3.860080
H    0.696363  -2.643169  3.629983
Ba    1.534522  2.062540  6.174276
