35
Energy: -243351.193381 eV PBE+vdW (tier 2 basis)
C    0.396478  -0.413882  0.963878
C    -0.093403  0.161204  2.259567
O    0.688498  0.543441  3.138024
H    -0.341769  -0.983840  0.390507
H    1.277721  -1.038079  1.146437
H    0.735702  0.428520  0.340164
N    -1.455988  0.365237  2.464090
C    -2.501141  -0.614909  2.172130
C    -3.785463  0.085223  1.678586
O    -4.941356  -0.204160  2.186072
H    -1.601936  0.865552  3.342900
H    -2.162425  -1.227989  1.320214
C    -2.697774  -1.534113  3.399422
C    -1.435580  -2.382546  3.710923
C    -1.040657  -2.499312  5.195990
C    -0.457495  -1.276228  5.908378
N    0.932392  -0.885157  5.440797
H    -3.549633  -2.207612  3.231595
H    -2.967551  -0.898345  4.258809
H    -0.575115  -2.015833  3.133641
H    -1.599600  -3.400981  3.335709
H    -0.335854  -3.338706  5.304227
H    -1.917485  -2.801361  5.789147
H    -1.072198  -0.373530  5.796165
H    -0.377272  -1.487581  6.981082
H    1.385749  -0.270656  6.130962
H    0.903783  -0.344020  4.528996
H    1.543262  -1.705430  5.329778
N    -3.723125  0.982349  0.711922
C    -2.578121  1.428568  -0.097685
H    -4.612745  1.420230  0.475925
H    -1.954596  2.130437  0.466598
H    -2.978872  1.931451  -0.982736
H    -1.978796  0.574584  -0.425710
Ba    -7.183048  -0.720833  2.749655
