35
Energy: -243351.928742 eV PBE+vdW (tier 2 basis)
C    -0.038773  0.074718  0.010168
C    -0.145276  -0.019245  1.506266
O    0.840459  -0.112791  2.253602
H    0.713280  -0.639628  -0.344548
H    0.319229  1.078218  -0.263688
H    -0.986099  -0.097482  -0.512852
N    -1.417027  0.009691  2.030018
C    -1.644150  0.121185  3.470123
C    -2.844619  -0.759653  3.839087
O    -2.774648  -2.040779  3.712771
H    -2.174772  0.257966  1.398509
H    -0.770563  -0.368063  3.931577
C    -1.731406  1.581211  3.975943
C    -0.448985  2.411192  3.769229
C    0.720960  1.988303  4.673844
C    2.085745  2.550826  4.292143
N    2.592971  1.986433  2.960582
H    -1.969511  1.571055  5.052329
H    -2.554007  2.103105  3.458542
H    -0.698701  3.462418  3.969793
H    -0.173906  2.377838  2.703898
H    0.808487  0.892763  4.727971
H    0.528030  2.327013  5.702523
H    2.832898  2.283015  5.046667
H    2.081859  3.642844  4.194805
H    3.595827  1.767278  3.010693
H    2.481290  2.664774  2.198083
H    2.073580  1.115422  2.681991
N    -3.945491  -0.191928  4.288082
C    -5.166832  -0.886797  4.697713
H    -3.937840  0.823561  4.371306
H    -5.906091  -0.141046  5.002665
H    -4.965709  -1.544201  5.553642
H    -5.580846  -1.463036  3.860536
Ba    -2.755102  -4.393072  3.607594
