35
Energy: -243352.658991 eV PBE+vdW (tier 2 basis)
C    -1.294142  1.049465  -0.279952
C    -0.980182  0.319336  0.984014
O    0.010231  -0.460834  1.059361
H    -1.056442  0.393523  -1.126797
H    -0.648690  1.936805  -0.379506
H    -2.339118  1.367954  -0.346996
N    -1.762380  0.489945  2.086612
C    -2.168849  1.815424  2.556984
C    -0.867342  2.575188  2.969341
O    0.228884  1.932291  3.050665
H    -1.495631  -0.138351  2.846129
H    -2.628217  2.359676  1.718041
C    -3.184075  1.688903  3.714796
C    -4.555674  1.118766  3.300248
C    -5.468048  0.912152  4.525475
C    -6.783673  0.169375  4.291755
N    -7.878557  1.026659  3.660265
H    -3.319399  2.675230  4.178448
H    -2.738613  1.054948  4.499610
H    -4.415892  0.156753  2.783585
H    -5.019627  1.802217  2.569453
H    -5.664632  1.869302  5.036369
H    -4.932412  0.301086  5.268342
H    -7.205351  -0.175250  5.243373
H    -6.666227  -0.702243  3.635509
H    -8.751670  0.486345  3.559608
H    -7.625416  1.367819  2.723164
H    -8.098717  1.847372  4.243700
N    -0.898670  3.877043  3.210158
C    -2.013474  4.823157  3.110169
H    -0.005601  4.273677  3.506542
H    -2.792893  4.444114  2.443040
H    -1.633393  5.762216  2.693368
H    -2.437531  5.028982  4.101480
Ba    1.975279  0.234189  2.417992
