35
Energy: -243352.120766 eV PBE+vdW (tier 2 basis)
C    0.203378  0.727794  0.613001
C    0.057572  -0.280245  1.712466
O    1.120966  -0.844023  2.200577
H    0.682809  0.259477  -0.258673
H    0.840440  1.557047  0.951772
H    -0.754459  1.145734  0.286527
N    -1.154193  -0.557151  2.138334
C    -1.665831  -1.496974  3.146646
C    -2.995526  -1.977387  2.502160
O    -3.680281  -1.129766  1.924321
H    -1.955733  -0.109718  1.664043
H    -0.946167  -2.312959  3.292493
C    -1.926707  -0.728741  4.473041
C    -2.845260  -1.414185  5.510988
C    -4.320698  -0.967631  5.428927
C    -5.144380  -1.563880  6.567946
N    -6.570615  -1.026250  6.574129
H    -2.348354  0.251764  4.208275
H    -0.948631  -0.528134  4.930398
H    -2.461780  -1.162293  6.509899
H    -2.777173  -2.510298  5.434534
H    -4.760041  -1.244901  4.458400
H    -4.356129  0.132381  5.490041
H    -4.728226  -1.315747  7.552663
H    -5.232787  -2.655212  6.497848
H    -7.123575  -1.437223  7.341199
H    -7.063608  -1.235237  5.693942
H    -6.589217  -0.003369  6.698700
N    -3.316170  -3.275111  2.651625
C    -4.518719  -3.873001  2.068386
H    -2.638272  -3.898103  3.078278
H    -4.253749  -4.535277  1.234843
H    -5.156924  -3.069073  1.691257
H    -5.056689  -4.455888  2.824973
Ba    3.427564  -1.257996  2.253264
