35
Energy: -243352.121297 eV PBE+vdW (tier 2 basis)
C    -0.154897  0.965791  -0.309440
C    0.203667  0.524128  1.071472
O    1.461672  0.481915  1.378771
H    -1.208030  0.833635  -0.556501
H    0.440535  0.417319  -1.046213
H    0.090509  2.036851  -0.390462
N    -0.686833  0.446925  2.081890
C    -1.972237  -0.262577  1.975040
C    -1.641018  -1.598043  1.220729
O    -0.581638  -1.657372  0.576013
H    -0.230364  0.314447  2.983194
H    -2.246195  -0.498476  3.013586
C    -3.153238  0.528570  1.364019
C    -3.475392  1.813471  2.144682
C    -4.624926  2.675232  1.577286
C    -6.018899  2.103167  1.830841
N    -7.101606  3.088210  1.404714
H    -4.016335  -0.152052  1.361287
H    -2.960789  0.763216  0.308522
H    -2.580180  2.450521  2.164923
H    -3.689094  1.568465  3.197737
H    -4.476277  2.835844  0.497189
H    -4.558336  3.665761  2.054221
H    -6.195195  1.908871  2.896446
H    -6.218047  1.181584  1.270682
H    -8.046061  2.712516  1.577540
H    -7.040639  3.314402  0.401064
H    -7.027429  3.977119  1.921857
N    -2.493012  -2.627734  1.306254
C    -3.723516  -2.762821  2.081833
H    -2.210646  -3.437360  0.755620
H    -4.610953  -2.534460  1.475701
H    -3.706631  -2.119140  2.967948
H    -3.805658  -3.797966  2.430162
Ba    3.689742  -0.160600  1.228509
