35
Energy: -243352.028236 eV PBE+vdW (tier 2 basis)
C    0.408033  2.955971  0.267699
C    0.024917  3.684006  1.513220
O    0.825252  4.557304  2.037790
H    -0.371783  3.047275  -0.501581
H    0.529691  1.880482  0.469003
H    1.348566  3.342439  -0.132224
N    -1.143687  3.437844  2.094866
C    -2.144396  2.440456  1.649917
C    -2.962663  2.843957  0.387057
O    -3.436474  1.933630  -0.282909
H    -1.342281  3.957700  2.950864
H    -1.596255  1.538088  1.347231
C    -3.089950  2.082030  2.820853
C    -3.914456  0.807133  2.555739
C    -4.952651  0.537103  3.656111
C    -5.671281  -0.805184  3.553357
N    -6.608049  -0.893595  2.350347
H    -3.761983  2.933208  3.018566
H    -2.482961  1.929917  3.727726
H    -3.226077  -0.049896  2.481782
H    -4.392864  0.902108  1.569456
H    -5.692508  1.352978  3.707383
H    -4.464764  0.524139  4.643112
H    -6.302176  -0.986941  4.431300
H    -4.972826  -1.645263  3.450280
H    -6.105987  -0.776001  1.459150
H    -7.342679  -0.172699  2.391553
H    -7.080422  -1.809089  2.317669
N    -3.115587  4.162277  0.124780
C    -3.934658  4.648970  -0.987776
H    -2.780543  4.842386  0.797601
H    -3.472171  5.540910  -1.423022
H    -4.950761  4.896917  -0.654049
H    -3.993844  3.862444  -1.745521
Ba    2.672520  5.910338  2.575765
