35
Energy: -243353.193161 eV PBE+vdW (tier 2 basis)
C    0.473347  -0.617402  0.017836
C    0.058030  -0.687394  1.450419
O    0.223163  -1.742934  2.129805
H    0.227039  0.333470  -0.466094
H    0.008242  -1.438867  -0.542843
H    1.560986  -0.772887  -0.037511
N    -0.488648  0.409111  2.008498
C    -0.822163  0.588931  3.434451
C    -2.096053  -0.229037  3.774435
O    -1.973013  -1.445709  4.100979
H    -0.605783  1.217926  1.402096
H    -0.019583  0.114878  4.019745
C    -0.852007  2.101285  3.736583
C    -0.931719  2.506275  5.221280
C    -1.059296  4.038015  5.357489
C    -1.224408  4.601054  6.770433
N    0.093447  4.786216  7.518950
H    -1.675717  2.581259  3.178709
H    0.068768  2.522904  3.304398
H    -0.035068  2.132266  5.742067
H    -1.797160  2.029540  5.707704
H    -1.957182  4.367157  4.812614
H    -0.222486  4.545240  4.848975
H    -1.851284  3.967758  7.410617
H    -1.673695  5.600480  6.737592
H    -0.071079  5.189784  8.454227
H    0.721769  5.433330  7.019578
H    0.602171  3.902545  7.656239
N    -3.281125  0.356355  3.686171
C    -4.566124  -0.311662  3.919661
H    -3.311311  1.326936  3.386394
H    -4.917577  -0.802241  3.002363
H    -5.302420  0.438170  4.223353
H    -4.453856  -1.055798  4.713339
Ba    -0.672207  -3.494953  3.556447
