35
Energy: -243351.640843 eV PBE+vdW (tier 2 basis)
C    0.092451  0.936767  0.808046
C    -0.354156  1.198550  2.215033
O    0.426501  1.234804  3.166886
H    -0.574751  1.356010  0.046525
H    0.181103  -0.148693  0.642597
H    1.098875  1.352251  0.682593
N    -1.711201  1.426402  2.458908
C    -2.826334  0.740033  1.805368
C    -3.728221  1.734648  1.048288
O    -4.737968  1.321967  0.361467
H    -1.869525  1.603321  3.451059
H    -2.432182  0.057963  1.034575
C    -3.620529  -0.082314  2.855010
C    -2.999975  -1.430609  3.289542
C    -1.561494  -1.481332  3.844269
C    -1.336473  -0.763326  5.180762
N    0.129137  -0.434707  5.370675
H    -4.615414  -0.309659  2.447269
H    -3.808122  0.573036  3.721736
H    -3.027742  -2.117442  2.430692
H    -3.686402  -1.867240  4.030346
H    -0.853223  -1.100782  3.095691
H    -1.302521  -2.542541  3.970817
H    -1.658044  -1.374772  6.031955
H    -1.861188  0.197790  5.252225
H    0.312178  -0.020122  6.294799
H    0.417042  0.257345  4.628321
H    0.723561  -1.271322  5.291555
N    -3.415929  3.008230  1.120704
C    -4.123682  4.114869  0.481460
H    -2.570565  3.203111  1.665573
H    -3.665572  5.055034  0.801043
H    -5.177441  4.124469  0.788497
H    -4.042184  4.047150  -0.611876
Ba    -6.587083  0.872311  -1.043248
