35
Energy: -243350.861647 eV PBE+vdW (tier 2 basis)
C    -1.170857  -1.041443  0.706906
C    -0.322509  -0.960513  1.953327
O    0.265214  -1.918580  2.422195
H    -1.171912  -0.115125  0.117748
H    -2.211405  -1.286318  0.966146
H    -0.789163  -1.862808  0.092204
N    -0.198720  0.280799  2.601201
C    -1.232523  1.307623  2.672067
C    -0.566538  2.659127  2.349715
O    -0.664905  3.114882  1.138346
H    0.387242  0.178823  3.430318
H    -1.904025  1.145927  1.819130
C    -2.096572  1.252616  3.957578
C    -3.131600  0.101722  3.966461
C    -2.688096  -1.307665  4.429815
C    -2.638841  -1.462709  5.949208
N    -2.359538  -2.909670  6.339093
H    -2.648448  2.201319  4.042996
H    -1.451880  1.199423  4.845724
H    -3.555553  -0.000527  2.956731
H    -3.978630  0.420883  4.591139
H    -1.718071  -1.594355  3.997952
H    -3.426886  -2.022424  4.034110
H    -1.848336  -0.867250  6.422417
H    -3.594872  -1.203694  6.421586
H    -1.464374  -3.245830  5.953595
H    -3.096181  -3.541598  5.990946
H    -2.318599  -3.025490  7.362778
N    0.145493  3.354255  3.218075
C    0.464119  3.087115  4.627604
H    0.548852  4.213263  2.845955
H    -0.360490  3.397656  5.280098
H    0.700023  2.031636  4.787458
H    1.352275  3.672716  4.883251
Ba    -0.674665  3.964785  -1.054633
