35
Energy: -243352.499120 eV PBE+vdW (tier 2 basis)
C    -0.504260  0.063516  0.044720
C    -0.693511  -0.156037  1.509909
O    0.178636  -0.756387  2.197127
H    -0.013113  -0.822040  -0.377858
H    0.176159  0.912251  -0.128902
H    -1.440086  0.252052  -0.490221
N    -1.818505  0.299981  2.130194
C    -2.324758  1.658220  1.919333
C    -1.206595  2.647366  2.379133
O    -0.220443  2.201468  3.050111
H    -1.863452  0.005125  3.107099
H    -2.500160  1.810799  0.844232
C    -3.630231  1.869693  2.720530
C    -4.863652  1.045839  2.291646
C    -5.516906  1.485143  0.963875
C    -7.028071  1.272250  0.859958
N    -7.455486  -0.191997  0.798171
H    -3.890255  2.936649  2.697108
H    -3.413576  1.649372  3.778075
H    -5.592561  1.166636  3.108375
H    -4.606413  -0.024639  2.266828
H    -5.015893  1.032670  0.093365
H    -5.398895  2.573277  0.838482
H    -7.426466  1.730882  -0.052920
H    -7.560135  1.700930  1.718822
H    -8.481276  -0.266022  0.712970
H    -7.186189  -0.716418  1.642124
H    -7.050894  -0.676215  -0.016321
N    -1.278078  3.932555  2.067668
C    -2.275762  4.649246  1.268412
H    -0.524238  4.504057  2.452602
H    -2.996231  5.163519  1.917730
H    -2.802007  3.967383  0.594407
H    -1.758608  5.399506  0.660439
Ba    1.567757  0.587219  3.771286
