35
Energy: -243353.038776 eV PBE+vdW (tier 2 basis)
C    0.069411  1.419332  0.315459
C    0.161417  0.806598  1.677340
O    1.197780  0.167685  2.024877
H    0.931463  2.079058  0.150121
H    -0.851705  1.985959  0.143862
H    0.137839  0.617027  -0.433656
N    -0.891028  0.966752  2.500150
C    -1.187530  0.385318  3.829613
C    -0.142153  0.759037  4.905849
O    1.029008  0.278823  4.906914
H    -1.654389  1.511918  2.107470
H    -2.121540  0.887434  4.118131
C    -1.513194  -1.129176  3.770360
C    -2.186992  -1.634558  5.066849
C    -3.256809  -2.737531  4.901855
C    -2.717381  -4.123486  4.554988
N    -3.838056  -5.157488  4.568319
H    -0.605530  -1.700542  3.531803
H    -2.196138  -1.253009  2.916707
H    -2.713421  -0.794621  5.545072
H    -1.429089  -1.956339  5.796565
H    -3.991271  -2.422366  4.143128
H    -3.802589  -2.801401  5.856477
H    -1.978940  -4.474075  5.287221
H    -2.271641  -4.176328  3.553978
H    -4.577007  -4.932519  3.885369
H    -4.289126  -5.214791  5.494188
H    -3.489011  -6.100824  4.341162
N    -0.555994  1.585178  5.858657
C    0.253785  2.036548  6.993222
H    -1.495581  1.967563  5.787142
H    -0.410671  2.245257  7.837249
H    0.796874  2.955716  6.736425
H    0.964164  1.253592  7.272742
Ba    3.046499  -0.149322  3.551321
