35
Energy: -243351.422952 eV PBE+vdW (tier 2 basis)
C    -0.214364  1.190709  1.565124
C    -0.893659  1.228058  2.903882
O    -1.172165  2.283903  3.467067
H    -0.606953  1.981470  0.916832
H    -0.262999  0.225411  1.050902
H    0.847819  1.431552  1.734331
N    -1.124388  0.018546  3.585272
C    -1.835141  -1.139832  3.016439
C    -0.863867  -2.210066  2.490753
O    -1.296527  -3.268714  1.895636
H    -1.408661  0.222694  4.543218
H    -2.304613  -1.635995  3.884305
C    -2.984032  -0.760184  2.043992
C    -3.957724  0.289159  2.657277
C    -4.058777  1.587466  1.830570
C    -4.666043  2.800758  2.531486
N    -3.784735  3.350824  3.656238
H    -3.533478  -1.674435  1.786575
H    -2.563315  -0.381907  1.101693
H    -3.640177  0.517598  3.685645
H    -4.958023  -0.151954  2.756323
H    -4.685773  1.408283  0.944727
H    -3.075908  1.875061  1.430091
H    -5.648024  2.591484  2.972140
H    -4.789070  3.618859  1.813461
H    -3.846382  4.376742  3.700110
H    -2.774950  3.090039  3.541556
H    -4.077478  3.003333  4.577091
N    0.414785  -2.032628  2.736431
C    1.498662  -2.951071  2.399015
H    0.625243  -1.174946  3.255809
H    2.451273  -2.476748  2.650986
H    1.497295  -3.168885  1.323164
H    1.415520  -3.879973  2.979939
Ba    -1.770664  -5.391702  0.972456
