35
Energy: -243352.040040 eV PBE+vdW (tier 2 basis)
C    -1.635847  -0.492290  0.082785
C    -0.912225  0.235360  1.173253
O    0.374822  0.382120  1.093830
H    -2.715399  -0.551821  0.254136
H    -1.248430  -1.518013  0.002143
H    -1.464479  0.011318  -0.878871
N    -1.613350  0.701700  2.184922
C    -1.173085  1.346566  3.425492
C    -2.171414  0.793535  4.482110
O    -3.318699  0.526208  4.096447
H    -2.613685  0.452741  2.259740
H    -0.141935  1.030667  3.629891
C    -1.224551  2.902871  3.370951
C    -2.559806  3.611594  3.680431
C    -3.678343  3.463139  2.636345
C    -4.881426  4.381254  2.843179
N    -5.718114  4.003236  4.063315
H    -0.847534  3.225811  2.388530
H    -0.492313  3.260880  4.108191
H    -2.317236  4.680271  3.788318
H    -2.906577  3.280289  4.673213
H    -4.025632  2.420393  2.574805
H    -3.290219  3.722468  1.639145
H    -5.569202  4.333101  1.990850
H    -4.590069  5.428942  2.991734
H    -6.038848  3.025192  4.013330
H    -6.555614  4.600240  4.134338
H    -5.193093  4.112170  4.941468
N    -1.727752  0.693283  5.740810
C    -2.546537  0.216520  6.857906
H    -0.759233  0.927184  5.936725
H    -2.704279  1.018884  7.589163
H    -2.044732  -0.621938  7.354104
H    -3.508772  -0.121786  6.464930
Ba    2.536151  0.028462  0.241535
