35
Energy: -243351.851848 eV PBE+vdW (tier 2 basis)
C    -0.173296  -1.001964  1.282224
C    -0.660309  -0.547616  2.613635
O    0.197765  -0.386499  3.577189
H    0.360982  -0.168465  0.800464
H    0.547434  -1.817626  1.420500
H    -0.979954  -1.356077  0.631971
N    -1.933919  -0.278429  2.872888
C    -3.167332  -0.349695  2.028939
C    -3.433478  -1.819681  1.589137
O    -2.923307  -2.237670  0.547018
H    -2.099496  0.037751  3.827909
H    -3.954119  -0.024435  2.720780
C    -3.159311  0.625503  0.835423
C    -4.565724  0.841710  0.220360
C    -4.990721  -0.143093  -0.894504
C    -4.612484  0.251982  -2.318917
N    -5.554855  1.306803  -2.898940
H    -2.455328  0.271345  0.070171
H    -2.784874  1.590174  1.204771
H    -4.604809  1.879185  -0.148698
H    -5.318311  0.813301  1.021934
H    -6.076827  -0.320090  -0.848653
H    -4.532520  -1.127369  -0.726936
H    -4.679515  -0.601882  -3.003081
H    -3.602613  0.674597  -2.394776
H    -5.282512  1.569978  -3.857461
H    -5.569413  2.168806  -2.336317
H    -6.522081  0.953644  -2.943177
N    -4.231349  -2.570366  2.375693
C    -4.912995  -2.205119  3.617044
H    -4.368856  -3.517894  2.027662
H    -5.442001  -3.088641  3.986108
H    -5.660535  -1.415393  3.462972
H    -4.206733  -1.898094  4.400584
Ba    2.096483  -0.344315  4.945792
