35
Energy: -243351.535480 eV PBE+vdW (tier 2 basis)
C    0.268854  0.487017  0.507766
C    -0.084429  0.149584  1.915336
O    0.891796  -0.005796  2.763875
H    -0.586489  0.564214  -0.161637
H    0.951719  -0.282985  0.122536
H    0.812333  1.442358  0.492055
N    -1.318032  -0.011658  2.368355
C    -2.712618  0.104742  1.842063
C    -3.489723  -1.248581  1.901662
O    -4.610593  -1.211559  2.399531
H    -1.333855  -0.257845  3.360135
H    -3.211902  0.678916  2.634509
C    -2.954764  0.877613  0.530629
C    -4.454943  1.238582  0.347909
C    -5.283553  0.196198  -0.432399
C    -6.773304  0.170413  -0.111089
N    -7.519441  1.418398  -0.580489
H    -2.609033  0.317034  -0.349241
H    -2.378242  1.812085  0.571558
H    -4.491121  2.206305  -0.172427
H    -4.901834  1.400306  1.341077
H    -4.945984  -0.821503  -0.194213
H    -5.127175  0.310495  -1.516886
H    -6.953493  0.091595  0.968598
H    -7.271742  -0.670014  -0.608137
H    -8.524860  1.348595  -0.363757
H    -7.170797  2.274657  -0.128375
H    -7.436219  1.547997  -1.599279
N    -2.954517  -2.380525  1.378518
C    -1.720740  -2.585298  0.631358
H    -3.557795  -3.191323  1.506631
H    -1.811744  -3.518789  0.066963
H    -0.842465  -2.679905  1.287438
H    -1.549920  -1.786022  -0.099519
Ba    2.883955  -0.074454  3.999083
