35
Energy: -243352.087339 eV PBE+vdW (tier 2 basis)
C    -0.016257  -0.361612  -0.377145
C    0.041037  -0.346729  1.117937
O    1.179193  -0.432673  1.725869
H    -0.721904  -1.117736  -0.746180
H    0.971321  -0.574745  -0.793439
H    -0.347606  0.613475  -0.764291
N    -1.069587  -0.240991  1.835722
C    -2.464858  -0.161652  1.340849
C    -3.209625  0.880749  2.223366
O    -3.730229  0.506520  3.291194
H    -0.959096  -0.268528  2.851267
H    -2.427934  0.181177  0.300738
C    -3.182372  -1.515355  1.436678
C    -4.607647  -1.459155  0.837039
C    -5.652200  -2.353133  1.539618
C    -6.531179  -1.671361  2.584155
N    -5.788641  -1.255395  3.843336
H    -3.203162  -1.808369  2.495915
H    -2.585529  -2.278194  0.917694
H    -4.550945  -1.749354  -0.219736
H    -4.981168  -0.421958  0.828725
H    -5.180784  -3.255398  1.961094
H    -6.358432  -2.730745  0.786792
H    -7.338637  -2.339020  2.907695
H    -6.988931  -0.756324  2.187108
H    -4.986337  -0.599032  3.639062
H    -6.424715  -0.777786  4.495729
H    -5.416487  -2.075876  4.337713
N    -3.251739  2.153393  1.811790
C    -2.691961  2.741872  0.593771
H    -3.753274  2.777741  2.443105
H    -2.945326  3.805826  0.584188
H    -3.122478  2.291791  -0.310227
H    -1.596787  2.661735  0.571339
Ba    3.455603  -0.614780  2.339516
