35
Energy: -243351.775214 eV PBE+vdW (tier 2 basis)
C    -0.228257  0.123957  0.189255
C    -0.379868  -0.791120  1.364062
O    0.540957  -1.664757  1.615892
H    -1.062704  0.824648  0.078017
H    -0.155378  -0.467650  -0.734571
H    0.697157  0.708572  0.289010
N    -1.466521  -0.681344  2.111839
C    -1.869399  -1.455077  3.299478
C    -3.322863  -2.025199  3.120667
O    -4.179359  -1.743870  3.952594
H    -2.116759  0.047221  1.820001
H    -1.167633  -2.296558  3.378693
C    -1.798948  -0.613313  4.588231
C    -2.594145  0.712658  4.568937
C    -3.175556  1.132013  5.935966
C    -4.444468  0.362831  6.300572
N    -5.041197  0.882955  7.604065
H    -0.743450  -0.407782  4.816772
H    -2.166310  -1.275728  5.382588
H    -3.427775  0.655479  3.854408
H    -1.940101  1.526770  4.228037
H    -3.408396  2.207338  5.890876
H    -2.413522  1.008617  6.722717
H    -4.279276  -0.710690  6.443194
H    -5.227101  0.479244  5.541626
H    -4.388516  0.778810  8.394172
H    -5.904208  0.376213  7.849652
H    -5.281981  1.882923  7.538284
N    -3.577221  -2.819636  2.053749
C    -2.667376  -3.358452  1.054816
H    -4.544485  -3.137746  2.017922
H    -3.089004  -4.291295  0.666637
H    -1.692034  -3.600582  1.498676
H    -2.525798  -2.674133  0.204863
Ba    2.587421  -2.809834  1.379250
