35
Energy: -243351.834250 eV PBE+vdW (tier 2 basis)
C    0.162712  0.083425  -0.083116
C    -0.204353  0.491568  1.309574
O    0.628891  0.750218  2.189140
H    0.752791  0.882242  -0.553125
H    -0.697356  -0.146145  -0.721400
H    0.818960  -0.796216  -0.030135
N    -1.551670  0.548897  1.611454
C    -2.006274  1.067288  2.896863
C    -3.095340  0.146424  3.470651
O    -3.953999  0.564090  4.334999
H    -2.198367  0.568014  0.824753
H    -1.134296  0.938458  3.564852
C    -2.400458  2.560500  2.859841
C    -1.312349  3.536287  2.351346
C    -0.372260  4.193207  3.384080
C    0.752921  3.403603  4.054045
N    1.843018  2.970340  3.094102
H    -2.720617  2.862796  3.868318
H    -3.282320  2.663104  2.208702
H    -1.844664  4.369426  1.873259
H    -0.743994  3.076822  1.529431
H    -0.975083  4.606197  4.207893
H    0.074517  5.081026  2.908179
H    0.414366  2.484157  4.546246
H    1.233234  4.033496  4.812250
H    2.692859  2.692117  3.602897
H    2.110838  3.727839  2.451996
H    1.517613  2.129555  2.547695
N    -3.097950  -1.112280  3.077780
C    -3.993147  -2.159879  3.561868
H    -2.389351  -1.358681  2.385068
H    -3.705612  -3.108266  3.099156
H    -5.032338  -1.945692  3.276216
H    -3.904567  -2.271226  4.651006
Ba    -5.773238  0.937739  5.797943
