35
Energy: -243352.127936 eV PBE+vdW (tier 2 basis)
C    0.312264  -0.443528  0.563779
C    -0.004799  -0.424580  2.017997
O    0.839680  -0.959646  2.850723
H    -0.556137  -0.215018  -0.062259
H    0.679852  -1.440719  0.290168
H    1.125911  0.272549  0.370322
N    -1.101116  0.123591  2.527025
C    -2.279388  0.800336  1.899997
C    -3.061696  -0.192927  0.988445
O    -2.667117  -0.404250  -0.157759
H    -1.154353  0.056024  3.542778
H    -2.898404  1.070336  2.767082
C    -1.913440  2.087957  1.142526
C    -3.155097  2.873558  0.679694
C    -2.762715  4.183701  -0.025815
C    -3.911136  5.112863  -0.409340
N    -4.712813  4.617928  -1.611600
H    -1.300640  2.719702  1.802747
H    -1.304225  1.832225  0.265459
H    -3.792524  3.107664  1.547587
H    -3.748394  2.229332  0.010155
H    -2.137587  3.978842  -0.910783
H    -2.125970  4.780660  0.644934
H    -4.636483  5.243740  0.403672
H    -3.537745  6.102331  -0.698262
H    -4.116599  4.523237  -2.446483
H    -5.151621  3.703680  -1.438106
H    -5.467065  5.279389  -1.848973
N    -4.153555  -0.751998  1.549183
C    -5.013122  -1.707794  0.851446
H    -4.412316  -0.489599  2.494622
H    -6.034198  -1.315696  0.771811
H    -5.041330  -2.660521  1.393894
H    -4.605334  -1.871539  -0.149688
Ba    2.606332  -2.122165  3.845661
