35
Energy: -243351.672017 eV PBE+vdW (tier 2 basis)
C    -0.320580  1.068059  0.167202
C    -0.086811  0.300282  1.427542
O    1.118960  0.100850  1.859152
H    -1.033132  1.889671  0.325215
H    -0.750197  0.419472  -0.611904
H    0.617314  1.482906  -0.210009
N    -1.113660  -0.178686  2.115878
C    -2.534411  -0.149950  1.699529
C    -3.354653  1.149589  1.929396
O    -4.417729  1.199902  1.314170
H    -0.885105  -0.678732  2.975138
H    -2.526235  -0.229098  0.604939
C    -3.291359  -1.396641  2.224597
C    -3.948901  -1.349193  3.619593
C    -5.295917  -0.602068  3.773410
C    -6.363457  -1.067260  2.787347
N    -7.682233  -0.347962  3.030667
H    -2.588268  -2.242528  2.196573
H    -4.039627  -1.641472  1.460776
H    -3.256842  -0.931948  4.368064
H    -4.103473  -2.392835  3.929883
H    -5.157720  0.482487  3.666287
H    -5.643582  -0.779111  4.803269
H    -6.579092  -2.139627  2.876054
H    -6.095569  -0.834887  1.750027
H    -8.414371  -0.677892  2.384678
H    -7.583724  0.667775  2.888135
H    -8.029617  -0.495966  3.989562
N    -2.936152  2.157201  2.735272
C    -1.855725  2.233279  3.713543
H    -3.570315  2.953831  2.702050
H    -0.884312  2.463758  3.252826
H    -1.775537  1.315231  4.308369
H    -2.088735  3.045158  4.409913
Ba    3.455578  -0.140918  2.024086
