35
Energy: -243352.098480 eV PBE+vdW (tier 2 basis)
C    -0.296287  0.091804  -0.738815
C    0.071614  0.970842  0.409833
O    1.282339  1.443593  0.471743
H    0.429680  -0.728657  -0.814445
H    -0.234436  0.667975  -1.673279
H    -1.299131  -0.335368  -0.659906
N    -0.779345  1.291579  1.358941
C    -2.222961  1.023844  1.496373
C    -2.699484  2.288244  2.271012
O    -1.910359  2.752486  3.104490
H    -0.489509  1.923436  2.129683
H    -2.676578  0.944556  0.501960
C    -2.454087  -0.280368  2.306953
C    -3.930682  -0.666772  2.551749
C    -4.575831  -0.093525  3.833777
C    -4.356246  -0.899706  5.113313
N    -5.277301  -2.115312  5.200683
H    -1.910199  -0.186799  3.259672
H    -1.962179  -1.090619  1.750364
H    -3.985643  -1.767272  2.559403
H    -4.540131  -0.376688  1.685327
H    -5.657586  0.049829  3.682380
H    -4.188561  0.913101  4.042522
H    -4.578423  -0.304280  6.006497
H    -3.333912  -1.287718  5.205616
H    -5.103538  -2.656052  6.061061
H    -5.154651  -2.757954  4.405576
H    -6.268185  -1.831565  5.215756
N    -3.913737  2.814554  2.035515
C    -4.931952  2.462372  1.049475
H    -4.106171  3.632305  2.614358
H    -5.781622  1.946638  1.517073
H    -4.520178  1.824857  0.261700
H    -5.305758  3.377249  0.575786
Ba    3.435270  2.305804  0.290455
