35
Energy: -243352.051395 eV PBE+vdW (tier 2 basis)
C    0.543522  -1.455092  1.284178
C    0.460577  0.020418  1.486347
O    1.545031  0.730226  1.489130
H    1.530314  -1.827943  1.573110
H    -0.220112  -2.002348  1.848427
H    0.384971  -1.673413  0.215984
N    -0.706169  0.619441  1.650724
C    -2.039739  -0.018899  1.628219
C    -2.303776  -0.581675  0.205899
O    -1.823256  -0.006858  -0.771184
H    -0.680257  1.636286  1.714974
H    -2.023601  -0.825731  2.373996
C    -3.124160  0.991336  2.068248
C    -3.552984  2.082193  1.056873
C    -4.805421  1.719931  0.231705
C    -5.234209  2.890728  -0.649145
N    -6.536067  2.601259  -1.387128
H    -2.769581  1.467085  2.994667
H    -4.001279  0.405801  2.376719
H    -2.728325  2.326409  0.369286
H    -3.767154  2.997500  1.626533
H    -5.623510  1.461460  0.923982
H    -4.610558  0.835240  -0.393386
H    -4.492776  3.121928  -1.423942
H    -5.420404  3.799881  -0.063388
H    -7.309898  2.414572  -0.732500
H    -6.451566  1.781723  -2.005418
H    -6.819558  3.399820  -1.974322
N    -3.096389  -1.674707  0.122129
C    -3.640021  -2.497406  1.204336
H    -3.231147  -2.005943  -0.830918
H    -4.249442  -3.288302  0.757605
H    -4.289932  -1.922212  1.875846
H    -2.850038  -2.985420  1.792577
Ba    3.761591  1.472529  1.426602
