35
Energy: -243351.787811 eV PBE+vdW (tier 2 basis)
C    0.066311  0.322894  0.463926
C    -0.098548  0.190750  1.939995
O    0.937808  0.326437  2.705829
H    0.756029  -0.458562  0.112590
H    0.530648  1.292573  0.237620
H    -0.865429  0.239480  -0.101382
N    -1.270857  -0.077717  2.501034
C    -2.621739  -0.160482  1.874692
C    -2.704582  -1.228532  0.745673
O    -3.102656  -0.929702  -0.390765
H    -1.252279  -0.147939  3.518314
H    -3.254455  -0.553588  2.685258
C    -3.115356  1.269478  1.531718
C    -4.367391  1.446685  0.653769
C    -5.618726  0.610311  0.988131
C    -6.501668  0.411546  -0.240601
N    -5.866642  -0.594484  -1.202915
H    -2.300736  1.812542  1.032688
H    -3.266016  1.773461  2.498261
H    -4.066332  1.274438  -0.386296
H    -4.638822  2.510609  0.707398
H    -6.227496  1.109611  1.754069
H    -5.374391  -0.377764  1.410999
H    -6.627835  1.346842  -0.798859
H    -7.496235  0.026646  0.008945
H    -6.214317  -1.543833  -1.019711
H    -6.087826  -0.380200  -2.183796
H    -4.826936  -0.627080  -1.087639
N    -2.377665  -2.496883  1.066334
C    -2.017361  -3.074057  2.358923
H    -2.454663  -3.141457  0.280608
H    -2.234687  -4.146346  2.329865
H    -2.614956  -2.643984  3.172499
H    -0.948712  -2.951641  2.582959
Ba    3.040282  0.783784  3.679713
