35
Energy: -243353.262102 eV PBE+vdW (tier 2 basis)
C    -0.040677  -0.794522  0.152002
C    -0.208646  -0.222329  1.521852
O    0.781989  0.220789  2.171579
H    0.691006  -1.612908  0.180183
H    0.381032  -0.017465  -0.502013
H    -0.972732  -1.163451  -0.288803
N    -1.449840  -0.180742  2.045470
C    -1.828099  0.445135  3.323914
C    -1.398183  -0.472114  4.499586
O    -0.198758  -0.415499  4.902017
H    -2.193797  -0.598711  1.491881
H    -1.201558  1.343103  3.435858
C    -3.311813  0.872627  3.300361
C    -3.584751  2.033110  2.321428
C    -5.068109  2.405908  2.098712
C    -5.713843  3.171265  3.254304
N    -7.103621  3.667296  2.872828
H    -3.589343  1.161468  4.324668
H    -3.946452  0.009204  3.032130
H    -3.179829  1.777508  1.331923
H    -3.026907  2.925085  2.647079
H    -5.653947  1.500289  1.873050
H    -5.107707  3.034516  1.195328
H    -5.140894  4.067735  3.523599
H    -5.851550  2.562788  4.156399
H    -7.543427  4.190503  3.645190
H    -7.737586  2.891520  2.629710
H    -7.070506  4.298912  2.058078
N    -2.281142  -1.298286  5.037794
C    -2.001662  -2.235024  6.131730
H    -3.223186  -1.305636  4.656719
H    -2.905212  -2.347753  6.738714
H    -1.192459  -1.840525  6.751680
H    -1.715172  -3.216328  5.731404
Ba    2.124479  0.088074  4.211047
