35
Energy: -243352.590680 eV PBE+vdW (tier 2 basis)
C    0.007098  0.962659  0.202401
C    -0.289049  -0.314872  0.921142
O    -0.187767  -1.423119  0.322243
H    0.541263  0.733948  -0.724860
H    0.611392  1.645676  0.809356
H    -0.925396  1.486099  -0.062336
N    -0.661093  -0.319933  2.233597
C    -1.698547  0.551718  2.808498
C    -3.008512  0.334394  1.973923
O    -3.051613  -0.566161  1.080068
H    -0.690997  -1.270084  2.602076
H    -1.903938  0.116677  3.799324
C    -1.304183  2.034743  3.010747
C    0.012462  2.287909  3.778622
C    -0.113592  2.351090  5.316081
C    1.214453  2.786651  5.939367
N    1.113182  2.993821  7.444886
H    -2.125397  2.536218  3.545199
H    -1.248467  2.534764  2.036596
H    0.404641  3.252941  3.426705
H    0.761973  1.533701  3.495141
H    -0.418365  1.375914  5.728746
H    -0.898451  3.077329  5.583281
H    1.557928  3.745306  5.530408
H    2.009143  2.045450  5.788785
H    2.019604  3.289682  7.839195
H    0.834616  2.133283  7.938487
H    0.426457  3.723738  7.686470
N    -4.064290  1.080737  2.249529
C    -5.371987  0.946614  1.594078
H    -3.980172  1.789008  2.972722
H    -5.276891  1.119700  0.515880
H    -6.047649  1.694835  2.016308
H    -5.787260  -0.052252  1.772713
Ba    -2.320033  -2.431213  -0.446802
