35
Energy: -243352.246558 eV PBE+vdW (tier 2 basis)
C    -0.175508  -1.693583  2.466620
C    0.436004  -0.436963  1.943020
O    1.733467  -0.342567  1.903652
H    0.240191  -1.913744  3.458951
H    0.093504  -2.532131  1.808275
H    -1.264705  -1.649510  2.545023
N    -0.283068  0.575936  1.515145
C    -1.732976  0.714293  1.298844
C    -1.774565  1.701827  0.090684
O    -0.865603  2.534912  0.007580
H    0.180442  1.420761  1.124116
H    -2.164928  -0.260973  1.035814
C    -2.429767  1.303743  2.551834
C    -3.958425  1.437336  2.426870
C    -4.655153  1.796877  3.757732
C    -4.680385  3.272407  4.157104
N    -5.831297  4.030726  3.498482
H    -1.961112  2.274709  2.774715
H    -2.200803  0.641265  3.401228
H    -4.376774  0.477833  2.087290
H    -4.212070  2.165133  1.638742
H    -4.165700  1.259941  4.583411
H    -5.686036  1.408408  3.754020
H    -3.765964  3.813334  3.883624
H    -4.839479  3.392134  5.235019
H    -5.832283  5.024298  3.773538
H    -6.742113  3.637006  3.778377
H    -5.785249  3.996632  2.470939
N    -2.808532  1.588764  -0.756015
C    -2.969662  2.436169  -1.940595
H    -3.438063  0.799065  -0.651794
H    -4.021734  2.719983  -2.050931
H    -2.648266  1.903062  -2.844366
H    -2.355418  3.332040  -1.817108
Ba    4.050705  -0.443576  1.751425
