35
Energy: -243352.238860 eV PBE+vdW (tier 2 basis)
C    -0.221498  -0.901124  0.701501
C    -0.113539  0.136688  1.768162
O    1.021577  0.276564  2.390247
H    -1.218625  -0.970056  0.259489
H    0.044863  -1.880724  1.121412
H    0.502059  -0.682309  -0.096205
N    -1.114946  0.915935  2.105231
C    -2.460216  1.083132  1.527274
C    -2.748712  2.581117  1.855983
O    -2.233464  3.029810  2.888062
H    -0.994138  1.647356  2.836427
H    -2.424854  0.889593  0.448950
C    -3.465695  0.139749  2.237321
C    -4.938917  0.264142  1.806437
C    -5.796655  -0.819672  2.487464
C    -7.262728  -0.899173  2.066891
N    -8.140720  0.171089  2.712506
H    -3.381082  0.319546  3.319899
H    -3.127798  -0.893869  2.063271
H    -5.024778  0.153491  0.714220
H    -5.306933  1.273303  2.053268
H    -5.726846  -0.741218  3.585290
H    -5.378353  -1.808795  2.246276
H    -7.706207  -1.854405  2.371462
H    -7.398717  -0.789452  0.983546
H    -8.126665  0.097046  3.740174
H    -9.122698  0.070183  2.414415
H    -7.843901  1.124597  2.465901
N    -3.538289  3.312540  1.051811
C    -4.110837  3.000987  -0.254002
H    -3.657355  4.269777  1.383739
H    -5.206701  2.953849  -0.204115
H    -3.737616  2.045465  -0.632639
H    -3.832751  3.780418  -0.973514
Ba    3.152809  0.496241  3.288946
