35
Energy: -243352.256392 eV PBE+vdW (tier 2 basis)
C    0.892801  -0.757178  2.671919
C    0.292935  0.560290  2.309767
O    0.968035  1.644245  2.559161
H    1.142406  -0.759155  3.741739
H    0.238721  -1.607932  2.465202
H    1.832247  -0.894847  2.118229
N    -0.889274  0.669632  1.745073
C    -1.835680  -0.351353  1.260517
C    -2.538015  0.395073  0.090265
O    -2.730469  1.607407  0.220562
H    -1.260139  1.605924  1.497422
H    -1.283341  -1.230923  0.903400
C    -2.823522  -0.741091  2.391741
C    -3.968014  -1.709060  2.006252
C    -5.277304  -1.005148  1.605600
C    -6.425201  -1.919401  1.183407
N    -7.059196  -2.676071  2.349565
H    -3.243523  0.187371  2.806785
H    -2.226426  -1.195397  3.194599
H    -4.140124  -2.357701  2.879396
H    -3.645467  -2.385356  1.198323
H    -5.104415  -0.344077  0.744151
H    -5.614557  -0.336798  2.415013
H    -6.111058  -2.687567  0.465255
H    -7.243070  -1.343290  0.734930
H    -7.842146  -3.263663  2.025557
H    -7.437850  -2.028902  3.056447
H    -6.390065  -3.297821  2.823820
N    -2.912612  -0.345513  -0.967132
C    -3.572539  0.224213  -2.144805
H    -2.589874  -1.306229  -1.024473
H    -4.356510  -0.456208  -2.494693
H    -2.851671  0.382008  -2.957178
H    -4.011861  1.186873  -1.868879
Ba    2.403734  3.425114  2.982342
