35
Energy: -243352.063384 eV PBE+vdW (tier 2 basis)
C    0.378177  -0.576055  0.111462
C    0.203817  -0.049877  1.503617
O    1.248022  0.333152  2.172835
H    1.028561  -1.462422  0.128421
H    0.856228  0.188417  -0.517313
H    -0.568095  -0.861791  -0.359335
N    -1.014130  -0.000077  1.997885
C    -1.529911  0.404233  3.313845
C    -2.652265  -0.637961  3.572901
O    -3.402561  -0.897572  2.627419
H    -1.786093  -0.377203  1.427941
H    -0.721328  0.360789  4.055031
C    -2.130213  1.833552  3.219719
C    -2.950575  2.287576  4.447596
C    -4.469664  1.994746  4.420180
C    -5.239751  2.972518  3.534347
N    -6.739997  2.713012  3.597810
H    -2.741762  1.871758  2.306123
H    -1.297548  2.531826  3.059106
H    -2.803699  3.369083  4.580518
H    -2.539544  1.835412  5.361570
H    -4.846427  2.077922  5.451388
H    -4.663304  0.963395  4.088642
H    -4.969003  2.896680  2.474066
H    -5.101870  4.012955  3.854503
H    -7.264541  3.380508  3.012912
H    -7.098252  2.804235  4.560127
H    -6.977838  1.765093  3.271008
N    -2.741692  -1.149766  4.811749
C    -3.752426  -2.132636  5.207009
H    -2.043295  -0.886868  5.499258
H    -3.268352  -3.052102  5.556476
H    -4.370688  -2.362172  4.334925
H    -4.380049  -1.734090  6.013522
Ba    3.558961  0.606728  2.482496
