35
Energy: -243351.934943 eV PBE+vdW (tier 2 basis)
C    -0.419375  0.409794  -0.798555
C    -0.065430  0.853009  0.580008
O    1.108547  1.383030  0.747566
H    0.311150  -0.333789  -1.138376
H    -1.409960  -0.030341  -0.888244
H    -0.359273  1.286833  -1.461300
N    -0.902438  0.889350  1.620347
C    -2.014403  -0.028771  1.939073
C    -1.369354  -1.457686  1.988946
O    -0.455086  -1.696743  1.198030
H    -0.484199  1.321462  2.443392
H    -2.347709  0.298051  2.931819
C    -3.213483  0.033879  0.954612
C    -4.579532  -0.441866  1.494468
C    -5.271099  0.516720  2.477807
C    -6.622020  0.045669  3.016345
N    -7.736490  0.081722  1.973171
H    -2.988142  -0.584420  0.077556
H    -3.304482  1.071585  0.600249
H    -4.486442  -1.441888  1.942377
H    -5.210341  -0.581419  0.601670
H    -5.378970  1.518869  2.030516
H    -4.651430  0.669962  3.374778
H    -6.968936  0.688414  3.833862
H    -6.589347  -0.988510  3.382122
H    -8.632791  -0.221804  2.383172
H    -7.545404  -0.537015  1.172942
H    -7.879242  1.033275  1.604189
N    -1.843076  -2.374288  2.855369
C    -2.770800  -2.247838  3.973477
H    -1.387474  -3.280993  2.751627
H    -2.305457  -2.646001  4.883523
H    -3.694923  -2.812245  3.788435
H    -3.022493  -1.199884  4.161528
Ba    3.382579  1.826946  0.500851
