35
Energy: -243352.965294 eV PBE+vdW (tier 2 basis)
C    -0.636386  -0.140724  0.136900
C    -0.702440  -0.492516  1.589944
O    0.061347  -1.376122  2.074229
H    -1.348086  0.634364  -0.166160
H    -0.819429  -1.048565  -0.455123
H    0.379540  0.195842  -0.111165
N    -1.604619  0.162987  2.347875
C    -1.935758  -0.014938  3.779486
C    -0.747116  0.355898  4.697651
O    0.276706  -0.383068  4.789155
H    -2.122686  0.892244  1.865922
H    -2.717330  0.735580  3.961290
C    -2.525411  -1.410589  4.137087
C    -4.066888  -1.474213  4.222771
C    -4.821117  -1.419639  2.883120
C    -6.346544  -1.339067  2.983079
N    -7.006221  -2.624573  3.475200
H    -2.134063  -1.701077  5.121678
H    -2.148728  -2.158378  3.425551
H    -4.422176  -0.665496  4.882530
H    -4.304544  -2.412033  4.750101
H    -4.531693  -2.265947  2.238632
H    -4.538662  -0.517242  2.318816
H    -6.793099  -1.141957  2.001344
H    -6.676694  -0.551943  3.672956
H    -8.032789  -2.521385  3.492429
H    -6.714967  -2.879243  4.429191
H    -6.794814  -3.423395  2.859284
N    -0.869810  1.465208  5.413004
C    0.124043  1.962939  6.369537
H    -1.703000  2.033257  5.283277
H    -0.393777  2.531338  7.148081
H    0.843450  2.621853  5.865876
H    0.651651  1.119291  6.823089
Ba    1.817658  -1.938701  3.679180
