35
Energy: -243352.044592 eV PBE+vdW (tier 2 basis)
C    0.148083  -0.325810  0.083221
C    0.121516  -0.700392  1.529608
O    1.243921  -0.990467  2.118808
H    0.799851  -1.018530  -0.463366
H    0.577655  0.682269  -0.022546
H    -0.836852  -0.327294  -0.390272
N    -0.997251  -0.730595  2.222597
C    -2.330663  -0.236922  1.834127
C    -2.939002  0.214988  3.188063
O    -2.543030  -0.354680  4.217129
H    -0.984762  -0.940540  3.237465
H    -2.194522  0.625145  1.170662
C    -3.226462  -1.285049  1.103640
C    -4.231636  -2.122940  1.919516
C    -3.640902  -3.206137  2.837275
C    -4.638166  -4.263416  3.306597
N    -5.717490  -3.707353  4.233308
H    -2.569541  -1.955966  0.529913
H    -3.805166  -0.729413  0.353765
H    -4.886797  -2.605387  1.176893
H    -4.878252  -1.437087  2.492206
H    -3.131250  -2.756073  3.703475
H    -2.873324  -3.773911  2.288134
H    -4.141872  -5.056550  3.877955
H    -5.176312  -4.726859  2.469741
H    -6.339269  -4.459341  4.566136
H    -6.310871  -3.012147  3.760270
H    -5.308349  -3.255845  5.063902
N    -3.882776  1.166860  3.174022
C    -4.370281  1.944394  2.031388
H    -4.222991  1.426163  4.098280
H    -5.137027  2.634578  2.394129
H    -4.834227  1.305011  1.269992
H    -3.572101  2.545385  1.576023
Ba    3.465205  -1.152505  2.815201
