35
Energy: -243351.690533 eV PBE+vdW (tier 2 basis)
C    -0.070626  -1.183185  3.046704
C    -0.162614  0.276162  2.704100
O    0.545110  1.130778  3.234706
H    -0.629528  -1.393362  3.970920
H    0.979945  -1.414633  3.258447
H    -0.432101  -1.850083  2.256244
N    -1.062876  0.678872  1.706212
C    -2.421270  0.150006  1.582533
C    -2.756384  -0.159233  0.113139
O    -3.933330  -0.555615  -0.233044
H    -1.002810  1.690331  1.574405
H    -2.446705  -0.827910  2.090748
C    -3.465357  1.070534  2.270772
C    -3.162342  1.309646  3.770463
C    -2.290156  2.549234  4.079565
C    -1.528096  2.440531  5.413199
N    -0.111873  2.962976  5.272220
H    -4.451587  0.597116  2.174445
H    -3.527593  2.028678  1.730348
H    -2.687126  0.406240  4.185062
H    -4.115090  1.404139  4.307204
H    -2.915069  3.452144  4.077113
H    -1.551456  2.697699  3.280939
H    -1.419997  1.397731  5.735052
H    -2.005152  2.997079  6.227184
H    0.371371  2.419813  4.518456
H    -0.089312  3.961946  5.026816
H    0.419913  2.854299  6.147163
N    -1.786664  -0.032063  -0.764324
C    -1.871127  -0.301500  -2.197479
H    -0.888262  0.248811  -0.359332
H    -2.032316  -1.372299  -2.382245
H    -2.674311  0.292379  -2.652358
H    -0.925561  -0.011860  -2.664336
Ba    -5.944851  -1.384127  -1.149806
