35
Energy: -243351.244294 eV PBE+vdW (tier 2 basis)
C    0.199985  -0.655115  0.002464
C    0.027980  -0.437557  1.480327
O    0.976540  -0.529959  2.265830
H    0.633672  0.267592  -0.414221
H    -0.710883  -0.883034  -0.560234
H    0.937332  -1.445366  -0.173848
N    -1.204625  -0.034323  1.985402
C    -2.487589  -0.597624  1.572388
C    -3.586321  0.485588  1.595255
O    -4.699737  0.294114  2.227372
H    -1.128418  0.170571  2.982895
H    -2.390108  -0.880842  0.511982
C    -2.849292  -1.874520  2.372381
C    -1.689511  -2.901828  2.469993
C    -0.881406  -2.794511  3.779475
C    0.386204  -3.640883  3.894767
N    1.532082  -3.138705  3.020286
H    -3.714202  -2.347527  1.885708
H    -3.167336  -1.591833  3.388671
H    -1.040783  -2.806705  1.584358
H    -2.113358  -3.912881  2.401232
H    -1.523525  -3.116831  4.613172
H    -0.612615  -1.751724  4.002962
H    0.221713  -4.693532  3.634458
H    0.755333  -3.604741  4.925616
H    2.441073  -3.329073  3.462755
H    1.463804  -2.102664  2.832656
H    1.550041  -3.608424  2.107425
N    -3.405136  1.625487  0.954336
C    -2.286010  2.060677  0.104997
H    -4.162327  2.300776  1.052813
H    -2.634120  2.910999  -0.488683
H    -1.984757  1.261186  -0.578501
H    -1.432968  2.371621  0.718168
Ba    -6.871719  0.068939  3.136137
