35
Energy: -243352.965129 eV PBE+vdW (tier 2 basis)
C    -1.008744  -1.501462  0.792402
C    -0.657733  -0.378800  1.711776
O    0.547412  -0.096305  1.970173
H    -0.585797  -1.285579  -0.199734
H    -2.086549  -1.665186  0.690030
H    -0.534903  -2.427947  1.142599
N    -1.659405  0.342543  2.256011
C    -1.469151  1.565161  3.051398
C    -0.995182  1.204603  4.482623
O    0.248056  1.090144  4.688832
H    -2.606842  0.064479  2.017066
H    -0.589257  2.066615  2.622756
C    -2.630176  2.571182  2.861874
C    -4.092063  2.216043  3.223789
C    -5.054034  3.177175  2.487163
C    -6.558604  2.951260  2.670506
N    -7.163909  3.714153  3.846487
H    -2.600487  2.829162  1.791794
H    -2.340835  3.491153  3.390351
H    -4.250693  2.282914  4.313415
H    -4.347718  1.183750  2.932371
H    -4.872529  3.077587  1.406865
H    -4.798734  4.224983  2.716699
H    -6.817921  1.896545  2.825895
H    -7.110363  3.307263  1.792823
H    -8.180384  3.545496  3.905976
H    -7.035336  4.731727  3.740530
H    -6.759998  3.443283  4.753071
N    -1.878307  1.002717  5.449519
C    -1.530567  0.627456  6.825111
H    -2.862902  1.077251  5.217263
H    -2.363134  0.892352  7.482658
H    -0.634366  1.170804  7.139104
H    -1.347949  -0.452573  6.897190
Ba    2.350104  0.417052  3.539616
