35
Energy: -243352.340470 eV PBE+vdW (tier 2 basis)
C    -0.219376  -0.240402  0.065274
C    -0.385115  0.421452  1.397345
O    0.519506  1.190437  1.832441
H    0.549107  0.298507  -0.498187
H    -1.147336  -0.251898  -0.514898
H    0.117516  -1.281343  0.188616
N    -1.506339  0.249060  2.155882
C    -2.110188  -1.049572  2.491800
C    -1.036905  -1.866063  3.284477
O    0.176626  -1.484413  3.276249
H    -1.515609  0.900278  2.941777
H    -2.912428  -0.805767  3.205822
C    -2.747178  -1.825781  1.309878
C    -3.807195  -1.019392  0.523845
C    -5.226943  -0.988042  1.136325
C    -6.178005  -2.110885  0.713419
N    -6.819253  -1.855441  -0.648317
H    -3.192957  -2.744901  1.714473
H    -1.962053  -2.168761  0.626342
H    -3.840210  -1.428631  -0.498280
H    -3.457728  0.015163  0.404883
H    -5.704598  -0.017590  0.929938
H    -5.174943  -1.031430  2.234715
H    -7.017926  -2.206948  1.411431
H    -5.683706  -3.087671  0.635115
H    -7.452585  -2.626243  -0.911353
H    -6.125008  -1.763126  -1.403355
H    -7.382647  -0.991647  -0.641412
N    -1.390902  -2.931295  3.990260
C    -2.717932  -3.498871  4.242270
H    -0.611815  -3.409613  4.444674
H    -2.736498  -3.884101  5.267438
H    -2.925894  -4.329961  3.556149
H    -3.494983  -2.733370  4.155678
Ba    2.120898  0.136931  3.394369
