35
Energy: -243351.683297 eV PBE+vdW (tier 2 basis)
C    0.494454  -0.169795  0.043815
C    0.212342  -0.285728  1.509421
O    1.172806  -0.551084  2.329353
H    1.219261  0.638065  -0.131708
H    -0.398299  0.041235  -0.554762
H    0.937484  -1.106317  -0.323785
N    -1.037110  -0.115207  1.921482
C    -1.568796  -0.155978  3.295360
C    -2.897820  -0.968502  3.341138
O    -3.922485  -0.466627  3.824877
H    -1.707015  0.105645  1.186428
H    -0.834478  -0.715260  3.893511
C    -1.704616  1.258003  3.912642
C    -2.264469  2.408423  3.048399
C    -3.725569  2.408071  2.555472
C    -4.819769  2.842057  3.530909
N    -5.089316  1.837844  4.647201
H    -2.262445  1.131224  4.849826
H    -0.693282  1.563710  4.218240
H    -1.621581  2.515898  2.160598
H    -2.087907  3.335352  3.615511
H    -4.010277  1.450991  2.094370
H    -3.787202  3.147810  1.743245
H    -4.588635  3.803028  4.005769
H    -5.764344  2.959512  2.988767
H    -4.686234  0.896385  4.388856
H    -4.668534  2.130733  5.535687
H    -6.096626  1.733162  4.819843
N    -2.902370  -2.230834  2.878653
C    -1.800888  -3.062346  2.407276
H    -3.815309  -2.680026  2.952085
H    -1.636827  -2.955026  1.325927
H    -2.049064  -4.109367  2.609271
H    -0.874769  -2.833140  2.948981
Ba    3.431112  -0.932892  2.986827
