35
Energy: -243351.915346 eV PBE+vdW (tier 2 basis)
C    0.736391  -0.337411  1.945432
C    -0.102458  -1.079195  2.935749
O    0.453381  -1.644933  3.957705
H    1.783216  -0.640033  2.035059
H    0.677252  0.744206  2.146282
H    0.411914  -0.500869  0.911666
N    -1.420109  -1.148431  2.795145
C    -2.241905  -0.518912  1.728327
C    -3.575520  0.010120  2.316294
O    -3.879984  1.196517  2.136355
H    -1.916225  -1.646932  3.534337
H    -1.710770  0.384512  1.407794
C    -2.452214  -1.467237  0.519409
C    -2.865269  -0.799480  -0.808482
C    -4.219348  -0.045299  -0.847211
C    -4.056461  1.482937  -0.904333
N    -5.136487  2.194017  -0.117293
H    -3.178266  -2.251634  0.785506
H    -1.502664  -1.992643  0.338963
H    -2.890575  -1.604771  -1.553342
H    -2.058234  -0.128840  -1.142668
H    -4.834571  -0.328765  0.020127
H    -4.790547  -0.372628  -1.724617
H    -4.093269  1.861076  -1.932118
H    -3.116072  1.814323  -0.450773
H    -4.995314  1.954035  0.891327
H    -6.081520  1.916678  -0.413497
H    -5.070609  3.215813  -0.220267
N    -4.350853  -0.866502  2.984448
C    -5.638225  -0.493494  3.579774
H    -4.153196  -1.860800  2.914461
H    -5.860299  -1.175576  4.405948
H    -6.450513  -0.556050  2.842933
H    -5.573939  0.530210  3.959914
Ba    1.943705  -2.464505  5.598910
