35
Energy: -243351.995659 eV PBE+vdW (tier 2 basis)
C    1.364829  -2.179458  0.689184
C    0.575150  -2.133672  1.960682
O    0.924454  -2.879131  2.958455
H    1.344021  -3.198829  0.277615
H    2.412470  -1.915988  0.891793
H    0.983083  -1.498653  -0.078644
N    -0.467896  -1.325834  2.017274
C    -1.439663  -1.113268  3.094568
C    -2.771885  -0.773868  2.380172
O    -2.741424  -0.071745  1.349200
H    -0.711785  -0.802421  1.169713
H    -1.541584  -2.054724  3.650599
C    -1.033924  0.012772  4.098074
C    -0.284710  1.262616  3.591442
C    -0.891619  2.129884  2.473147
C    -2.289356  2.698272  2.757366
N    -3.109836  2.716989  1.482973
H    -0.391658  -0.447266  4.862106
H    -1.951756  0.294157  4.636040
H    0.719799  0.968402  3.252751
H    -0.109349  1.888279  4.479224
H    -0.933134  1.547624  1.542613
H    -0.198427  2.959952  2.280655
H    -2.258716  3.721051  3.148750
H    -2.864623  2.086772  3.462482
H    -2.656064  3.271938  0.744414
H    -3.204215  1.727486  1.154198
H    -4.046434  3.116796  1.630391
N    -3.886767  -1.240714  2.947204
C    -5.236878  -0.995760  2.433349
H    -3.804826  -1.809665  3.784656
H    -5.728803  -0.188729  2.992161
H    -5.832084  -1.908378  2.540794
H    -5.173797  -0.732055  1.373859
Ba    2.206850  -4.543636  4.053383
