35
Energy: -243351.873066 eV PBE+vdW (tier 2 basis)
C    0.381665  -0.091652  -0.008755
C    0.115267  -0.199597  1.454851
O    1.148247  -0.203490  2.240947
H    0.904026  0.862126  -0.183121
H    -0.509827  -0.115095  -0.631398
H    1.037865  -0.910882  -0.323853
N    -1.090759  -0.098012  2.031779
C    -2.354856  -0.695472  1.555201
C    -2.022908  -2.217644  1.361577
O    -0.887096  -2.502592  0.967522
H    -1.025933  -0.062166  3.048701
H    -3.056355  -0.540724  2.385195
C    -2.945201  -0.052078  0.272762
C    -4.417263  -0.395277  -0.036094
C    -5.517578  0.408594  0.698609
C    -5.880259  1.689297  -0.053480
N    -7.107162  2.373425  0.539528
H    -2.362399  -0.385673  -0.593113
H    -2.802432  1.036563  0.347689
H    -4.592561  -1.463457  0.134492
H    -4.560017  -0.271138  -1.119318
H    -5.219762  0.646804  1.732672
H    -6.414795  -0.225660  0.769511
H    -6.138472  1.478407  -1.098822
H    -5.079468  2.438885  -0.041240
H    -7.352284  3.225899  0.013580
H    -6.962390  2.649978  1.521108
H    -7.931300  1.754266  0.514810
N    -2.961125  -3.149389  1.607185
C    -4.274593  -3.049265  2.236582
H    -2.643656  -4.093462  1.386770
H    -4.452874  -2.041132  2.621709
H    -4.329210  -3.746788  3.081497
H    -5.072659  -3.307075  1.527619
Ba    3.293398  -0.694029  3.003833
