35
Energy: -243351.433723 eV PBE+vdW (tier 2 basis)
C    -1.008107  -2.710050  -0.541210
C    -0.716908  -1.786841  0.609612
O    0.430330  -1.582563  1.003034
H    -2.054379  -2.743776  -0.859678
H    -0.700821  -3.721979  -0.236422
H    -0.374050  -2.448904  -1.397341
N    -1.774367  -1.206036  1.315238
C    -3.039188  -0.686002  0.781101
C    -4.146636  -1.759481  0.764492
O    -5.299232  -1.518543  0.241331
H    -1.425398  -0.701317  2.128754
H    -3.397768  0.017651  1.553730
C    -2.921333  0.136699  -0.525897
C    -2.009498  1.384941  -0.433473
C    -0.490977  1.163415  -0.685426
C    0.393228  1.546810  0.507249
N    1.729620  0.833603  0.459468
H    -3.934726  0.480884  -0.775537
H    -2.603770  -0.504895  -1.360213
H    -2.167451  1.883858  0.535983
H    -2.375945  2.099770  -1.179660
H    -0.179409  1.751114  -1.559106
H    -0.305498  0.116896  -0.960123
H    -0.050623  1.255111  1.466187
H    0.592351  2.624266  0.541105
H    2.364326  1.166952  1.198497
H    2.212372  0.967973  -0.439431
H    1.559151  -0.186870  0.613184
N    -3.894922  -2.899398  1.368657
C    -4.825463  -4.012495  1.539484
H    -2.960837  -2.965686  1.780457
H    -4.298225  -4.838036  2.025629
H    -5.188714  -4.363066  0.564741
H    -5.667521  -3.718953  2.180977
Ba    -7.538893  -1.306083  -0.488418
