35
Energy: -243353.091984 eV PBE+vdW (tier 2 basis)
C    0.477579  0.402881  0.303149
C    0.093431  0.174814  1.730227
O    0.937151  -0.272424  2.561308
H    1.369340  1.041803  0.259156
H    -0.315287  0.851777  -0.304146
H    0.759595  -0.563588  -0.140269
N    -1.172463  0.459477  2.087516
C    -1.886130  0.206175  3.361441
C    -1.269328  1.000865  4.537462
O    -0.178862  0.654702  5.077296
H    -1.756466  0.824580  1.339630
H    -2.884457  0.628110  3.179381
C    -2.071614  -1.300402  3.662485
C    -3.288608  -1.613453  4.556626
C    -3.457970  -3.130023  4.772399
C    -4.586229  -3.573306  5.705521
N    -5.966729  -3.568265  5.052701
H    -1.155062  -1.706538  4.113774
H    -2.191170  -1.807077  2.694014
H    -4.189171  -1.183767  4.085596
H    -3.182842  -1.119128  5.535606
H    -2.539732  -3.532440  5.226413
H    -3.547799  -3.652321  3.805433
H    -4.671374  -2.940891  6.598173
H    -4.431783  -4.607496  6.034930
H    -5.999433  -4.193594  4.233851
H    -6.257135  -2.631653  4.741187
H    -6.684471  -3.902292  5.714430
N    -1.955183  2.053686  4.964842
C    -1.547345  2.931981  6.065343
H    -2.807471  2.303481  4.469900
H    -2.442190  3.384696  6.502612
H    -0.891383  3.731563  5.696589
H    -1.023498  2.348293  6.827652
Ba    2.149960  -0.073563  4.643805
