35
Energy: -243351.700347 eV PBE+vdW (tier 2 basis)
C    -0.388956  0.434258  -0.330514
C    -0.232448  -0.029210  1.091797
O    0.809618  -0.558562  1.510546
H    -1.252573  1.087689  -0.497809
H    -0.500076  -0.444236  -0.983724
H    0.524573  0.954760  -0.641165
N    -1.326751  0.156741  1.897155
C    -1.586583  -0.282023  3.271342
C    -1.569417  0.886514  4.282210
O    -2.589503  1.010244  5.077640
H    -2.120854  0.590889  1.436033
H    -2.641122  -0.597179  3.277516
C    -0.775533  -1.474675  3.852748
C    -1.105378  -2.873841  3.284848
C    -0.385197  -3.342597  2.007514
C    1.130033  -3.542150  2.189002
N    1.900837  -3.019148  0.996383
H    -1.032954  -1.496507  4.923070
H    0.297547  -1.259356  3.808021
H    -2.189216  -2.953746  3.111173
H    -0.890075  -3.599414  4.083439
H    -0.577504  -2.641839  1.184814
H    -0.837470  -4.293858  1.697516
H    1.397137  -4.596688  2.318599
H    1.523259  -2.987643  3.048770
H    2.915787  -3.138837  1.115503
H    1.683476  -1.994827  0.904038
H    1.638139  -3.502791  0.127610
N    -0.576757  1.744222  4.388630
C    0.698440  1.824628  3.666314
H    -0.718083  2.475385  5.086334
H    1.473029  2.116316  4.383929
H    0.634355  2.593193  2.885137
H    0.963488  0.864613  3.218563
Ba    -4.402269  1.324306  6.557882
