35
Energy: -243351.971150 eV PBE+vdW (tier 2 basis)
C    -0.461678  0.272566  1.889986
C    -0.521200  -0.912566  2.791797
O    0.602270  -1.439592  3.172843
H    -1.440891  0.636465  1.581282
H    0.107284  0.019858  0.988336
H    0.068038  1.078168  2.421619
N    -1.638857  -1.368175  3.359034
C    -3.000108  -1.364628  2.797801
C    -2.888290  -2.077927  1.407213
O    -1.826564  -2.012748  0.784856
H    -1.471597  -2.118211  4.028134
H    -3.562887  -2.014568  3.477566
C    -3.723502  0.028827  2.784111
C    -4.217884  0.546830  1.420961
C    -4.853690  1.954953  1.452215
C    -6.255140  1.990188  2.061030
N    -6.892757  3.364880  1.894924
H    -3.040960  0.764304  3.232330
H    -4.565959  -0.048956  3.484569
H    -4.935794  -0.157559  0.975905
H    -3.382218  0.588967  0.707609
H    -4.911706  2.311126  0.411685
H    -4.194608  2.656178  1.989470
H    -6.266229  1.785310  3.138270
H    -6.934750  1.285486  1.565213
H    -7.840979  3.393507  2.298775
H    -6.976014  3.625236  0.900797
H    -6.340703  4.101965  2.357421
N    -3.976968  -2.733436  0.963810
C    -5.218355  -3.020702  1.681662
H    -3.845498  -3.182671  0.059498
H    -5.920899  -3.477436  0.978531
H    -5.689508  -2.108560  2.070450
H    -5.062733  -3.728731  2.507584
Ba    2.756075  -2.317013  3.259074
