35
Energy: -243352.450722 eV PBE+vdW (tier 2 basis)
C    0.256680  -0.520231  0.484941
C    0.060181  0.101914  1.832803
O    1.060490  0.515587  2.486612
H    0.193577  -1.617130  0.551347
H    1.254457  -0.257852  0.119496
H    -0.491846  -0.178338  -0.236919
N    -1.180636  0.261887  2.369690
C    -2.209270  -0.787049  2.436747
C    -1.610833  -1.974169  3.258699
O    -0.362440  -2.005023  3.507401
H    -1.149700  0.843933  3.207362
H    -3.004072  -0.352176  3.063292
C    -2.885148  -1.171027  1.095154
C    -3.568423  0.046016  0.439259
C    -4.639081  -0.259084  -0.632233
C    -4.091859  -0.695184  -1.990560
N    -5.209094  -0.775632  -3.024676
H    -3.644155  -1.931451  1.323454
H    -2.169428  -1.658587  0.421053
H    -2.815938  0.735089  0.026854
H    -4.081979  0.619723  1.225020
H    -5.221663  0.665463  -0.770114
H    -5.343693  -1.015797  -0.251295
H    -3.626481  -1.688377  -1.973888
H    -3.367156  0.024773  -2.391753
H    -5.675413  0.136102  -3.148562
H    -5.937031  -1.453339  -2.753270
H    -4.852878  -1.063283  -3.948693
N    -2.405388  -2.919203  3.741272
C    -3.866614  -3.037010  3.706507
H    -1.915499  -3.657423  4.248386
H    -4.195646  -3.475775  4.654603
H    -4.187594  -3.696693  2.890275
H    -4.340397  -2.055777  3.606132
Ba    1.885789  -1.070164  4.197041
