35
Energy: -243352.606754 eV PBE+vdW (tier 2 basis)
C    0.018652  0.214442  0.004030
C    -0.137524  -0.094471  1.453549
O    0.838321  -0.511895  2.142111
H    0.464136  -0.673150  -0.471138
H    0.738301  1.030925  -0.150077
H    -0.921630  0.444470  -0.504950
N    -1.349235  0.035887  2.065103
C    -2.155543  1.251980  1.960180
C    -1.479116  2.314984  2.883505
O    -0.484467  1.973375  3.604293
H    -1.331006  -0.348909  3.009596
H    -2.048968  1.632395  0.932703
C    -3.664952  0.977367  2.165745
C    -4.125318  0.374329  3.504278
C    -5.646909  0.104914  3.471372
C    -6.162044  -0.534991  4.759569
N    -7.658263  -0.813843  4.684776
H    -3.950159  0.301174  1.346440
H    -4.212496  1.911391  1.983933
H    -3.886546  1.052282  4.339277
H    -3.604350  -0.576556  3.700093
H    -5.873214  -0.554634  2.618013
H    -6.179833  1.052420  3.291270
H    -6.019795  0.111317  5.634636
H    -5.687194  -1.503105  4.962334
H    -8.002825  -1.246222  5.555517
H    -7.890510  -1.457463  3.913503
H    -8.203625  0.048516  4.537500
N    -1.896190  3.572898  2.880654
C    -2.909724  4.228371  2.046131
H    -1.393442  4.181792  3.527373
H    -3.880321  4.261367  2.556607
H    -3.012038  3.725997  1.079395
H    -2.582499  5.256729  1.860465
Ba    1.736968  0.841624  4.011916
