35
Energy: -243351.954299 eV PBE+vdW (tier 2 basis)
C    -1.313756  -1.297572  -0.164184
C    -1.206688  -1.031162  1.305472
O    -0.579777  -1.774954  2.077779
H    -1.729595  -2.301386  -0.319084
H    -0.300237  -1.313457  -0.588292
H    -1.919457  -0.563723  -0.707081
N    -1.836695  0.088507  1.798291
C    -1.623778  0.550615  3.169968
C    -2.444978  -0.315144  4.159515
O    -3.420368  0.128354  4.881032
H    -2.425331  0.640075  1.181973
H    -0.575800  0.302379  3.412613
C    -1.808651  2.067731  3.297716
C    -0.644904  2.856063  2.657558
C    -0.824176  4.380093  2.783508
C    0.414246  5.234422  2.518484
N    0.821552  5.299833  1.047963
H    -1.863292  2.323642  4.365904
H    -2.773181  2.371750  2.859918
H    -0.542368  2.560575  1.600698
H    0.291527  2.557203  3.155560
H    -1.107556  4.627229  3.818595
H    -1.664504  4.732814  2.163497
H    1.297058  4.867029  3.056952
H    0.240668  6.275355  2.815893
H    1.072597  4.376865  0.668843
H    1.642828  5.911326  0.923821
H    0.066474  5.685414  0.462461
N    -2.066912  -1.572006  4.221445
C    -2.706494  -2.572448  5.054161
H    -1.318206  -1.835320  3.503216
H    -3.764746  -2.714663  4.770679
H    -2.611869  -2.314593  6.123543
H    -2.205059  -3.535413  4.913803
Ba    -5.139206  -0.235693  6.449955
