35
Energy: -243352.061454 eV PBE+vdW (tier 2 basis)
C    0.368820  -0.766227  -0.026551
C    0.353199  -0.051887  1.284911
O    1.462641  0.444486  1.735447
H    -0.611658  -1.110190  -0.363454
H    1.026341  -1.644032  0.054831
H    0.791879  -0.108946  -0.798280
N    -0.752763  0.080846  1.997074
C    -2.130507  -0.306115  1.636265
C    -3.060504  0.665101  2.399119
O    -2.780911  0.992211  3.572064
H    -0.696242  0.572341  2.896390
H    -2.254633  -0.132880  0.559358
C    -2.485096  -1.796010  1.923024
C    -1.985591  -2.484115  3.207484
C    -2.343372  -1.893130  4.582979
C    -3.844002  -1.705962  4.848831
N    -4.075895  -0.428326  5.631290
H    -3.579509  -1.871868  1.833314
H    -2.100294  -2.389807  1.081398
H    -0.889334  -2.569649  3.170311
H    -2.348265  -3.521127  3.151778
H    -1.843350  -0.921706  4.698868
H    -1.920735  -2.551564  5.353862
H    -4.280827  -2.531382  5.421558
H    -4.429439  -1.591901  3.928848
H    -5.073474  -0.269836  5.826961
H    -3.702609  0.366215  5.057371
H    -3.587840  -0.443295  6.536881
N    -4.146812  1.069034  1.735741
C    -5.171204  1.958355  2.286150
H    -4.274934  0.756468  0.776970
H    -5.464219  2.685061  1.521054
H    -4.758359  2.491672  3.147048
H    -6.062271  1.390967  2.586117
Ba    3.667076  1.254083  1.930522
