35
Energy: -243352.447730 eV PBE+vdW (tier 2 basis)
C    -0.311691  0.028536  0.322433
C    -0.393914  -0.318124  1.772739
O    0.650539  -0.413683  2.477970
H    0.564759  -0.479627  -0.099937
H    -0.140458  1.108487  0.192966
H    -1.202468  -0.257087  -0.245213
N    -1.601192  -0.545735  2.358985
C    -2.751033  0.331777  2.153657
C    -2.398997  1.700798  2.837276
O    -1.288885  1.844973  3.432981
H    -1.509819  -0.889190  3.316578
H    -2.846721  0.520512  1.073514
C    -4.051112  -0.331086  2.699432
C    -5.347293  -0.050323  1.905193
C    -5.552776  -0.920983  0.643936
C    -6.194809  -2.293626  0.863464
N    -7.714657  -2.221244  0.990534
H    -4.194591  -0.028334  3.746087
H    -3.866983  -1.415286  2.720107
H    -5.398491  1.005380  1.599064
H    -6.194899  -0.167650  2.598132
H    -4.587486  -1.113120  0.151756
H    -6.137158  -0.366705  -0.106823
H    -5.839546  -2.796636  1.771817
H    -6.009671  -2.958549  0.011835
H    -8.118713  -3.159276  1.136829
H    -8.145781  -1.838153  0.135582
H    -8.021473  -1.634199  1.779054
N    -3.279255  2.686186  2.768929
C    -3.090524  4.015097  3.365991
H    -4.142367  2.527276  2.257867
H    -4.006105  4.593411  3.217663
H    -2.257239  4.537992  2.881395
H    -2.894394  3.924061  4.440197
Ba    1.101429  1.374474  4.130157
