35
Energy: -243351.888750 eV PBE+vdW (tier 2 basis)
C    0.209656  0.794697  0.156575
C    -0.132317  -0.113315  1.297732
O    0.726831  -0.596632  2.052595
H    0.748790  1.665990  0.553175
H    -0.658822  1.136962  -0.416834
H    0.909196  0.279695  -0.514677
N    -1.461801  -0.406861  1.500576
C    -1.921458  -1.127985  2.688921
C    -1.627010  -2.644363  2.535593
O    -2.538197  -3.556416  2.453558
H    -2.151733  -0.086189  0.828535
H    -1.253962  -0.815241  3.510836
C    -3.369474  -0.775136  3.060466
C    -3.528003  0.484261  3.944478
C    -3.161540  1.829742  3.293153
C    -3.195169  3.042416  4.223593
N    -4.602952  3.470196  4.633081
H    -3.793849  -1.617930  3.622363
H    -3.981905  -0.689265  2.148597
H    -2.926177  0.348471  4.857573
H    -4.579454  0.497264  4.274758
H    -3.787089  2.021010  2.405231
H    -2.126903  1.800650  2.921369
H    -2.653301  2.861584  5.160705
H    -2.755695  3.922036  3.738827
H    -5.178656  3.715925  3.814588
H    -4.568682  4.303610  5.239785
H    -5.100363  2.736854  5.156348
N    -0.350227  -2.950564  2.497769
C    0.161054  -4.298920  2.330475
H    0.297839  -2.103218  2.475964
H    1.255247  -4.272031  2.329853
H    -0.155803  -4.730407  1.365250
H    -0.146702  -4.942712  3.171781
Ba    -3.258345  -5.781767  2.200286
