35
Energy: -243351.861469 eV PBE+vdW (tier 2 basis)
C    0.079970  -0.424479  0.342874
C    -0.157916  -0.172011  1.792537
O    0.883160  -0.152341  2.568792
H    0.748334  0.365312  -0.033395
H    0.582331  -1.391607  0.222402
H    -0.822059  -0.439706  -0.264592
N    -1.327186  0.176688  2.334851
C    -2.690765  -0.209070  1.917980
C    -2.703474  -1.777031  1.936389
O    -1.666279  -2.360417  1.619500
H    -1.249727  0.392474  3.328010
H    -3.332787  0.211194  2.702030
C    -3.130043  0.359058  0.541156
C    -4.641753  0.546374  0.291426
C    -5.326131  1.658881  1.113365
C    -6.457708  2.400201  0.403073
N    -7.681631  1.533059  0.115291
H    -2.759813  -0.300223  -0.253583
H    -2.632734  1.331393  0.407560
H    -5.165121  -0.413949  0.410476
H    -4.719937  0.795887  -0.778981
H    -4.595778  2.449575  1.346971
H    -5.680235  1.291426  2.089532
H    -6.138961  2.793138  -0.570795
H    -6.827063  3.236985  1.007755
H    -8.413262  2.081456  -0.361987
H    -8.098905  1.161815  0.980710
H    -7.457392  0.734207  -0.494233
N    -3.837610  -2.430043  2.259318
C    -5.091053  -1.943584  2.820544
H    -3.743657  -3.442129  2.175840
H    -5.351049  -2.536602  3.705803
H    -5.913615  -2.033893  2.097217
H    -5.001801  -0.899901  3.136890
Ba    2.993702  -0.616645  3.442758
