35
Energy: -243352.098529 eV PBE+vdW (tier 2 basis)
C    -0.000922  -1.091916  0.584223
C    -0.018125  -0.362648  1.886911
O    1.013259  -0.385930  2.664456
H    -0.473835  -0.515457  -0.220343
H    -0.559903  -2.037091  0.679239
H    1.025250  -1.332480  0.293583
N    -1.104160  0.305887  2.265530
C    -2.425257  0.315016  1.590163
C    -2.538435  1.264690  0.371748
O    -3.376087  0.980919  -0.498251
H    -1.059762  0.749147  3.184584
H    -2.594547  -0.687894  1.176295
C    -3.514633  0.588465  2.657729
C    -4.965100  0.500565  2.138972
C    -5.541990  1.831682  1.611849
C    -6.664341  1.693503  0.590154
N    -6.165476  1.065402  -0.714805
H    -3.339784  1.574009  3.120498
H    -3.377718  -0.164049  3.447821
H    -5.598639  0.145381  2.961927
H    -5.012039  -0.290086  1.374590
H    -4.756851  2.469797  1.180408
H    -5.954441  2.408663  2.451716
H    -7.071294  2.676264  0.329212
H    -7.491757  1.071357  0.950879
H    -6.428491  0.075803  -0.786116
H    -6.568123  1.537221  -1.533487
H    -5.117721  1.111158  -0.773532
N    -1.751791  2.349221  0.326731
C    -1.813726  3.345011  -0.746645
H    -1.129198  2.533542  1.105889
H    -2.536499  4.136382  -0.508181
H    -2.113831  2.851598  -1.675690
H    -0.825120  3.795348  -0.877163
Ba    3.050369  -0.873776  3.773650
