35
Energy: -243351.877905 eV PBE+vdW (tier 2 basis)
C    0.109156  0.859079  0.396374
C    -0.039284  0.511469  1.839146
O    0.983907  0.577164  2.633225
H    1.159198  0.810508  0.095396
H    -0.255856  1.884959  0.226442
H    -0.487089  0.213011  -0.259979
N    -1.219336  0.157059  2.332272
C    -2.473336  0.007599  1.558862
C    -3.023839  1.333767  0.947929
O    -3.292226  1.316095  -0.248032
H    -1.250268  -0.037887  3.333420
H    -2.224977  -0.580734  0.665871
C    -3.536534  -0.771464  2.357163
C    -4.740100  -1.157910  1.473909
C    -5.806711  -1.951001  2.247356
C    -6.874139  -2.630191  1.393700
N    -7.830686  -1.650019  0.717405
H    -3.875319  -0.187383  3.226363
H    -3.073546  -1.691537  2.748401
H    -4.375835  -1.760188  0.626404
H    -5.171243  -0.244298  1.034387
H    -6.284454  -1.324351  3.018162
H    -5.327850  -2.774292  2.800011
H    -7.508746  -3.284182  2.003234
H    -6.439551  -3.229298  0.583487
H    -8.548140  -2.153588  0.174566
H    -7.345082  -1.018177  0.065780
H    -8.325814  -1.067927  1.408314
N    -3.183624  2.438510  1.724416
C    -3.161553  2.583878  3.175883
H    -3.574090  3.219081  1.198244
H    -3.093900  3.650317  3.414000
H    -2.285911  2.098183  3.621780
H    -4.070322  2.191146  3.654615
Ba    3.156956  0.783309  3.495536
