35
Energy: -243352.680982 eV PBE+vdW (tier 2 basis)
C    0.132574  3.202757  1.613215
C    0.193372  1.765759  2.011122
O    0.986687  1.368695  2.911130
H    -0.436764  3.783908  2.355534
H    -0.309557  3.360827  0.624776
H    1.154146  3.604292  1.623352
N    -0.611311  0.848662  1.404923
C    -2.045578  1.065769  1.214497
C    -2.694680  1.077821  2.634285
O    -1.999950  0.720231  3.639659
H    -0.386763  -0.105668  1.690229
H    -2.188478  2.063652  0.772421
C    -2.629788  -0.002772  0.257724
C    -2.073164  0.146341  -1.171036
C    -2.412903  -0.984978  -2.166923
C    -3.839112  -0.943499  -2.715823
N    -4.019260  -1.949431  -3.846868
H    -3.725112  0.075518  0.267252
H    -2.394556  -1.001630  0.661260
H    -0.976733  0.195047  -1.116042
H    -2.392088  1.113162  -1.592526
H    -2.214725  -1.965913  -1.706047
H    -1.710135  -0.889350  -3.009472
H    -4.083632  0.035501  -3.147335
H    -4.600672  -1.195302  -1.967753
H    -3.839025  -2.915696  -3.536333
H    -3.376001  -1.757080  -4.629828
H    -4.977373  -1.924235  -4.227581
N    -3.944958  1.485029  2.796536
C    -4.891662  2.018303  1.813606
H    -4.286071  1.428778  3.757320
H    -5.613274  1.247984  1.512644
H    -4.370022  2.404832  0.933427
H    -5.441012  2.846032  2.275414
Ba    0.068210  0.569408  5.075807
