35
Energy: -243352.873854 eV PBE+vdW (tier 2 basis)
C    0.053387  -0.330202  -0.340442
C    -0.120138  -0.139143  1.129012
O    0.826317  -0.367967  1.939228
H    0.388051  -1.357317  -0.539530
H    0.854995  0.336794  -0.690018
H    -0.853413  -0.128608  -0.920063
N    -1.311493  0.290694  1.585798
C    -1.602415  0.651262  2.984029
C    -1.528694  -0.606522  3.891530
O    -0.473692  -0.765049  4.582988
H    -2.033616  0.476848  0.893236
H    -0.763854  1.266784  3.342308
C    -2.900823  1.489538  3.010078
C    -3.407140  1.995165  4.378584
C    -2.702852  3.261336  4.900679
C    -3.277108  3.858614  6.187622
N    -4.586724  4.615216  5.977934
H    -3.706886  0.916634  2.535070
H    -2.722053  2.353211  2.350399
H    -3.348527  1.197883  5.136793
H    -4.482432  2.192349  4.244952
H    -2.674173  4.035871  4.116287
H    -1.648776  3.044682  5.130252
H    -2.588039  4.592825  6.620963
H    -3.488332  3.096593  6.948545
H    -4.923424  5.016110  6.867073
H    -5.340377  4.014504  5.616114
H    -4.471283  5.399871  5.319234
N    -2.494539  -1.516878  3.946876
C    -3.755594  -1.627227  3.204181
H    -2.303879  -2.270811  4.608065
H    -4.062198  -2.677642  3.221255
H    -3.626795  -1.333782  2.158223
H    -4.549562  -1.032398  3.672467
Ba    1.921041  -1.118984  3.978837
