35
Energy: -243352.661762 eV PBE+vdW (tier 2 basis)
C    -0.112818  -0.356695  0.252055
C    -0.209577  -0.026981  1.703581
O    0.796929  -0.124992  2.462682
H    -1.077985  -0.389186  -0.261390
H    0.360349  -1.347122  0.173791
H    0.559539  0.341301  -0.267334
N    -1.399255  0.359022  2.248082
C    -2.210852  1.419862  1.651750
C    -1.578822  2.777422  2.112950
O    -0.430486  2.786945  2.654085
H    -1.348227  0.403316  3.266343
H    -2.038861  1.386254  0.564600
C    -3.730188  1.228104  1.867077
C    -4.216126  1.171254  3.324549
C    -5.752965  1.135170  3.500240
C    -6.406667  -0.182988  3.081881
N    -7.895138  -0.186088  3.408302
H    -3.988715  0.302636  1.332320
H    -4.261585  2.027933  1.326323
H    -3.862452  2.059952  3.869228
H    -3.780368  0.299788  3.838491
H    -6.207727  1.970473  2.943536
H    -5.966155  1.315716  4.565278
H    -5.980942  -1.041712  3.616494
H    -6.339342  -0.376900  2.004557
H    -8.338946  -1.075740  3.133318
H    -8.398849  0.568905  2.919118
H    -8.065044  -0.060951  4.417794
N    -2.243691  3.895196  1.873588
C    -1.740072  5.243987  2.162802
H    -3.141886  3.826143  1.403676
H    -2.545448  5.960345  1.981114
H    -0.893745  5.486228  1.508153
H    -1.426715  5.313516  3.210068
Ba    1.822479  1.924028  3.403960
