35
Energy: -243351.706571 eV PBE+vdW (tier 2 basis)
C    -0.162480  -0.441260  0.228704
C    -0.205258  -0.224249  1.713663
O    0.812358  -0.178922  2.423490
H    -1.148122  -0.543271  -0.238475
H    0.430664  -1.340871  0.019693
H    0.361866  0.400012  -0.246025
N    -1.445657  -0.049841  2.271459
C    -1.639450  0.120593  3.715412
C    -2.932032  -0.575986  4.159493
O    -2.853442  -1.568656  4.988341
H    -2.242472  -0.066865  1.644452
H    -0.827098  -0.452906  4.183399
C    -1.554615  1.569199  4.282813
C    -0.131369  2.166308  4.323166
C    0.294641  2.888287  3.031140
C    1.788766  3.165395  2.896216
N    2.613607  1.880736  2.799068
H    -1.940308  1.527400  5.313561
H    -2.229806  2.242333  3.737011
H    0.571945  1.360593  4.581836
H    -0.089850  2.885022  5.153460
H    -0.201172  3.869166  2.983755
H    -0.045647  2.348845  2.136635
H    2.189086  3.738779  3.740744
H    1.988628  3.733682  1.981317
H    3.401942  1.995823  2.150350
H    2.024734  1.062712  2.484334
H    3.017335  1.622407  3.706580
N    -4.127466  -0.190004  3.752392
C    -4.539872  0.898482  2.855329
H    -4.903741  -0.730772  4.136137
H    -5.141546  1.621739  3.419997
H    -5.155386  0.481057  2.048919
H    -3.677850  1.413842  2.429678
Ba    -2.773013  -3.415640  6.463183
