35
Energy: -243352.030809 eV PBE+vdW (tier 2 basis)
C    0.124835  0.073454  -0.831807
C    0.299935  -0.278230  0.604708
O    1.503985  -0.553625  1.012046
H    0.778229  0.930160  -1.055933
H    -0.900121  0.320055  -1.101079
H    0.439103  -0.774602  -1.452154
N    -0.654925  -0.221154  1.529841
C    -2.119059  -0.375239  1.401135
C    -2.349174  -1.798893  0.793909
O    -1.580069  -2.168108  -0.095343
H    -0.310031  -0.417946  2.468603
H    -2.474544  -0.314953  2.437297
C    -2.851302  0.732502  0.596559
C    -4.323149  0.877484  1.026450
C    -5.081722  2.088787  0.441252
C    -5.509895  1.920450  -1.015187
N    -6.432310  3.056073  -1.444609
H    -2.787704  0.515748  -0.478548
H    -2.323983  1.681744  0.775143
H    -4.362376  0.986771  2.119913
H    -4.881633  -0.040812  0.792287
H    -4.476928  3.002790  0.554202
H    -5.983331  2.232538  1.057569
H    -6.081471  0.996880  -1.171981
H    -4.670122  1.933140  -1.720322
H    -6.731642  2.953403  -2.425662
H    -5.974644  3.975261  -1.356974
H    -7.285496  3.086312  -0.866336
N    -3.377836  -2.549130  1.235529
C    -4.289894  -2.372541  2.363015
H    -3.458522  -3.431105  0.729551
H    -4.290327  -3.282205  2.975357
H    -5.316550  -2.189684  2.019608
H    -3.980229  -1.540177  3.000940
Ba    3.706640  -1.288911  1.168728
