35
Energy: -243352.395725 eV PBE+vdW (tier 2 basis)
C    0.315373  -1.192059  1.693173
C    -0.671624  -1.304942  2.808121
O    -0.656241  -2.311496  3.571700
H    0.645329  -2.182958  1.366524
H    1.203775  -0.674053  2.090096
H    -0.045264  -0.615244  0.836968
N    -1.574443  -0.312212  3.051460
C    -2.445202  0.280622  2.016726
C    -2.789078  -0.825994  0.975793
O    -2.777936  -2.041971  1.343109
H    -2.035070  -0.439424  3.951878
H    -3.412366  0.406753  2.533535
C    -2.092484  1.720133  1.559017
C    -0.753129  1.992749  0.858098
C    -0.571052  3.448395  0.361813
C    -0.334766  4.473545  1.472647
N    -0.021537  5.847794  0.893351
H    -2.162959  2.324040  2.475922
H    -2.926918  2.081273  0.933505
H    -0.646715  1.351212  -0.029207
H    0.081188  1.734534  1.526780
H    -1.443241  3.747461  -0.241797
H    0.296020  3.455565  -0.316721
H    -1.206036  4.617944  2.122746
H    0.526433  4.209726  2.099608
H    0.822679  5.829181  0.301212
H    0.145235  6.541541  1.638289
H    -0.793358  6.206371  0.311340
N    -3.158981  -0.457532  -0.239254
C    -3.652228  -1.351716  -1.292003
H    -3.173556  0.538108  -0.442391
H    -3.274160  -1.004504  -2.259079
H    -4.749811  -1.343914  -1.312132
H    -3.296316  -2.367059  -1.104473
Ba    -2.326475  -4.011157  2.875538
