35
Energy: -243352.207940 eV PBE+vdW (tier 2 basis)
C    -0.227651  -0.577220  -0.185413
C    -0.138645  -0.282655  1.274542
O    0.968127  -0.555899  1.901114
H    0.554825  -0.020138  -0.719077
H    -1.196328  -0.326499  -0.624779
H    -0.035789  -1.646545  -0.350153
N    -1.134120  0.244099  1.953128
C    -2.463625  0.720028  1.525663
C    -2.757626  1.830726  2.571853
O    -2.384235  1.635840  3.731433
H    -1.023153  0.432220  2.965536
H    -2.403130  1.128379  0.507901
C    -3.480286  -0.448244  1.597650
C    -4.969660  -0.133663  1.334126
C    -5.760030  0.419605  2.544236
C    -7.182178  -0.111020  2.701124
N    -8.138233  0.358937  1.605545
H    -3.380771  -0.919314  2.587201
H    -3.152967  -1.198768  0.863556
H    -5.417309  -1.091938  1.025754
H    -5.066787  0.533644  0.462955
H    -5.766725  1.519551  2.555606
H    -5.256064  0.130364  3.479158
H    -7.629720  0.226302  3.643634
H    -7.219571  -1.207595  2.675406
H    -9.085077  -0.020275  1.757159
H    -7.836330  0.054787  0.669620
H    -8.221981  1.385355  1.589644
N    -3.424574  2.913989  2.136595
C    -3.757396  4.044135  3.006825
H    -3.561532  3.028613  1.137249
H    -3.728646  3.705974  4.046374
H    -4.759084  4.415930  2.764592
H    -3.036326  4.861484  2.878653
Ba    3.073267  -1.027418  2.775379
