35
Energy: -243352.098480 eV PBE+vdW (tier 2 basis)
C    -0.493149  -0.485262  -0.164158
C    -0.259941  -0.206937  1.288961
O    0.951748  0.000028  1.709139
H    -1.549671  -0.645427  -0.401856
H    0.062288  -1.385623  -0.463540
H    -0.127259  0.357237  -0.767812
N    -1.299702  -0.186711  2.092249
C    -1.390446  -0.033271  3.547739
C    -2.598760  -0.940809  3.905978
O    -3.468786  -1.094839  3.037714
H    -2.228776  -0.469100  1.728477
H    -0.458516  -0.386561  4.006054
C    -1.634342  1.442823  3.969436
C    -2.916829  2.141388  3.463863
C    -4.191842  1.917539  4.304352
C    -5.335921  2.772960  3.763139
N    -6.614927  2.595376  4.571602
H    -0.768681  2.019677  3.614048
H    -1.588641  1.486129  5.067571
H    -3.116158  1.863133  2.417726
H    -2.701030  3.219780  3.447931
H    -3.989858  2.189423  5.353067
H    -4.485607  0.858135  4.282489
H    -5.595982  2.508605  2.730477
H    -5.105620  3.845271  3.798367
H    -6.943862  1.619110  4.555274
H    -7.377434  3.180940  4.198941
H    -6.482370  2.859984  5.558619
N    -2.675681  -1.461278  5.141526
C    -1.660590  -1.450716  6.195489
H    -3.484603  -2.064791  5.280618
H    -0.819017  -2.116855  5.959580
H    -2.122977  -1.810906  7.119236
H    -1.288992  -0.437872  6.390363
Ba    3.287658  0.056187  1.518618
