35
Energy: -243353.002065 eV PBE+vdW (tier 2 basis)
C    0.201325  0.742504  0.234222
C    -0.131557  0.173841  1.576242
O    0.686458  -0.582004  2.177510
H    1.160077  1.275051  0.288226
H    -0.562154  1.419102  -0.163508
H    0.341486  -0.089337  -0.471686
N    -1.324986  0.493797  2.110988
C    -1.980067  -0.015397  3.338920
C    -1.178583  0.365769  4.609127
O    -0.132717  -0.259747  4.945855
H    -1.895083  1.119372  1.547775
H    -2.923533  0.546400  3.374951
C    -2.313809  -1.524865  3.265130
C    -3.502220  -1.983078  4.142441
C    -4.884703  -1.656500  3.544404
C    -6.099972  -2.076234  4.374886
N    -6.409282  -3.569259  4.299615
H    -1.420407  -2.099735  3.540713
H    -2.519371  -1.766322  2.212500
H    -3.422155  -1.553886  5.154579
H    -3.394245  -3.070903  4.274172
H    -4.970033  -2.072536  2.526781
H    -4.998907  -0.569122  3.415551
H    -7.008242  -1.577656  4.016553
H    -5.982433  -1.846266  5.441431
H    -7.245933  -3.796707  4.859062
H    -5.640847  -4.153534  4.656403
H    -6.604925  -3.867275  3.332313
N    -1.653522  1.372388  5.332422
C    -1.039693  1.888714  6.559413
H    -2.477929  1.860384  4.991948
H    -0.299845  2.664731  6.322237
H    -0.555579  1.070722  7.100265
H    -1.822049  2.327906  7.185660
Ba    2.013435  -1.181320  4.110897
