35
Energy: -243351.881782 eV PBE+vdW (tier 2 basis)
C    1.462078  -0.165209  1.108776
C    0.612531  0.796011  1.891075
O    1.080862  1.557925  2.738137
H    0.958432  -0.617082  0.246866
H    1.783276  -0.970907  1.785815
H    2.370741  0.346892  0.771374
N    -0.743290  0.767327  1.582831
C    -1.888062  1.308804  2.330222
C    -2.906614  1.919007  1.355273
O    -4.156847  1.952460  1.668904
H    -0.987613  -0.021497  0.987256
H    -2.416892  0.465118  2.805016
C    -1.564293  2.311976  3.472378
C    -0.958327  3.664999  3.069191
C    -0.362324  4.465237  4.246823
C    0.803233  3.860771  5.031246
N    2.048282  3.643169  4.194399
H    -0.910750  1.773246  4.167420
H    -2.507690  2.476906  4.015668
H    -1.731815  4.303534  2.615458
H    -0.194529  3.522262  2.293257
H    -1.144956  4.660543  4.996182
H    -0.068341  5.460355  3.878588
H    0.567564  2.882738  5.467300
H    1.083363  4.532558  5.851058
H    2.845105  3.376276  4.788015
H    2.321899  4.494744  3.687174
H    1.881984  2.865488  3.510690
N    -2.466418  2.412523  0.219308
C    -3.266620  3.064565  -0.817042
H    -1.463496  2.296660  0.061227
H    -2.590174  3.508295  -1.552673
H    -3.880483  3.862224  -0.381771
H    -3.903330  2.332928  -1.332153
Ba    -6.483661  1.774315  2.044569
