35
Energy: -243352.475627 eV PBE+vdW (tier 2 basis)
C    0.241843  0.397778  0.114293
C    0.082053  0.087051  1.563187
O    1.087426  -0.104678  2.304188
H    0.865767  1.290105  -0.029939
H    -0.703663  0.507976  -0.423519
H    0.800853  -0.437893  -0.335967
N    -1.159305  -0.021676  2.113843
C    -2.216961  0.979271  1.926687
C    -1.620788  2.342564  2.385783
O    -0.660449  2.336544  3.221806
H    -1.126211  -0.393085  3.064520
H    -2.492265  1.020148  0.864880
C    -3.425492  0.536545  2.800966
C    -4.832137  1.095241  2.510958
C    -5.597891  0.384872  1.373272
C    -7.068021  0.810988  1.366378
N    -7.901216  0.016661  0.368789
H    -3.177295  0.764677  3.848746
H    -3.462814  -0.561067  2.728591
H    -4.809259  2.180745  2.341911
H    -5.405385  0.963488  3.440445
H    -5.534933  -0.704067  1.531483
H    -5.141841  0.592090  0.391572
H    -7.199330  1.866462  1.097382
H    -7.539799  0.646536  2.343453
H    -8.888014  0.317784  0.388097
H    -7.889863  -0.992744  0.578534
H    -7.567926  0.133148  -0.599281
N    -2.085395  3.495087  1.921900
C    -3.077423  3.773218  0.882468
H    -1.639659  4.317795  2.332244
H    -2.630003  4.433087  0.129274
H    -3.946933  4.281782  1.317008
H    -3.399497  2.851689  0.392034
Ba    1.576210  1.541371  4.098320
