35
Energy: -243351.893378 eV PBE+vdW (tier 2 basis)
C    -0.291557  0.533430  0.017043
C    0.010139  -0.237515  1.259713
O    1.177566  -0.775565  1.430546
H    0.580275  0.560158  -0.640988
H    -0.594784  1.564688  0.250071
H    -1.132222  0.082833  -0.531534
N    -0.912625  -0.377841  2.202402
C    -2.281650  0.180480  2.161317
C    -2.361915  1.729187  2.347628
O    -3.066340  2.336427  1.549361
H    -0.632325  -0.894644  3.036177
H    -2.648771  0.049296  1.135968
C    -3.223491  -0.589635  3.110039
C    -4.653019  -0.011982  3.119914
C    -5.616143  -0.853414  3.974330
C    -6.962139  -0.204141  4.284684
N    -7.873324  -0.078393  3.065503
H    -3.247721  -1.642952  2.790008
H    -2.825944  -0.577689  4.137225
H    -5.010105  0.065172  2.079972
H    -4.625525  1.017388  3.508470
H    -5.165449  -1.044443  4.960745
H    -5.773007  -1.850004  3.530356
H    -6.852484  0.813303  4.680922
H    -7.527919  -0.797854  5.012263
H    -8.778777  0.339997  3.326091
H    -8.072642  -0.998331  2.646913
H    -7.463222  0.517297  2.333120
N    -1.705603  2.336282  3.368736
C    -0.879760  1.773519  4.428922
H    -1.842066  3.345497  3.374788
H    -0.802749  2.511721  5.233463
H    0.142776  1.546361  4.091004
H    -1.327579  0.873639  4.868915
Ba    3.368923  -1.563460  1.136823
