35
Energy: -243351.728648 eV PBE+vdW (tier 2 basis)
C    -0.002974  0.034968  0.261734
C    -0.134124  -0.074692  1.743222
O    0.932545  -0.021826  2.475868
H    -0.953795  0.034392  -0.277209
H    0.603363  -0.807023  -0.103525
H    0.539375  0.957683  0.013843
N    -1.306907  -0.243747  2.342442
C    -2.681557  -0.205928  1.761023
C    -2.885317  -1.239678  0.620950
O    -3.311007  -0.874869  -0.486666
H    -1.260871  -0.310504  3.359049
H    -3.320749  -0.546543  2.590594
C    -3.044043  1.262842  1.432922
C    -4.357641  1.642998  0.716933
C    -5.713272  1.134484  1.241038
C    -6.177308  -0.263453  0.827951
N    -6.066339  -0.482045  -0.669780
H    -2.232862  1.687756  0.824740
H    -3.007510  1.793176  2.397050
H    -4.249288  1.434882  -0.354659
H    -4.395238  2.739412  0.782852
H    -6.482043  1.849722  0.910859
H    -5.754760  1.171159  2.340335
H    -5.598982  -1.076570  1.283328
H    -7.228528  -0.412174  1.101093
H    -5.054208  -0.595656  -0.913815
H    -6.568525  -1.329209  -0.965520
H    -6.459950  0.306662  -1.201038
N    -2.635055  -2.536526  0.889444
C    -2.247885  -3.176472  2.144576
H    -2.783084  -3.148932  0.087955
H    -2.552363  -4.227055  2.103887
H    -2.759457  -2.722067  3.002134
H    -1.161653  -3.144890  2.306142
Ba    3.102634  0.279645  3.368153
