35
Energy: -243350.964018 eV PBE+vdW (tier 2 basis)
C    -1.223051  2.142488  -0.021868
C    -0.353584  1.097303  0.647454
O    0.831384  1.244128  0.861320
H    -1.968151  2.550538  0.680487
H    -1.743704  1.736450  -0.901340
H    -0.576091  2.963724  -0.342604
N    -0.962581  -0.111262  1.020733
C    -2.365077  -0.414920  1.083864
C    -3.114191  0.351356  2.199354
O    -4.268664  0.870835  1.903405
H    -0.293742  -0.761430  1.423678
H    -2.848061  -0.020348  0.175778
C    -2.641709  -1.946973  1.039494
C    -1.904217  -2.861704  2.036074
C    -2.021337  -4.346611  1.625574
C    -1.224625  -5.258224  2.558873
N    -1.271558  -6.712169  2.106581
H    -2.365698  -2.245198  0.017316
H    -3.726801  -2.107893  1.124998
H    -2.300981  -2.727967  3.054275
H    -0.832852  -2.609699  2.074406
H    -1.647917  -4.459473  0.594875
H    -3.080296  -4.650246  1.619204
H    -1.612417  -5.249234  3.585144
H    -0.160907  -4.990165  2.588921
H    -0.873921  -6.832612  1.163005
H    -2.234873  -7.077839  2.082289
H    -0.731747  -7.318622  2.742910
N    -2.614485  0.581518  3.398611
C    -1.326256  0.188194  3.993886
H    -3.200962  1.163697  3.995937
H    -1.402602  0.349832  5.073130
H    -0.510005  0.803801  3.596113
H    -1.115816  -0.868505  3.818529
Ba    -6.097243  2.151303  1.176716
