35
Energy: -243351.823452 eV PBE+vdW (tier 2 basis)
C    0.015721  0.352941  0.358374
C    -0.326136  0.047796  1.776747
O    0.618710  0.070385  2.665129
H    0.619842  1.268435  0.322626
H    0.635129  -0.464135  -0.041606
H    -0.850914  0.477675  -0.293210
N    -1.548669  -0.274489  2.177139
C    -2.863126  -0.370117  1.477805
C    -2.815192  -0.909914  0.023116
O    -3.272919  -0.229496  -0.911378
H    -1.613866  -0.459923  3.178980
H    -3.394565  -1.142350  2.056682
C    -3.701188  0.914860  1.594829
C    -3.141580  2.208970  0.967118
C    -4.240172  3.169476  0.453765
C    -4.558020  3.086930  -1.037037
N    -5.126907  1.748104  -1.471060
H    -3.915915  1.087815  2.659505
H    -4.676189  0.651846  1.160345
H    -2.458936  1.983000  0.136807
H    -2.543758  2.738341  1.720698
H    -3.921701  4.208923  0.614265
H    -5.160769  3.060612  1.048740
H    -3.658802  3.239510  -1.647316
H    -5.292797  3.849932  -1.320310
H    -4.460797  0.960701  -1.245778
H    -6.029805  1.560257  -1.016672
H    -5.297230  1.737717  -2.485682
N    -2.326670  -2.143335  -0.184730
C    -1.869433  -3.133048  0.787329
H    -2.379459  -2.440337  -1.158922
H    -1.950158  -4.124896  0.332045
H    -2.497448  -3.133084  1.686770
H    -0.819581  -2.975104  1.071848
Ba    2.589359  0.214654  3.964569
