35
Energy: -243352.008627 eV PBE+vdW (tier 2 basis)
C    0.199660  1.217070  1.384902
C    0.184390  -0.223428  1.789347
O    1.261355  -0.782667  2.237227
H    -0.185171  1.355269  0.365730
H    1.217384  1.612816  1.427959
H    -0.430184  1.818743  2.057068
N    -0.928858  -0.940689  1.699549
C    -2.252482  -0.488477  1.202244
C    -3.367295  -1.035221  2.144690
O    -4.056330  -2.015208  1.818657
H    -0.851862  -1.921862  1.970228
H    -2.259636  0.605170  1.282625
C    -2.507285  -0.861769  -0.269136
C    -2.354256  -2.348899  -0.652664
C    -3.292936  -2.813065  -1.784132
C    -4.794775  -2.698134  -1.529574
N    -5.227942  -3.420239  -0.268715
H    -3.524206  -0.500949  -0.480613
H    -1.850330  -0.247242  -0.901095
H    -2.504522  -2.990308  0.227054
H    -1.325395  -2.538347  -0.988999
H    -3.047597  -3.854990  -2.040219
H    -3.096794  -2.235841  -2.700288
H    -5.130383  -1.661255  -1.405761
H    -5.358791  -3.130163  -2.364302
H    -6.249950  -3.388480  -0.158058
H    -4.957292  -4.412017  -0.289280
H    -4.792662  -2.963262  0.573546
N    -3.558199  -0.400129  3.312600
C    -2.914528  0.810084  3.818235
H    -4.313896  -0.793283  3.872834
H    -1.848719  0.647903  4.030048
H    -3.399493  1.084963  4.759312
H    -3.037422  1.656116  3.128314
Ba    3.458035  -1.274374  2.969912
