35
Energy: -243352.897174 eV PBE+vdW (tier 2 basis)
C    -1.767850  1.757945  0.133641
C    -1.459304  1.285609  1.517564
O    -0.277904  1.330988  1.968394
H    -2.829979  1.704635  -0.127029
H    -1.194926  1.149670  -0.581327
H    -1.421163  2.793515  0.015985
N    -2.478982  0.815122  2.260959
C    -2.443526  0.183065  3.599833
C    -1.831716  1.144947  4.647280
O    -0.581169  1.188278  4.846443
H    -3.387097  0.816148  1.804006
H    -3.503102  0.062359  3.856252
C    -1.779636  -1.212212  3.590564
C    -2.192683  -2.152393  4.746737
C    -3.591447  -2.778819  4.582941
C    -4.041478  -3.729785  5.694917
N    -3.403775  -5.114409  5.613242
H    -0.689079  -1.090252  3.601596
H    -2.024900  -1.683777  2.628089
H    -2.130794  -1.625690  5.712936
H    -1.427601  -2.943077  4.793215
H    -3.674256  -3.285390  3.606924
H    -4.362496  -1.993415  4.560684
H    -5.121736  -3.909034  5.641899
H    -3.807276  -3.348622  6.696980
H    -3.755453  -5.722863  6.368727
H    -2.378889  -5.086068  5.702313
H    -3.627047  -5.582282  4.722220
N    -2.650805  1.925984  5.343192
C    -4.109946  2.065187  5.238704
H    -2.187055  2.517469  6.033318
H    -4.414226  2.313792  4.215479
H    -4.415225  2.889591  5.889450
H    -4.625187  1.158667  5.580641
Ba    1.485861  1.729266  3.582271
