35
Energy: -243352.017459 eV PBE+vdW (tier 2 basis)
C    0.826404  1.195949  1.313750
C    0.332802  0.107534  2.203872
O    1.221365  -0.546922  2.890368
H    1.364309  1.926424  1.937451
H    1.530085  0.776043  0.585264
H    0.043060  1.710450  0.761593
N    -0.948787  -0.158677  2.460056
C    -2.126708  0.002194  1.583761
C    -1.815286  -0.848218  0.304227
O    -0.649747  -0.868253  -0.095466
H    -1.066969  -0.880264  3.170191
H    -2.949003  -0.430095  2.167802
C    -2.494745  1.469308  1.241711
C    -3.969281  1.697782  0.856370
C    -4.215209  3.179624  0.513038
C    -5.578701  3.532995  -0.076295
N    -6.699032  3.586792  0.960742
H    -1.871209  1.823535  0.409949
H    -2.248491  2.088007  2.117592
H    -4.620445  1.365911  1.682844
H    -4.227105  1.085961  -0.020483
H    -3.489634  3.489216  -0.254925
H    -4.003860  3.825455  1.381531
H    -5.907362  2.816241  -0.839453
H    -5.561086  4.530715  -0.530463
H    -7.594986  3.845700  0.520604
H    -6.503984  4.291116  1.687152
H    -6.841952  2.683978  1.432781
N    -2.815983  -1.493716  -0.326030
C    -4.196819  -1.748619  0.071274
H    -2.500231  -1.965698  -1.173441
H    -4.386604  -2.829150  0.074392
H    -4.900245  -1.279825  -0.629662
H    -4.396753  -1.370203  1.077612
Ba    3.201766  -1.587537  3.534243
