35
Energy: -243352.541581 eV PBE+vdW (tier 2 basis)
C    1.565645  1.322725  1.856274
C    0.992506  1.221081  3.230710
O    1.696493  1.458277  4.252359
H    2.597428  0.949903  1.885660
H    1.623797  2.376473  1.541368
H    0.997800  0.761594  1.107972
N    -0.311666  0.867730  3.407247
C    -1.401004  1.483340  2.647758
C    -1.449667  2.988636  3.062306
O    -0.765612  3.380178  4.061912
H    -0.540587  0.731646  4.393075
H    -1.152343  1.432221  1.576982
C    -2.727522  0.731320  2.912076
C    -2.715624  -0.726874  2.410151
C    -3.925841  -1.561082  2.893895
C    -5.185729  -1.554686  2.024076
N    -5.149469  -2.625141  0.934952
H    -3.553952  1.294210  2.457226
H    -2.921553  0.745953  3.997487
H    -1.801719  -1.217941  2.771334
H    -2.638688  -0.737548  1.309662
H    -4.235220  -1.212874  3.890084
H    -3.611390  -2.603425  3.059283
H    -5.353874  -0.601681  1.507234
H    -6.079878  -1.782131  2.615996
H    -6.004723  -2.602165  0.358732
H    -5.088297  -3.569429  1.345026
H    -4.348173  -2.516243  0.297886
N    -2.175287  3.853289  2.368866
C    -2.971165  3.647990  1.156153
H    -2.167806  4.804594  2.739980
H    -2.836921  4.516464  0.502117
H    -4.037141  3.560085  1.402707
H    -2.638391  2.758362  0.613817
Ba    1.227743  3.491639  5.603422
