35
Energy: -243351.984716 eV PBE+vdW (tier 2 basis)
C    0.500834  0.508055  0.024881
C    0.509010  0.255329  1.501775
O    1.514546  0.384263  2.213109
H    -0.465337  0.318428  -0.455093
H    1.265181  -0.127263  -0.443505
H    0.796062  1.547923  -0.170710
N    -0.681248  -0.166629  2.065885
C    -0.818866  -0.302109  3.512532
C    -1.596549  -1.581040  3.847847
O    -2.172115  -1.742736  4.988874
H    -1.523612  -0.005464  1.516166
H    0.211568  -0.487953  3.871603
C    -1.354074  0.971438  4.205686
C    -0.454239  2.205025  4.005426
C    0.847638  2.214479  4.833890
C    1.921012  3.171647  4.299053
N    2.878633  2.480091  3.339501
H    -1.463636  0.766927  5.281562
H    -2.360383  1.194692  3.819520
H    -1.041514  3.095327  4.269283
H    -0.235795  2.319236  2.933637
H    1.282331  1.205915  4.919880
H    0.617275  2.524391  5.862345
H    2.537958  3.586286  5.103459
H    1.478152  4.013474  3.753095
H    2.391422  1.770332  2.730591
H    3.370155  3.159378  2.744258
H    3.601704  1.963441  3.856713
N    -1.622993  -2.538371  2.942123
C    -2.246059  -3.850429  3.097937
H    -1.133060  -2.331496  2.070372
H    -3.329175  -3.748390  3.249694
H    -1.788359  -4.400963  3.930967
H    -2.086255  -4.424974  2.181237
Ba    -3.398754  -2.362629  6.907545
