35
Energy: -243351.122411 eV PBE+vdW (tier 2 basis)
C    -0.029650  -2.315811  1.556483
C    -0.179993  -0.822634  1.534524
O    0.768285  -0.073861  1.275963
H    0.630240  -2.568024  2.400252
H    0.484332  -2.655268  0.649600
H    -0.970436  -2.862922  1.682214
N    -1.393570  -0.258187  1.890802
C    -2.731269  -0.706742  1.496997
C    -3.313257  -1.778590  2.442977
O    -3.959481  -2.796561  1.972440
H    -1.308214  0.752822  1.970896
H    -3.375482  0.169485  1.684934
C    -2.865945  -1.064972  -0.012976
C    -1.860669  -0.377971  -0.959836
C    -1.826278  1.163873  -1.007227
C    -0.556143  1.713203  -1.670441
N    0.602762  1.881144  -0.695805
H    -3.895373  -0.836178  -0.326484
H    -2.726313  -2.148216  -0.141380
H    -2.086922  -0.740409  -1.973316
H    -0.855683  -0.769246  -0.751102
H    -1.942018  1.626172  -0.013978
H    -2.682015  1.533380  -1.589170
H    -0.202107  1.047853  -2.467423
H    -0.727952  2.699884  -2.114349
H    0.676356  1.111464  0.030501
H    0.516304  2.764859  -0.177141
H    1.500284  1.928060  -1.197414
N    -3.197985  -1.646711  3.751349
C    -2.637416  -0.544510  4.549363
H    -3.594194  -2.412687  4.295018
H    -3.050457  -0.628997  5.559182
H    -2.931352  0.425497  4.135964
H    -1.545440  -0.614138  4.600236
Ba    -5.385318  -4.548308  1.263930
