35
Energy: -243352.234894 eV PBE+vdW (tier 2 basis)
C    0.103175  -0.688856  0.700748
C    0.128850  -0.062944  2.056124
O    1.110997  -0.358463  2.856986
H    0.997770  -0.382498  0.139934
H    -0.780139  -0.431202  0.111503
H    0.144343  -1.781534  0.806871
N    -0.798634  0.774485  2.466160
C    -1.875004  1.435400  1.708025
C    -2.007260  2.799472  2.443565
O    -1.680449  2.845142  3.637966
H    -0.719554  1.233501  3.395473
H    -1.536068  1.591274  0.675318
C    -3.203974  0.636384  1.667506
C    -4.020669  0.479902  2.970102
C    -4.933089  1.672026  3.316820
C    -5.871636  1.460151  4.502905
N    -7.073346  0.576344  4.171659
H    -2.965293  -0.364938  1.281191
H    -3.831373  1.103578  0.893269
H    -3.355018  0.273578  3.822439
H    -4.625787  -0.431759  2.837473
H    -5.517081  1.983211  2.434462
H    -4.324956  2.544665  3.590887
H    -6.299051  2.409904  4.844803
H    -5.371777  0.982981  5.355290
H    -7.683873  0.459172  4.994073
H    -6.794654  -0.364856  3.862781
H    -7.648549  0.990320  3.423603
N    -2.507168  3.816704  1.730236
C    -2.716821  5.161930  2.269140
H    -2.683278  3.675973  0.739629
H    -3.761763  5.465372  2.133164
H    -2.069385  5.881028  1.753192
H    -2.468804  5.153711  3.333731
Ba    3.119521  -0.887946  3.908011
