35
Energy: -243351.748511 eV PBE+vdW (tier 2 basis)
C    0.132408  0.295312  1.107631
C    -0.547632  1.023605  2.215865
O    -0.080111  2.190774  2.544931
H    1.139674  0.009691  1.447622
H    -0.384524  -0.601167  0.770613
H    0.257459  0.972326  0.252885
N    -1.579286  0.562406  2.913413
C    -2.495219  -0.620220  2.870587
C    -2.505421  -1.423789  4.201336
O    -3.620146  -1.708487  4.670449
H    -1.866166  1.217224  3.643770
H    -3.487591  -0.149399  2.879891
C    -2.442770  -1.564923  1.654358
C    -3.491326  -2.694399  1.728981
C    -4.974363  -2.270164  1.639437
C    -5.920929  -3.241227  2.343815
N    -5.959632  -2.985164  3.846293
H    -1.461279  -2.050921  1.580471
H    -2.596759  -0.975453  0.737935
H    -3.309926  -3.282044  2.641161
H    -3.275837  -3.384333  0.902177
H    -5.280259  -2.221094  0.585871
H    -5.146098  -1.257114  2.036613
H    -5.607705  -4.283099  2.205419
H    -6.950831  -3.149598  1.982294
H    -6.662899  -2.271453  4.075034
H    -5.040078  -2.618647  4.203926
H    -6.213837  -3.831848  4.370750
N    -1.367381  -1.831971  4.785155
C    0.017232  -1.706698  4.339261
H    -1.526122  -2.350440  5.648895
H    0.605047  -2.489270  4.829136
H    0.451920  -0.736001  4.616115
H    0.106714  -1.863622  3.258892
Ba    1.024117  4.275960  2.638540
