35
Energy: -243351.737297 eV PBE+vdW (tier 2 basis)
C    -0.755845  -0.007331  0.202858
C    -0.502808  0.335506  1.647732
O    0.572078  0.766845  2.060394
H    -0.226266  0.711696  -0.431034
H    -1.817053  -0.025350  -0.072095
H    -0.333436  -1.000915  -0.007779
N    -1.580095  0.114026  2.496385
C    -1.616085  0.164271  3.955401
C    -2.403607  1.383417  4.481454
O    -3.390622  1.162922  5.302527
H    -2.405123  -0.280770  2.056269
H    -2.236756  -0.688338  4.273001
C    -0.255649  0.021100  4.692751
C    0.423350  -1.334621  4.418025
C    1.925842  -1.389844  4.769590
C    2.817937  -0.771970  3.693748
N    4.292978  -0.982131  4.019900
H    -0.463195  0.111013  5.770631
H    0.400432  0.852276  4.419934
H    0.297098  -1.616729  3.363806
H    -0.085186  -2.115297  5.000723
H    2.199990  -2.449126  4.894386
H    2.107374  -0.903542  5.741821
H    2.678613  0.307993  3.574361
H    2.658248  -1.236394  2.713437
H    4.899169  -0.575437  3.292391
H    4.527078  -1.983669  4.088205
H    4.555068  -0.547097  4.916101
N    -2.137725  2.626175  4.142216
C    -1.106765  3.176136  3.254608
H    -2.764323  3.321684  4.548383
H    -0.324678  2.442115  3.044537
H    -1.571578  3.493243  2.311965
H    -0.670481  4.053672  3.744951
Ba    -5.262592  0.840008  6.676379
