35
Energy: -243351.796810 eV PBE+vdW (tier 2 basis)
C    -0.562774  -1.548133  1.684261
C    0.040122  -0.230375  2.058174
O    1.220847  -0.182771  2.581851
H    0.128429  -2.361778  1.917460
H    -0.796680  -1.594032  0.610786
H    -1.501422  -1.722932  2.229309
N    -0.625893  0.903244  1.855936
C    -2.009523  1.051712  1.349424
C    -2.123861  2.129570  0.228094
O    -3.161916  2.798728  0.127818
H    -0.160915  1.755133  2.173951
H    -2.273654  0.099225  0.869034
C    -3.027552  1.317442  2.471359
C    -2.865512  2.647880  3.239050
C    -4.197174  3.256905  3.734115
C    -4.852864  4.292363  2.822857
N    -5.338885  3.733300  1.499119
H    -3.004688  0.471373  3.172939
H    -4.010337  1.255139  1.986216
H    -2.345504  3.395312  2.618927
H    -2.222138  2.479906  4.113202
H    -4.019762  3.790826  4.678219
H    -4.915255  2.461089  3.989215
H    -4.155061  5.100136  2.568147
H    -5.723487  4.740865  3.315945
H    -5.754817  4.476898  0.922689
H    -6.068034  3.022323  1.637726
H    -4.540768  3.306415  0.950975
N    -1.095345  2.258794  -0.621072
C    -1.128167  3.164472  -1.775319
H    -0.323761  1.603838  -0.559753
H    -0.102912  3.355567  -2.104020
H    -1.598946  4.107828  -1.483762
H    -1.700572  2.723261  -2.601256
Ba    3.335546  -0.716136  3.518323
