35
Energy: -243352.019092 eV PBE+vdW (tier 2 basis)
C    -0.469977  -0.974894  1.356874
C    -0.607267  -0.036523  2.505163
O    0.335834  0.003813  3.399393
H    0.220739  -0.535171  0.620258
H    -1.431292  -1.198933  0.883083
H    -0.024715  -1.913214  1.708286
N    -1.637222  0.786168  2.665776
C    -2.879773  1.020632  1.861950
C    -3.791926  -0.238246  1.917418
O    -3.535641  -1.207820  1.205192
H    -1.565471  1.368540  3.499218
H    -3.361966  1.854548  2.391535
C    -2.576063  1.469841  0.420925
C    -3.766929  2.050123  -0.375148
C    -4.796707  1.023965  -0.895423
C    -5.496831  1.401852  -2.196712
N    -6.433338  2.603104  -2.067208
H    -2.156821  0.626374  -0.143275
H    -1.798727  2.245151  0.475584
H    -3.314863  2.565415  -1.237536
H    -4.259297  2.836224  0.221249
H    -5.544711  0.771702  -0.127605
H    -4.290154  0.072843  -1.118255
H    -6.124221  0.580447  -2.562661
H    -4.782995  1.668213  -2.986730
H    -6.887886  2.813416  -2.968375
H    -5.934007  3.453744  -1.773389
H    -7.182506  2.426999  -1.382863
N    -4.844217  -0.154234  2.759573
C    -5.797921  -1.245859  2.956751
H    -4.958914  0.680348  3.325246
H    -5.665138  -1.703502  3.945262
H    -5.622196  -2.002173  2.186719
H    -6.823386  -0.867290  2.877931
Ba    2.246088  -0.404563  4.687217
