35
Energy: -243352.287236 eV PBE+vdW (tier 2 basis)
C    -0.702791  -1.314429  1.852372
C    0.016613  -0.017978  1.682202
O    1.314375  -0.006409  1.793268
H    -1.790249  -1.219743  1.798698
H    -0.434557  -1.753799  2.822725
H    -0.373816  -2.020483  1.076566
N    -0.604015  1.110165  1.423934
C    -1.982051  1.363564  0.976614
C    -1.777563  2.595347  0.029775
O    -0.723265  3.238031  0.139541
H    -0.055858  1.977365  1.209750
H    -2.340221  0.501282  0.398210
C    -2.997780  1.665585  2.108224
C    -2.733600  2.951622  2.912794
C    -3.972915  3.562873  3.601138
C    -4.544753  2.734323  4.748594
N    -5.696000  3.470404  5.425891
H    -3.051678  0.786087  2.768125
H    -3.981264  1.731711  1.616840
H    -2.346352  3.731936  2.242630
H    -1.941566  2.781974  3.657869
H    -4.755920  3.738151  2.845188
H    -3.682035  4.552835  3.986671
H    -3.802941  2.548697  5.535678
H    -4.957211  1.771451  4.423076
H    -6.465466  3.661621  4.767281
H    -5.390905  4.378572  5.806836
H    -6.089814  2.926359  6.207848
N    -2.778417  2.886679  -0.807101
C    -2.746077  4.009916  -1.748350
H    -3.561935  2.243858  -0.873827
H    -1.924370  4.675113  -1.471373
H    -3.694451  4.556273  -1.702874
H    -2.589325  3.647540  -2.771898
Ba    3.625643  -0.205724  1.693275
