35
Energy: -243352.000183 eV PBE+vdW (tier 2 basis)
C    0.323338  -1.455353  -0.355851
C    0.214039  -1.280799  1.127191
O    1.125167  -1.781648  1.898388
H    0.332240  -2.526680  -0.602402
H    1.265411  -1.016755  -0.713995
H    -0.502208  -0.990516  -0.904450
N    -0.821827  -0.615510  1.602970
C    -1.202370  -0.351383  2.995326
C    -2.745012  -0.258254  2.961116
O    -3.268235  0.242624  1.939061
H    -1.540286  -0.292216  0.944459
H    -0.855769  -1.194591  3.604170
C    -0.602461  0.976403  3.566015
C    -1.414606  2.266318  3.362592
C    -1.430405  2.882450  1.946264
C    -2.657768  3.755867  1.686823
N    -3.874568  2.913156  1.304246
H    0.414336  1.090259  3.161625
H    -0.483885  0.824969  4.647778
H    -1.007209  3.017201  4.054232
H    -2.441732  2.094267  3.721861
H    -1.361802  2.119718  1.156316
H    -0.545353  3.519700  1.813406
H    -2.498387  4.463816  0.866565
H    -2.936272  4.332367  2.577095
H    -4.751706  3.339214  1.629410
H    -3.951047  2.826837  0.282991
H    -3.804013  1.932553  1.677417
N    -3.447243  -0.647115  4.024147
C    -2.967195  -1.271367  5.260865
H    -4.456531  -0.545705  3.919367
H    -3.784925  -1.256664  5.987266
H    -2.132196  -0.710281  5.695310
H    -2.679992  -2.318210  5.096043
Ba    3.069283  -3.021752  2.424891
