35
Energy: -243352.401317 eV PBE+vdW (tier 2 basis)
C    -0.132126  0.483094  0.061623
C    -0.351399  -0.055512  1.433592
O    0.595873  -0.568459  2.093165
H    0.183430  -0.363850  -0.569321
H    0.701591  1.196936  0.046747
H    -1.022435  0.929175  -0.389810
N    -1.593864  -0.030596  1.995252
C    -2.429657  1.176414  2.044316
C    -1.570629  2.283255  2.723314
O    -0.647441  1.929755  3.526725
H    -1.630926  -0.571833  2.860529
H    -2.692525  1.477112  1.021859
C    -3.705949  0.814699  2.854243
C    -4.868586  1.825736  2.883877
C    -5.889116  1.758824  1.720252
C    -6.977286  0.711101  1.970105
N    -8.084956  0.772275  0.925172
H    -3.390824  0.619438  3.891062
H    -4.048693  -0.152308  2.455564
H    -4.485449  2.850844  2.952939
H    -5.408497  1.679361  3.830497
H    -5.385746  1.561257  0.759820
H    -6.365411  2.746983  1.628254
H    -7.473427  0.873763  2.935226
H    -6.598987  -0.318388  1.947748
H    -8.817680  0.071711  1.117417
H    -7.735301  0.592271  -0.027308
H    -8.545700  1.694913  0.913056
N    -1.768395  3.569486  2.466068
C    -2.653960  4.227722  1.501933
H    -1.163298  4.196898  2.999525
H    -3.381693  4.857474  2.028475
H    -3.184103  3.495278  0.889236
H    -2.052798  4.867765  0.844593
Ba    1.396114  0.579144  4.149029
