35
Energy: -243351.882475 eV PBE+vdW (tier 2 basis)
C    -0.492878  0.894888  0.850583
C    -0.009100  -0.049017  1.901060
O    1.209756  0.032001  2.326595
H    -0.353749  0.441546  -0.143082
H    0.083617  1.824275  0.880873
H    -1.556904  1.132984  0.955275
N    -0.807343  -0.985501  2.399293
C    -2.254674  -1.189190  2.119612
C    -2.923663  -2.057109  3.210601
O    -4.076683  -1.778789  3.559046
H    -0.402924  -1.551456  3.146376
H    -2.735870  -0.206937  2.216573
C    -2.559705  -1.795232  0.712057
C    -3.686806  -1.091977  -0.072956
C    -5.044663  -0.912071  0.628591
C    -5.787072  -2.216840  0.948777
N    -6.536577  -2.082785  2.258261
H    -2.776531  -2.867096  0.827928
H    -1.648076  -1.758708  0.100346
H    -3.823318  -1.645105  -1.013936
H    -3.346023  -0.090379  -0.374950
H    -5.678545  -0.283033  -0.010622
H    -4.900879  -0.344454  1.560665
H    -5.111069  -3.068370  1.089782
H    -6.513109  -2.488162  0.174411
H    -7.194035  -1.291357  2.244306
H    -5.828860  -1.925144  3.010726
H    -7.079620  -2.927630  2.481129
N    -2.231305  -3.103938  3.706098
C    -2.799573  -4.013845  4.709038
H    -1.410510  -3.437593  3.208820
H    -3.449861  -4.765140  4.241664
H    -3.381981  -3.432921  5.429919
H    -1.982414  -4.522763  5.228535
Ba    3.447566  0.649000  2.781798
