35
Energy: -243352.989407 eV PBE+vdW (tier 2 basis)
C    1.711723  2.879979  1.359641
C    1.044674  1.936671  2.309469
O    1.653450  0.910630  2.731772
H    1.101766  3.749952  1.095063
H    1.965209  2.330395  0.441373
H    2.660284  3.226087  1.791443
N    -0.214311  2.225029  2.689896
C    -1.177026  1.438282  3.495321
C    -0.673225  1.197293  4.939296
O    0.237698  0.357946  5.196985
H    -0.591759  3.084104  2.298546
H    -2.048779  2.103448  3.571134
C    -1.646879  0.147146  2.784591
C    -2.945222  -0.438033  3.372773
C    -3.427658  -1.722212  2.659188
C    -4.255921  -1.549889  1.382190
N    -5.747826  -1.385306  1.664646
H    -0.847936  -0.607429  2.820573
H    -1.782816  0.402881  1.723247
H    -3.734545  0.333499  3.363029
H    -2.791048  -0.684224  4.433535
H    -3.987354  -2.351863  3.368395
H    -2.556749  -2.333620  2.381440
H    -4.184971  -2.435539  0.740237
H    -3.962336  -0.676226  0.787102
H    -5.952556  -0.572030  2.261607
H    -6.131898  -2.217304  2.137752
H    -6.281379  -1.263777  0.790038
N    -1.266816  1.899860  5.896024
C    -0.951153  1.815229  7.324789
H    -1.971346  2.580405  5.622895
H    -1.860167  2.019909  7.898918
H    -0.188896  2.558591  7.593447
H    -0.588285  0.811306  7.561098
Ba    2.484050  -0.454191  4.551550
