35
Energy: -243352.052630 eV PBE+vdW (tier 2 basis)
C    -0.072498  -1.139282  2.748172
C    0.135248  -0.223324  1.588634
O    1.322983  -0.081392  1.096847
H    0.850901  -1.225791  3.329128
H    -0.344634  -2.137490  2.370903
H    -0.874645  -0.806620  3.415692
N    -0.872840  0.455061  1.058506
C    -2.296109  0.135408  1.260974
C    -2.539724  -1.265758  0.599956
O    -1.686990  -1.715604  -0.167416
H    -0.639077  0.979756  0.216733
H    -2.468890  0.073857  2.343941
C    -3.223154  1.243231  0.711453
C    -3.299427  1.367415  -0.822546
C    -4.576331  2.055638  -1.352985
C    -4.693368  3.538231  -1.006115
N    -5.926065  4.153396  -1.659396
H    -2.929846  2.195236  1.179636
H    -4.225139  1.016942  1.102810
H    -3.280180  0.366001  -1.275515
H    -2.417693  1.893744  -1.222667
H    -5.459261  1.515746  -0.973553
H    -4.585149  1.941559  -2.448365
H    -3.837916  4.119034  -1.373792
H    -4.803055  3.722665  0.069527
H    -6.014593  5.155947  -1.436216
H    -6.793437  3.692550  -1.346792
H    -5.891639  4.069660  -2.686408
N    -3.682078  -1.915579  0.902108
C    -4.732216  -1.578331  1.859482
H    -3.785512  -2.794534  0.396932
H    -5.563651  -1.037120  1.386328
H    -4.340596  -0.982344  2.691528
H    -5.131675  -2.505441  2.284166
Ba    3.504728  -0.593935  0.437465
