35
Energy: -243351.742669 eV PBE+vdW (tier 2 basis)
C    1.303146  0.058664  0.994255
C    0.573570  0.117415  2.291565
O    1.256452  0.288519  3.386003
H    1.659521  -0.971303  0.832199
H    2.180186  0.712912  1.040472
H    0.683374  0.324774  0.132489
N    -0.740081  -0.022021  2.404641
C    -1.839239  -0.285365  1.426328
C    -1.373407  -1.007058  0.135386
O    -1.194101  -0.370858  -0.903648
H    -1.072082  0.046265  3.368040
H    -2.491114  -0.981220  1.974824
C    -2.701624  0.966852  1.149647
C    -2.065319  2.181625  0.430225
C    -2.526243  2.430623  -1.021801
C    -3.955088  2.958298  -1.120466
N    -4.334585  3.225434  -2.572432
H    -3.112710  1.287711  2.117929
H    -3.569334  0.587813  0.589238
H    -0.973215  2.080317  0.399526
H    -2.258499  3.085931  1.025734
H    -2.413257  1.497919  -1.593735
H    -1.844628  3.169905  -1.471506
H    -4.086975  3.912935  -0.595396
H    -4.705093  2.251728  -0.743518
H    -4.268348  2.370701  -3.144120
H    -3.711583  3.925807  -3.000708
H    -5.298665  3.580110  -2.655799
N    -1.190733  -2.344780  0.217320
C    -1.505309  -3.250748  1.321732
H    -0.952933  -2.770113  -0.677750
H    -2.588126  -3.344859  1.485784
H    -1.019043  -2.938312  2.254930
H    -1.120239  -4.243265  1.069190
Ba    2.902390  0.493968  5.041184
