35
Energy: -243352.397141 eV PBE+vdW (tier 2 basis)
C    0.047392  -0.679763  -0.912072
C    -0.006905  0.260892  0.250006
O    0.927376  1.085392  0.458331
H    0.884205  -0.405947  -1.560782
H    -0.881703  -0.651043  -1.493553
H    0.194320  -1.718274  -0.576379
N    -1.065006  0.246746  1.107605
C    -1.648980  -0.984003  1.660290
C    -0.475477  -1.810762  2.286329
O    0.654210  -1.264095  2.469945
H    -1.032231  1.022312  1.767971
H    -2.240265  -0.638827  2.523672
C    -2.622798  -1.736567  0.705762
C    -3.901204  -2.270745  1.388412
C    -4.813087  -3.086544  0.441735
C    -5.811812  -2.306497  -0.419299
N    -7.144994  -2.075379  0.289024
H    -2.103466  -2.560476  0.194570
H    -2.904134  -1.020206  -0.078023
H    -3.643702  -2.922795  2.237600
H    -4.450827  -1.428088  1.840579
H    -4.189647  -3.667344  -0.253610
H    -5.356913  -3.849907  1.019672
H    -6.066617  -2.860103  -1.330374
H    -5.450470  -1.313966  -0.715954
H    -7.798126  -1.547691  -0.310429
H    -7.043447  -1.547814  1.167254
H    -7.604418  -2.969560  0.519388
N    -0.702954  -3.061284  2.652791
C    0.279078  -3.922074  3.325227
H    -1.623790  -3.453319  2.482389
H    -0.201171  -4.874929  3.561804
H    0.621722  -3.453001  4.254701
H    1.137414  -4.108561  2.669013
Ba    2.503340  0.456851  2.266175
