35
Energy: -243352.041914 eV PBE+vdW (tier 2 basis)
C    0.976705  1.053428  1.051413
C    0.283538  -0.161157  1.580845
O    0.993532  -1.129033  2.069909
H    1.925916  0.766905  0.585387
H    1.207977  1.731566  1.888641
H    0.386174  1.612880  0.320459
N    -1.034723  -0.255596  1.581809
C    -2.008213  0.785846  1.196323
C    -3.265315  0.492922  2.039697
O    -3.565568  -0.704410  2.257794
H    -1.476890  -1.091113  1.983112
H    -1.580514  1.754486  1.476949
C    -2.358030  0.818858  -0.330572
C    -3.601755  0.046656  -0.798248
C    -3.482100  -1.489877  -0.797815
C    -4.810361  -2.232815  -0.710361
N    -5.507938  -1.983134  0.632177
H    -1.471777  0.486273  -0.891190
H    -2.498264  1.875879  -0.594124
H    -3.831682  0.383190  -1.818889
H    -4.463091  0.381925  -0.197594
H    -2.839424  -1.843220  0.021141
H    -2.996494  -1.823150  -1.726195
H    -4.660130  -3.314899  -0.786898
H    -5.513706  -1.933806  -1.496431
H    -5.929537  -2.845299  0.999059
H    -6.271515  -1.303322  0.538166
H    -4.834329  -1.603107  1.346902
N    -4.004065  1.522003  2.456698
C    -3.752546  2.958544  2.280971
H    -4.816893  1.259357  3.012719
H    -4.600270  3.503297  2.705716
H    -3.680823  3.228239  1.220818
H    -2.848281  3.276494  2.815495
Ba    2.748704  -2.430826  2.944834
