35
Energy: -243351.023538 eV PBE+vdW (tier 2 basis)
C    0.216180  0.322853  0.327402
C    0.193537  0.825766  1.745861
O    1.113340  1.499929  2.208540
H    0.822867  0.989040  -0.293486
H    -0.772094  0.191038  -0.126128
H    0.721817  -0.656641  0.329769
N    -0.825294  0.395543  2.620465
C    -2.268132  0.616360  2.434998
C    -2.929106  -0.450583  1.551040
O    -4.132884  -0.307317  1.114681
H    -0.541284  0.626112  3.574758
H    -2.705470  0.356420  3.417356
C    -2.652053  2.107663  2.223498
C    -1.939759  2.912783  1.115846
C    -1.584088  4.363076  1.508446
C    -0.528741  4.591599  2.593966
N    0.893028  4.259368  2.171937
H    -2.455987  2.575350  3.199396
H    -3.742308  2.177608  2.101655
H    -2.575247  2.959836  0.221156
H    -1.030922  2.404902  0.774083
H    -2.488838  4.877194  1.867577
H    -1.291874  4.915245  0.601507
H    -0.523881  5.650653  2.877327
H    -0.710482  4.008906  3.505913
H    1.564845  4.629389  2.859203
H    1.131301  4.685493  1.266334
H    1.061014  3.221815  2.117193
N    -2.263983  -1.571629  1.370858
C    -2.751029  -2.764891  0.685049
H    -1.339924  -1.593883  1.810169
H    -1.922197  -3.470068  0.575318
H    -3.117298  -2.508730  -0.317450
H    -3.540060  -3.257669  1.270721
Ba    -6.400770  -0.562850  0.476768
