35
Energy: -243351.714854 eV PBE+vdW (tier 2 basis)
C    0.304882  -0.585788  0.915390
C    0.162062  -0.487535  2.397888
O    1.148309  -0.891352  3.146330
H    0.537770  -1.623898  0.641745
H    1.152334  0.032841  0.587418
H    -0.588101  -0.272289  0.368883
N    -0.914950  -0.010443  2.978554
C    -2.056527  0.729092  2.417288
C    -2.428320  1.672142  3.606275
O    -2.018177  1.355548  4.733178
H    -0.945432  0.126606  4.016426
H    -1.718227  1.311832  1.551450
C    -3.250967  -0.163396  1.988624
C    -3.972578  -0.888571  3.135800
C    -5.147138  -1.795020  2.705351
C    -6.404489  -1.026438  2.301189
N    -7.573256  -1.973747  2.054533
H    -2.883599  -0.895597  1.252726
H    -3.943238  0.492336  1.440373
H    -4.329684  -0.163050  3.882883
H    -3.256256  -1.528543  3.670166
H    -5.391402  -2.446512  3.559065
H    -4.832194  -2.457176  1.882573
H    -6.283754  -0.456317  1.372212
H    -6.737271  -0.341325  3.091223
H    -7.369624  -2.644773  1.299337
H    -8.427101  -1.461300  1.787374
H    -7.797681  -2.522890  2.897704
N    -3.188803  2.751062  3.375082
C    -3.678210  3.290279  2.108888
H    -3.400924  3.283975  4.217892
H    -4.711072  2.975659  1.904494
H    -3.037469  2.988889  1.273469
H    -3.658476  4.384150  2.159252
Ba    3.098486  -1.377954  4.309692
