35
Energy: -243352.001218 eV PBE+vdW (tier 2 basis)
C    0.723450  -0.455200  2.716155
C    -0.199650  0.708657  2.831106
O    0.287056  1.874908  3.118570
H    1.330777  -0.523861  3.628975
H    1.413464  -0.279852  1.877919
H    0.212776  -1.409111  2.562403
N    -1.510423  0.601509  2.651779
C    -2.355276  -0.553268  2.224567
C    -2.218946  -1.794484  3.159095
O    -1.668640  -2.830881  2.741771
H    -2.018751  1.480180  2.750676
H    -3.378238  -0.167806  2.341803
C    -2.154696  -0.958106  0.758497
C    -3.370004  -1.758941  0.232464
C    -3.048401  -2.823774  -0.840671
C    -3.021878  -4.267327  -0.349614
N    -1.856572  -4.571678  0.578317
H    -1.227531  -1.541765  0.676393
H    -2.015878  -0.054311  0.150248
H    -4.096962  -1.047381  -0.179245
H    -3.893428  -2.248779  1.069348
H    -2.116500  -2.581664  -1.376046
H    -3.829470  -2.803312  -1.613279
H    -2.942130  -4.969131  -1.188337
H    -3.930820  -4.514830  0.213316
H    -0.963733  -4.518103  0.072280
H    -1.930095  -5.527423  0.951806
H    -1.807583  -3.907124  1.395314
N    -2.723814  -1.709704  4.396603
C    -3.460677  -0.605162  5.010662
H    -2.616563  -2.561536  4.946412
H    -3.852418  -0.950315  5.971713
H    -4.317679  -0.299313  4.396363
H    -2.812759  0.260083  5.203953
Ba    1.586163  3.789901  3.593685
