35
Energy: -243352.098663 eV PBE+vdW (tier 2 basis)
C    1.057666  0.047809  0.939993
C    0.241937  -0.861899  1.798219
O    0.619511  -2.080309  2.004251
H    2.069558  -0.347878  0.817969
H    1.118917  1.062685  1.351561
H    0.599428  0.128034  -0.059173
N    -0.890015  -0.429388  2.347274
C    -1.564097  0.867904  2.096259
C    -1.015407  2.065532  2.909670
O    -1.220955  3.205073  2.465838
H    -1.415769  -1.116801  2.889824
H    -1.385496  1.137027  1.046617
C    -3.088108  0.671856  2.290056
C    -3.946318  1.884606  1.872443
C    -4.339853  2.849711  3.012753
C    -4.623376  4.269399  2.530137
N    -3.323410  5.038937  2.294522
H    -3.296963  0.397252  3.337133
H    -3.375019  -0.191162  1.671990
H    -4.869149  1.506173  1.414195
H    -3.424596  2.423147  1.066751
H    -3.578760  2.882560  3.807405
H    -5.253099  2.483982  3.501544
H    -5.204348  4.845987  3.257606
H    -5.174105  4.272919  1.582036
H    -3.392602  5.679210  1.494166
H    -2.516933  4.383356  2.150667
H    -3.086371  5.610994  3.114180
N    -0.359318  1.818223  4.053101
C    0.165666  2.870774  4.926151
H    -0.279186  0.858675  4.371118
H    0.406891  3.748781  4.320146
H    1.073787  2.511035  5.419694
H    -0.569153  3.149941  5.692670
Ba    1.639355  -4.217969  1.926763
