35
Energy: -243351.853949 eV PBE+vdW (tier 2 basis)
C    0.433844  0.433988  1.605612
C    0.075931  -1.013557  1.521445
O    1.006499  -1.912690  1.536616
H    0.548830  0.840452  0.587432
H    1.390292  0.554913  2.123337
H    -0.325633  1.035905  2.116171
N    -1.189903  -1.394711  1.407109
C    -2.377071  -0.518933  1.239033
C    -2.890894  0.135910  2.547301
O    -3.203335  1.337459  2.487062
H    -1.349691  -2.400564  1.341663
H    -2.063391  0.330811  0.620413
C    -3.484534  -1.296757  0.480439
C    -4.522236  -0.456220  -0.289629
C    -5.527521  0.382084  0.541748
C    -5.337664  1.899670  0.378477
N    -5.522788  2.626589  1.693375
H    -4.001306  -1.983803  1.167891
H    -2.976993  -1.926507  -0.266793
H    -5.085544  -1.170423  -0.903175
H    -3.999426  0.188453  -1.012660
H    -5.455117  0.108738  1.604778
H    -6.550272  0.119377  0.245383
H    -6.043430  2.332160  -0.339398
H    -4.321328  2.152296  0.057687
H    -5.442182  3.646081  1.579676
H    -4.764345  2.300988  2.334766
H    -6.440798  2.437128  2.116602
N    -3.028109  -0.578667  3.678889
C    -2.789628  -1.995615  3.944116
H    -3.358342  -0.020340  4.464921
H    -3.352710  -2.274013  4.840468
H    -1.728107  -2.204883  4.135441
H    -3.155524  -2.629107  3.128010
Ba    3.039231  -3.116704  1.449978
