35
Energy: -243351.976569 eV PBE+vdW (tier 2 basis)
C    -1.249360  1.772466  -0.249444
C    -0.627366  1.001527  0.870476
O    0.596976  1.230707  1.214157
H    -1.257323  1.162254  -1.167128
H    -0.670428  2.677728  -0.452605
H    -2.286588  2.058133  -0.036617
N    -1.323550  0.071179  1.520373
C    -2.657878  -0.459666  1.159520
C    -3.850972  0.135207  1.946228
O    -4.973687  -0.338409  1.716627
H    -0.821033  -0.429535  2.255520
H    -2.845015  -0.162737  0.118749
C    -2.651131  -2.005735  1.182094
C    -2.579556  -2.730514  2.540442
C    -3.873163  -2.918415  3.363779
C    -5.013399  -3.661515  2.643437
N    -6.142818  -2.729668  2.245351
H    -1.801722  -2.327042  0.562075
H    -3.538501  -2.321138  0.616615
H    -1.833815  -2.257958  3.202684
H    -2.168351  -3.730453  2.339510
H    -4.243468  -1.962045  3.760949
H    -3.602821  -3.505907  4.250721
H    -5.456754  -4.435836  3.278179
H    -4.673362  -4.151134  1.722660
H    -5.757957  -1.819826  1.872323
H    -6.762723  -3.158745  1.546341
H    -6.727434  -2.494800  3.057809
N    -3.635479  1.157805  2.783428
C    -4.704570  1.837664  3.521476
H    -2.683390  1.469965  2.935062
H    -4.481748  2.908044  3.575449
H    -4.792573  1.438003  4.539932
H    -5.649437  1.691407  2.991116
Ba    2.861741  1.942613  1.275815
