35
Energy: -243352.486030 eV PBE+vdW (tier 2 basis)
C    -0.097369  1.240562  -0.676451
C    -0.005624  0.357915  0.523829
O    1.097527  0.158368  1.105317
H    0.798999  1.081532  -1.289562
H    -0.085058  2.299884  -0.375042
H    -0.989526  1.056764  -1.282882
N    -1.120877  -0.250761  1.016659
C    -2.374953  0.470445  1.238787
C    -2.092295  1.550618  2.331131
O    -1.001975  1.500228  2.985719
H    -0.898944  -0.905717  1.768227
H    -2.652965  0.986474  0.307369
C    -3.486646  -0.524111  1.656891
C    -3.831336  -1.582191  0.584005
C    -4.850720  -1.143833  -0.492922
C    -6.323028  -1.435322  -0.191236
N    -6.702041  -2.887506  -0.471244
H    -4.383220  0.039863  1.948967
H    -3.152685  -1.032473  2.574849
H    -4.192647  -2.478858  1.111410
H    -2.905413  -1.905068  0.088439
H    -4.589988  -1.589725  -1.465357
H    -4.786620  -0.059181  -0.667891
H    -6.987887  -0.838027  -0.826138
H    -6.591504  -1.250591  0.856776
H    -7.695602  -3.060625  -0.253994
H    -6.149500  -3.555963  0.084273
H    -6.564743  -3.126165  -1.465061
N    -2.967854  2.517233  2.564465
C    -4.238747  2.809604  1.897845
H    -2.708642  3.148825  3.323873
H    -4.341856  3.896588  1.809392
H    -5.083163  2.427289  2.485954
H    -4.260380  2.383226  0.890790
Ba    1.465794  1.130224  3.364284
