35
Energy: -243352.017743 eV PBE+vdW (tier 2 basis)
C    0.628135  0.306115  0.894282
C    0.234674  -0.389259  2.152922
O    1.177492  -0.928263  2.861873
H    -0.215901  0.600476  0.271888
H    1.280799  -0.342188  0.300572
H    1.196108  1.208299  1.173255
N    -0.983955  -0.319132  2.705489
C    -2.279938  -0.381688  2.003812
C    -2.103702  -1.371952  0.797380
O    -1.013463  -1.919108  0.609719
H    -1.007993  -0.732295  3.636043
H    -2.925664  -0.916393  2.717663
C    -3.015810  0.962853  1.763503
C    -2.477269  1.936911  0.707804
C    -3.260942  3.266371  0.600192
C    -4.641546  3.142941  -0.042744
N    -5.279029  4.514922  -0.229991
H    -3.064713  1.470392  2.739103
H    -4.059127  0.693050  1.534616
H    -2.433573  1.454100  -0.281510
H    -1.448274  2.220621  0.964457
H    -2.652496  3.960075  -0.000969
H    -3.355867  3.717282  1.601385
H    -5.352006  2.567773  0.563175
H    -4.592870  2.695976  -1.043887
H    -4.703911  5.120343  -0.834793
H    -5.397177  5.006950  0.668171
H    -6.211032  4.444866  -0.665454
N    -3.197402  -1.595696  0.051837
C    -3.227036  -2.587320  -1.027783
H    -4.084444  -1.205536  0.350685
H    -3.419226  -3.594083  -0.634651
H    -2.262263  -2.585943  -1.543073
H    -4.018829  -2.320163  -1.733914
Ba    2.998684  -2.228807  3.498817
