35
Energy: -243351.942278 eV PBE+vdW (tier 2 basis)
C    -2.569859  0.471335  0.424315
C    -1.952609  0.345748  1.785354
O    -0.835382  0.832540  2.046491
H    -2.854375  1.521156  0.263630
H    -3.450691  -0.161257  0.270410
H    -1.812208  0.237845  -0.333302
N    -2.688983  -0.306173  2.736586
C    -2.301659  -0.652519  4.114094
C    -1.945070  0.562264  4.993177
O    -2.496677  0.669238  6.166211
H    -3.603313  -0.640118  2.448465
H    -3.225725  -1.035199  4.565521
C    -1.283879  -1.829949  4.233058
C    0.141375  -1.667109  3.677233
C    1.010498  -2.925362  3.910920
C    0.922223  -4.030825  2.858285
N    1.830179  -3.760549  1.660210
H    -1.782377  -2.688321  3.756375
H    -1.218868  -2.084456  5.303939
H    0.640048  -0.819935  4.167237
H    0.109310  -1.401032  2.610535
H    0.741990  -3.390608  4.870927
H    2.065260  -2.632933  4.034286
H    -0.087567  -4.161683  2.449543
H    1.255019  -4.995508  3.258540
H    1.746326  -4.503723  0.950438
H    2.819982  -3.725114  1.946295
H    1.613179  -2.866561  1.198165
N    -1.091628  1.444595  4.547786
C    -0.679263  2.647631  5.259256
H    -0.784495  1.271003  3.531615
H    0.068704  3.169691  4.655918
H    -0.227574  2.394832  6.228248
H    -1.530243  3.328655  5.406655
Ba    -3.514470  1.312920  8.163929
