35
Energy: -243351.282219 eV PBE+vdW (tier 2 basis)
C    0.272315  0.038910  -0.207106
C    0.359459  0.235907  1.279667
O    1.234511  -0.291205  1.971359
H    1.269046  -0.210064  -0.584975
H    -0.117280  0.910056  -0.746443
H    -0.383544  -0.816206  -0.434727
N    -0.579364  1.047007  1.908300
C    -1.984249  1.164145  1.502503
C    -2.492149  2.525382  2.008485
O    -2.019484  3.611897  1.504907
H    -0.428234  1.041180  2.917557
H    -2.003964  1.265570  0.407347
C    -2.849328  -0.075976  1.882387
C    -2.491784  -0.792473  3.208720
C    -1.458846  -1.935582  3.024893
C    -0.448920  -2.067496  4.173306
N    0.892399  -2.546847  3.654556
H    -2.748138  -0.794628  1.057039
H    -3.914800  0.199147  1.852599
H    -3.410159  -1.205474  3.644063
H    -2.118988  -0.071684  3.956481
H    -0.902163  -1.769442  2.093801
H    -1.989058  -2.886821  2.883123
H    -0.241135  -1.101533  4.649842
H    -0.774192  -2.766400  4.952142
H    1.575214  -2.661407  4.416542
H    0.820563  -3.454143  3.173885
H    1.261458  -1.833689  2.982406
N    -3.405288  2.568781  2.957228
C    -3.989880  3.782278  3.532297
H    -3.764553  1.677606  3.292928
H    -4.658843  3.494051  4.347772
H    -4.576816  4.320917  2.776872
H    -3.203690  4.429977  3.939235
Ba    -1.259250  5.639709  0.564618
