35
Energy: -243352.817414 eV PBE+vdW (tier 2 basis)
C    0.736257  1.987880  1.718465
C    -0.140710  0.824173  2.072521
O    -0.296796  -0.122528  1.249518
H    0.774950  2.769860  2.483998
H    0.378909  2.424901  0.775908
H    1.757821  1.629460  1.530626
N    -0.718847  0.852657  3.289404
C    -1.699413  -0.004348  3.993406
C    -1.377180  -1.508585  4.051351
O    -1.047561  -2.195904  3.037856
H    -0.469066  1.676575  3.830742
H    -1.606686  0.340475  5.030622
C    -3.186085  0.292772  3.630904
C    -3.664194  0.032831  2.196294
C    -5.188232  0.225599  1.995216
C    -5.664267  1.676592  2.087020
N    -7.152398  1.789681  1.778341
H    -3.345458  1.347562  3.901355
H    -3.799186  -0.292927  4.334631
H    -3.443886  -1.007459  1.916500
H    -3.116310  0.669614  1.485522
H    -5.733223  -0.391114  2.728083
H    -5.445780  -0.169549  1.000251
H    -5.157447  2.324721  1.360824
H    -5.537875  2.110237  3.086244
H    -7.474767  2.768017  1.834266
H    -7.725391  1.242927  2.438548
H    -7.374214  1.450726  0.830088
N    -1.506619  -2.106779  5.231595
C    -1.826698  -1.539224  6.549212
H    -1.342798  -3.113568  5.203669
H    -1.095926  -0.774624  6.841102
H    -1.773538  -2.349277  7.282123
H    -2.841677  -1.124613  6.575523
Ba    0.034953  -2.499313  0.864321
