35
Energy: -243351.391198 eV PBE+vdW (tier 2 basis)
C    0.189522  0.328080  -0.501075
C    0.120909  -0.382931  0.806541
O    0.833690  -1.457456  0.960067
H    -0.638452  1.016928  -0.671459
H    1.128884  0.898948  -0.559933
H    0.207477  -0.413724  -1.308771
N    -0.630969  0.006945  1.828439
C    -1.429058  1.222514  2.187216
C    -2.940427  1.000979  2.434910
O    -3.458965  1.811806  3.221103
H    -0.552698  -0.626918  2.625587
H    -1.072430  1.415081  3.209238
C    -1.179411  2.540157  1.407710
C    -2.092872  2.945116  0.230945
C    -3.475124  3.579580  0.523596
C    -3.490304  4.775953  1.492736
N    -4.142238  4.420275  2.816482
H    -0.131159  2.549633  1.080889
H    -1.212788  3.328125  2.172884
H    -2.277472  2.097117  -0.446481
H    -1.520519  3.669842  -0.366252
H    -4.194614  2.821983  0.864334
H    -3.869007  3.923628  -0.441269
H    -4.053345  5.621725  1.084467
H    -2.483848  5.141831  1.729409
H    -3.818031  3.470821  3.143186
H    -5.164880  4.369903  2.719545
H    -3.945893  5.123084  3.540925
N    -3.662847  0.029571  1.854417
C    -3.321627  -0.932052  0.808185
H    -4.626456  0.012086  2.188182
H    -4.257136  -1.329322  0.402498
H    -2.741361  -1.779364  1.197039
H    -2.785794  -0.452996  -0.019073
Ba    2.425710  -3.204061  0.869308
