35
Energy: -243351.819109 eV PBE+vdW (tier 2 basis)
C    -1.323882  0.311669  0.037063
C    -0.554501  0.572538  1.287074
O    0.472353  1.361291  1.241453
H    -1.536932  1.264556  -0.463626
H    -2.262029  -0.221959  0.200738
H    -0.702149  -0.287650  -0.644927
N    -0.858925  0.003301  2.447192
C    -1.985343  -0.883246  2.861357
C    -2.301001  -2.047401  1.882742
O    -3.468247  -2.293762  1.545507
H    -0.249955  0.282794  3.217300
H    -1.580652  -1.388400  3.753516
C    -3.211455  -0.092702  3.372354
C    -3.952938  0.916720  2.475441
C    -5.040505  0.441923  1.490590
C    -6.213160  -0.326683  2.125455
N    -6.132990  -1.813594  1.833207
H    -2.857512  0.458076  4.256481
H    -3.900557  -0.844336  3.785042
H    -3.230503  1.532943  1.916952
H    -4.432177  1.629692  3.162860
H    -4.615377  -0.153721  0.669974
H    -5.455370  1.340527  1.015289
H    -7.180860  0.016795  1.745468
H    -6.234893  -0.221948  3.217061
H    -6.474328  -2.020925  0.885835
H    -6.704762  -2.365992  2.484710
H    -5.128929  -2.127490  1.871363
N    -1.263966  -2.798730  1.484902
C    -1.430034  -4.010258  0.673225
H    -0.352497  -2.635741  1.900207
H    -0.448845  -4.324781  0.307321
H    -2.087125  -3.800722  -0.176993
H    -1.869765  -4.820701  1.268568
Ba    2.261480  2.844500  0.790853
