35
Energy: -243351.508583 eV PBE+vdW (tier 2 basis)
C    -1.010949  0.351138  -1.035818
C    -0.522200  0.025481  0.340153
O    0.643875  -0.225421  0.610555
H    -2.027970  0.755374  -1.067747
H    -0.971028  -0.550929  -1.665543
H    -0.313092  1.063219  -1.497161
N    -1.480320  0.035991  1.423142
C    -2.550959  -1.003524  1.301375
C    -3.596503  -0.735929  2.395364
O    -3.432421  0.282417  3.158158
H    -0.917165  -0.223724  2.242422
H    -3.068405  -0.838233  0.342011
C    -1.918673  -2.425455  1.249243
C    -0.943078  -2.789849  2.381750
C    -0.038151  -3.999372  2.066225
C    0.974614  -3.862610  0.929631
N    2.045949  -2.808717  1.185270
H    -1.410603  -2.480323  0.274344
H    -2.708132  -3.183850  1.192729
H    -1.504079  -3.026653  3.297064
H    -0.298180  -1.937091  2.653127
H    -0.658545  -4.870263  1.804992
H    0.489155  -4.295152  2.986172
H    0.521612  -3.595928  -0.033052
H    1.506980  -4.811083  0.791127
H    2.785741  -2.865736  0.470217
H    2.501943  -2.948742  2.097956
H    1.660048  -1.844500  1.147209
N    -4.672811  -1.485187  2.537955
C    -5.177480  -2.600635  1.725272
H    -5.271226  -1.203504  3.317415
H    -4.870997  -3.563987  2.152246
H    -4.840531  -2.519134  0.687669
H    -6.271596  -2.552289  1.734978
Ba    -2.590007  2.504340  3.045113
