35
Energy: -243351.806427 eV PBE+vdW (tier 2 basis)
C    0.866748  -0.106416  0.465778
C    0.501931  -0.217951  1.913804
O    1.405200  -0.525524  2.781549
H    1.298855  -1.054562  0.115674
H    1.624720  0.679701  0.336171
H    0.015865  0.139075  -0.178828
N    -0.758195  0.011063  2.258428
C    -1.370018  0.035347  3.596048
C    -1.936546  -1.309616  4.121528
O    -1.814443  -1.514289  5.345457
H    -1.372107  0.268072  1.486898
H    -0.571313  0.271603  4.307887
C    -2.456095  1.148486  3.614282
C    -3.404402  1.138370  4.822086
C    -2.746603  1.465213  6.176786
C    -3.512856  0.943906  7.385865
N    -3.495303  -0.590627  7.439443
H    -3.071590  1.048594  2.706182
H    -1.944842  2.119309  3.536469
H    -3.920254  0.165162  4.853866
H    -4.198220  1.871370  4.623213
H    -2.665353  2.554774  6.297221
H    -1.717462  1.079653  6.229868
H    -4.564663  1.252627  7.381320
H    -3.063016  1.296332  8.319835
H    -3.209332  -0.926389  8.366958
H    -4.425368  -0.986536  7.260369
H    -2.836120  -0.991086  6.724214
N    -2.575928  -2.175599  3.319923
C    -2.941974  -2.079194  1.904986
H    -2.893209  -3.010219  3.811567
H    -3.722706  -2.820282  1.708093
H    -2.096114  -2.303722  1.242153
H    -3.367856  -1.098377  1.661753
Ba    3.587138  -1.074523  3.526149
