35
Energy: -243353.198384 eV PBE+vdW (tier 2 basis)
C    2.264577  -0.176540  0.244523
C    1.696528  -0.697796  1.524351
O    2.450252  -1.071226  2.467919
H    2.976890  -0.902054  -0.169145
H    2.836772  0.736732  0.465284
H    1.506978  0.054666  -0.511596
N    0.354871  -0.745837  1.651534
C    -0.378002  -1.077527  2.881554
C    -0.422304  -2.615416  3.083991
O    0.631266  -3.190241  3.487274
H    -0.187422  -0.463437  0.840670
H    0.261349  -0.741522  3.711804
C    -1.691216  -0.264528  3.013536
C    -2.691857  -0.193523  1.839279
C    -3.886715  0.719656  2.198130
C    -4.874127  0.867694  1.039883
N    -6.034801  1.784735  1.402675
H    -1.379534  0.763805  3.249131
H    -2.202849  -0.626513  3.918323
H    -3.074917  -1.185850  1.549906
H    -2.204702  0.212705  0.938009
H    -3.503183  1.711628  2.486071
H    -4.405614  0.310911  3.079880
H    -5.326677  -0.089122  0.750704
H    -4.408541  1.311190  0.150765
H    -5.714610  2.734666  1.644003
H    -6.571451  1.428939  2.207915
H    -6.695335  1.878376  0.615635
N    -1.540238  -3.285190  2.850393
C    -1.713895  -4.732240  3.012729
H    -2.345830  -2.758120  2.528985
H    -1.705601  -5.226582  2.032816
H    -2.672689  -4.925450  3.505697
H    -0.901684  -5.126079  3.627508
Ba    3.058315  -2.929909  3.931863
