22
Energy: -240077.037272 eV PBE+vdW (tier 2 basis)
N    0.08112  0.93327  1.29209
C    0.12249  -0.03866  2.41162
C    1.56372  -0.59194  2.52808
O    2.44549  -0.22510  1.73710
H    -0.49444  1.73683  1.55386
H    -0.40011  0.51343  0.49114
H    1.20167  -1.65264  4.11660
H    -0.03077  0.51930  3.35138
C    -0.92077  -1.18841  2.32094
C    -2.35000  -0.81355  2.60988
N    -3.40747  -1.59887  2.15693
C    -2.92799  0.16375  3.38170
C    -4.57100  -1.13264  2.62731
N    -4.29032  -0.05990  3.36864
H    -0.64277  -2.00036  3.01360
H    -0.85471  -1.64162  1.31821
H    -3.33623  -2.43166  1.57332
H    -2.50157  0.97808  3.95423
H    -5.55589  -1.54926  2.43754
H    -4.98958  0.50010  3.85775
O    1.90615  -1.41771  3.47963
Ba    2.94597  1.60754  0.19143
