22
Energy: -240077.371777 eV PBE+vdW (tier 2 basis)
N    0.87502  1.36980  1.30884
C    0.08699  0.32942  2.02812
C    0.88082  -0.97708  1.96661
O    2.09843  -0.99916  1.72642
H    0.62379  2.28872  1.68752
H    0.55752  1.40654  0.33225
H    0.75238  -2.85730  2.23530
H    0.08939  0.59899  3.09852
C    -1.40156  0.24032  1.55101
C    -2.40618  -0.36625  2.48984
N    -3.02799  -1.59294  2.27822
C    -2.99889  0.15224  3.61593
C    -3.95366  -1.81635  3.21908
N    -3.93638  -0.76342  4.04047
H    -1.44882  -0.27025  0.57808
H    -1.72371  1.27474  1.36109
H    -2.85440  -2.23059  1.50409
H    -2.85503  1.09658  4.12753
H    -4.60106  -2.68447  3.29452
H    -4.55079  -0.65310  4.84793
O    0.18120  -2.05542  2.22527
Ba    3.76494  0.81600  1.17335
