22
Energy: -240077.341619 eV PBE+vdW (tier 2 basis)
N    0.59338  1.01123  2.03049
C    0.58581  -0.41427  1.60989
C    0.50026  -0.46738  0.07607
O    0.69416  0.53612  -0.63198
H    -0.36074  1.28487  2.29077
H    1.13365  1.10168  2.89531
H    0.26296  -1.67211  -1.38962
H    1.58612  -0.82656  1.82955
C    -0.49154  -1.31993  2.28787
C    -0.26597  -1.69937  3.72076
N    0.49332  -2.80092  4.11581
C    -0.80932  -1.20088  4.87947
C    0.41559  -2.96946  5.44165
N    -0.36877  -1.99819  5.91468
H    -0.58798  -2.24003  1.69462
H    -1.47074  -0.82339  2.21518
H    0.99171  -3.44482  3.50377
H    -1.49893  -0.38221  5.04705
H    0.89307  -3.75408  6.02084
H    -0.62069  -1.89022  6.89783
O    0.26206  -1.65650  -0.40521
Ba    1.34659  2.90040  -0.19079
