22
Energy: -240076.974237 eV PBE+vdW (tier 2 basis)
N    0.76056  -2.26774  1.12443
C    0.19710  -0.92951  1.17437
C    1.22760  -0.00488  1.84538
O    2.12507  0.58551  1.19032
H    1.00985  -2.67987  2.02343
H    1.50901  -2.39783  0.44714
H    0.57150  -0.32916  3.63706
H    0.08702  -0.56776  0.14316
C    -1.18620  -0.92390  1.86921
C    -2.24250  -1.70601  1.13775
N    -3.54764  -1.23947  1.00368
C    -2.23859  -2.95152  0.55808
C    -4.30602  -2.14609  0.37505
N    -3.51708  -3.18622  0.09721
H    -1.52940  0.11462  1.98893
H    -1.10073  -1.34633  2.88798
H    -3.90933  -0.35046  1.34341
H    -1.44335  -3.67642  0.45067
H    -5.36066  -2.05073  0.13807
H    -3.82871  -4.03284  -0.37826
O    1.30068  0.11513  3.15717
Ba    4.11081  2.02747  0.97478
