22
Energy: -240077.052636 eV PBE+vdW (tier 2 basis)
N    0.13776  -0.67169  -0.15007
C    0.13573  -0.33282  1.29553
C    1.54059  0.17388  1.67011
O    2.37384  0.44561  0.79446
H    -0.79988  -0.51891  -0.53319
H    0.29977  -1.67945  -0.26009
H    1.15105  0.11038  3.54876
H    -0.52076  0.54476  1.42576
C    -0.40057  -1.50945  2.18601
C    -0.69312  -1.25775  3.63986
N    -1.86871  -0.67432  4.11754
C    -0.00905  -1.66307  4.76573
C    -1.90303  -0.72465  5.45496
N    -0.77564  -1.31560  5.85770
H    0.30864  -2.34864  2.13529
H    -1.32604  -1.86720  1.70962
H    -2.63841  -0.30947  3.55802
H    0.92326  -2.20824  4.87171
H    -2.70115  -0.35427  6.09285
H    -0.53836  -1.50091  6.83430
O    1.86283  0.37160  2.92232
Ba    2.44024  0.59622  -1.67519
