22
Energy: -240077.206207 eV PBE+vdW (tier 2 basis)
N    -0.11647  -0.38368  -0.12122
C    -0.02035  -0.00758  1.31411
C    1.45484  0.23263  1.63346
O    2.25356  0.61113  0.76119
H    -1.08251  -0.23798  -0.43271
H    0.03964  -1.39424  -0.21723
H    2.71288  0.36337  3.05925
H    -0.44794  1.00981  1.39669
C    -0.85300  -0.83999  2.33534
C    -0.53779  -2.28492  2.58621
N    0.26885  -2.73060  3.63248
C    -1.06983  -3.42462  2.03097
C    0.22932  -4.06582  3.71802
N    -0.57431  -4.49679  2.74216
H    -1.89850  -0.78254  1.99995
H    -0.83689  -0.29794  3.29217
H    0.76825  -2.14021  4.29486
H    -1.79494  -3.55624  1.23633
H    0.74455  -4.68177  4.44900
H    -0.80908  -5.47711  2.58137
O    1.78468  0.07859  2.89328
Ba    1.93106  1.06249  -1.70766
