22
Energy: -240077.785743 eV PBE+vdW (tier 2 basis)
N    -0.51518  0.38383  0.15435
C    0.12082  0.06124  1.49905
C    1.65769  0.12939  1.28923
O    2.07091  0.66908  0.20950
H    -1.39237  0.91697  0.24455
H    -0.71965  -0.46302  -0.39797
H    0.17752  0.94014  -0.38791
H    -0.14446  0.89607  2.16555
C    -0.43191  -1.27322  2.06490
C    -0.46789  -1.39913  3.55761
N    0.65107  -1.39143  4.38075
C    -1.53659  -1.64901  4.38189
C    0.29108  -1.62264  5.64961
N    -1.03537  -1.78168  5.65804
H    0.12359  -2.11929  1.63014
H    -1.47383  -1.38631  1.73196
H    1.60112  -1.21366  4.05371
H    -2.59298  -1.76103  4.16572
H    0.94862  -1.67091  6.51132
H    -1.58787  -1.98054  6.49309
O    2.43354  -0.30589  2.18557
Ba    4.60334  0.52363  0.74978
