22
Energy: -240076.933776 eV PBE+vdW (tier 2 basis)
N    1.05586  0.89036  3.36316
C    1.21890  -0.44040  2.78355
C    2.27953  -0.40432  1.67047
O    2.08760  0.07989  0.52803
H    1.84243  1.20572  3.93161
H    0.81357  1.61071  2.68177
H    3.62567  -1.21162  2.80984
H    1.59909  -1.10183  3.57767
C    -0.14224  -0.99041  2.29617
C    -1.09599  -1.28418  3.41497
N    -1.43279  -0.37972  4.41600
C    -1.85444  -2.40246  3.65593
C    -2.34779  -0.91258  5.23360
N    -2.61300  -2.14000  4.77674
H    0.00211  -1.92150  1.73147
H    -0.59210  -0.26441  1.59964
H    -0.99248  0.53369  4.52991
H    -1.92458  -3.34333  3.12367
H    -2.78910  -0.44013  6.10485
H    -3.28430  -2.77988  5.20076
O    3.50962  -0.81533  1.92124
Ba    3.22843  0.56571  -1.64506
