22
Energy: -240077.847704 eV PBE+vdW (tier 2 basis)
N    0.43692  -1.55152  0.05989
C    0.19045  -0.36880  0.98461
C    1.59790  0.06303  1.50417
O    1.67366  0.92473  2.41883
H    -0.07504  -1.49964  -0.83035
H    0.21624  -2.45657  0.49837
H    1.47003  -1.53159  -0.12590
H    -0.15099  0.46035  0.34686
C    -0.81844  -0.64207  2.10793
C    -2.26886  -0.72612  1.71167
N    -3.19675  -1.40882  2.49389
C    -3.00081  -0.14430  0.70530
C    -4.43121  -1.25346  1.99859
N    -4.32137  -0.49058  0.91011
H    -0.69126  0.18133  2.82989
H    -0.52766  -1.55563  2.65199
H    -2.99959  -1.93726  3.34281
H    -2.71354  0.50292  -0.11433
H    -5.34611  -1.67412  2.40534
H    -5.10803  -0.20527  0.32559
O    2.60771  -0.45246  0.92389
Ba    4.26075  1.12486  2.33886
