22
Energy: -240076.712596 eV PBE+vdW (tier 2 basis)
N    0.05903  0.76703  0.24834
C    0.23725  0.14409  1.55189
C    1.63024  -0.48256  1.35691
O    2.68074  0.19230  1.47231
H    -0.36444  1.69184  0.28357
H    -0.42830  0.18903  -0.43549
H    0.92540  -2.20103  0.84868
H    0.37228  0.93500  2.30188
C    -0.93007  -0.79733  1.98374
C    -1.03122  -1.22740  3.41748
N    -1.72766  -0.49382  4.37705
C    -0.62841  -2.37150  4.06190
C    -1.75653  -1.15311  5.54151
N    -1.08492  -2.29283  5.36116
H    -0.97103  -1.69803  1.34802
H    -1.84920  -0.25263  1.71893
H    -2.21128  0.38978  4.22534
H    -0.09529  -3.24307  3.70204
H    -2.24361  -0.82738  6.45536
H    -0.96188  -3.00693  6.07926
O    1.77384  -1.72104  0.93623
Ba    4.85354  1.01673  0.71290
