22
Energy: -240076.855472 eV PBE+vdW (tier 2 basis)
N    0.18641  -0.75384  -0.40039
C    -0.23383  -0.24638  0.89175
C    0.93211  0.55608  1.48919
O    1.94379  0.04480  2.03420
H    1.01262  -1.34967  -0.38883
H    0.23386  -0.07036  -1.15382
H    0.16291  2.24863  0.93204
H    -1.06575  0.45405  0.71931
C    -0.73592  -1.38398  1.81456
C    -1.99597  -2.02928  1.30998
N    -3.15548  -2.12185  2.07579
C    -2.29455  -2.65287  0.12232
C    -4.11367  -2.76801  1.39971
N    -3.59906  -3.09017  0.21070
H    -0.91189  -0.98707  2.82488
H    0.05347  -2.14457  1.91377
H    -3.28020  -1.77862  3.02585
H    -1.69096  -2.81887  -0.75968
H    -5.11549  -2.98858  1.75341
H    -4.10535  -3.59441  -0.51691
O    0.97316  1.86996  1.33162
Ba    4.16379  0.65901  2.98052
