22
Energy: -240077.012503 eV PBE+vdW (tier 2 basis)
N    0.71028  -0.34127  0.01759
C    0.25639  -0.06444  1.40214
C    1.49871  0.23695  2.25974
O    2.58719  0.48150  1.71822
H    0.91844  -1.34122  -0.08142
H    -0.06727  -0.16730  -0.62698
H    0.53905  0.17393  3.94294
H    -0.26749  0.90896  1.37045
C    -0.79384  -1.04184  2.00735
C    -0.41957  -2.47328  2.29057
N    -1.33996  -3.50217  2.09715
C    0.67021  -3.07137  2.87804
C    -0.84809  -4.66325  2.54413
N    0.37573  -4.41323  3.01409
H    -1.65076  -1.03243  1.31750
H    -1.20371  -0.59228  2.92933
H    -2.27796  -3.40639  1.70813
H    1.60626  -2.66551  3.24196
H    -1.35061  -5.62624  2.52592
H    0.98605  -5.11813  3.42962
O    1.43290  0.30066  3.56538
Ba    3.30111  1.11793  -0.57851
