22
Energy: -240076.824966 eV PBE+vdW (tier 2 basis)
N    0.17833  0.65051  0.39557
C    0.06219  0.23077  1.79157
C    1.44008  -0.17409  2.31322
O    2.19850  0.61950  2.92491
H    0.39135  1.63969  0.27800
H    0.81626  0.09817  -0.17672
H    1.26860  -1.95681  1.61376
H    -0.23041  1.10828  2.38101
C    -1.06022  -0.83279  1.99762
C    -1.20183  -1.91773  0.97420
N    -1.62712  -1.68210  -0.33223
C    -1.15418  -3.28780  1.09914
C    -1.83285  -2.83823  -0.97180
N    -1.54275  -3.82042  -0.11294
H    -2.00217  -0.26374  2.01350
H    -0.97904  -1.29468  2.99196
H    -1.77067  -0.75758  -0.73811
H    -0.93815  -3.91580  1.95614
H    -2.17216  -2.95824  -1.99619
H    -1.63036  -4.81480  -0.32466
O    1.92101  -1.37589  2.06353
Ba    4.08359  1.56181  4.19452
