20
Energy: -169132.599065 eV PBE+vdW (tier 2 basis)
N    -0.113597  -0.091480  -0.142695
C    -0.054299  0.088114  1.372387
C    1.417066  0.385772  1.755704
O    1.707849  0.443655  2.982638
H    0.597327  0.510321  -0.593309
H    -1.042026  0.145268  -0.520138
H    -0.607117  1.017031  1.587693
C    -0.659039  -1.095931  2.126970
C    -2.175106  -1.230353  1.909690
C    -2.811682  -2.339717  2.751642
O    -3.914463  -2.218082  3.236849
O    -2.041231  -3.429588  2.851842
H    -0.444925  -0.918470  3.190439
H    -0.135390  -2.025989  1.858572
H    -2.432346  -1.490533  0.868269
H    -2.706830  -0.303156  2.158852
O    2.242403  0.600556  0.816315
H    0.099058  -1.063480  -0.414337
H    -2.517327  -4.114763  3.368969
Cd    3.842628  0.976804  2.460783
