20
Energy: -169132.109136 eV PBE+vdW (tier 2 basis)
N    0.480584  -0.533245  -0.585677
C    0.122953  -0.261283  0.838099
C    1.388885  -0.333613  1.715042
O    2.346215  -1.084744  1.450923
H    0.760143  0.325825  -1.075222
H    -0.330163  -0.909272  -1.090919
H    -0.292784  0.758378  0.904376
C    -0.918411  -1.303480  1.311936
C    -1.509022  -1.065993  2.705637
C    -2.549990  -2.135772  3.032391
O    -2.724365  -3.116216  2.329523
O    -3.204734  -1.867346  4.154923
H    -0.476976  -2.313228  1.266619
H    -1.738273  -1.289480  0.577545
H    -0.757974  -1.123830  3.509299
H    -2.004210  -0.086396  2.788450
O    1.457476  0.355789  2.819414
H    0.706212  0.967092  2.964421
H    -3.852935  -2.579485  4.346892
Cd    2.268184  -2.005131  -0.553325
