20
Energy: -169131.764802 eV PBE+vdW (tier 2 basis)
N    -0.062439  -1.382822  0.122513
C    -0.194940  -0.469157  1.186762
C    1.196931  -0.157471  1.884855
O    2.071409  -0.942694  2.079460
H    0.132257  -1.050231  -0.818415
H    0.162280  -2.359872  0.303122
H    -0.535312  0.489946  0.768908
C    -1.182552  -1.010949  2.261996
C    -1.326372  -0.241008  3.597150
C    -1.893382  1.156830  3.502935
O    -3.071742  1.364460  3.883640
O    -1.184997  2.159849  3.050718
H    -0.868941  -2.028253  2.539231
H    -2.161106  -1.105381  1.772508
H    -0.364404  -0.170710  4.130763
H    -2.002307  -0.818253  4.239043
O    1.225968  1.162359  2.270825
H    2.100893  1.351341  2.678489
H    -0.250903  1.896032  2.797852
Cd    -4.047001  3.341301  3.997558
