20
Energy: -169133.376407 eV PBE+vdW (tier 2 basis)
N    -0.296599  0.975181  0.740534
C    0.009386  -0.180337  1.677948
C    1.502977  -0.494817  1.569180
O    2.048517  -0.344122  0.430257
H    0.012097  1.877578  1.133554
H    -1.303858  1.054682  0.534092
H    -0.254550  0.131363  2.695512
C    -0.798147  -1.428654  1.222015
C    -0.600131  -2.721719  2.035981
C    0.732391  -3.431501  1.858590
O    1.456107  -3.234240  0.862052
O    1.144495  -4.279874  2.770994
H    -0.584027  -1.627724  0.161602
H    -1.865124  -1.169941  1.300520
H    -1.377876  -3.437923  1.719245
H    -0.771063  -2.551510  3.109560
O    2.039714  -1.079231  2.552057
H    0.220429  0.833638  -0.146507
H    0.516277  -4.407930  3.510697
Cd    3.369986  -2.120919  1.005114
