20
Energy: -169132.447664 eV PBE+vdW (tier 2 basis)
N    -0.685440  -0.388188  0.217356
C    -0.124333  -0.360992  1.620622
C    1.396765  -0.205810  1.403238
O    1.857808  -0.210916  0.278017
H    -1.289454  0.417474  0.014976
H    0.176460  -0.341351  -0.394900
H    -0.512041  0.526969  2.136436
C    -0.527086  -1.621192  2.437526
C    0.035709  -2.911611  1.958138
C    -0.642826  -3.767560  1.083421
O    -1.656916  -3.354355  0.395902
O    -0.271604  -5.027308  0.814442
H    -1.625645  -1.660100  2.476678
H    -0.162438  -1.438930  3.460179
H    1.064178  -3.166995  2.224453
H    -1.207935  -1.258518  0.023904
O    2.048197  -0.087660  2.547480
H    3.006311  0.050547  2.381796
H    0.431365  -5.358408  1.408623
Cd    -3.180692  -4.944802  0.086662
