20
Energy: -169132.908196 eV PBE+vdW (tier 2 basis)
N    0.060764  -0.051485  -0.077984
C    -0.200856  0.058750  1.413552
C    1.112625  0.356873  2.132134
O    1.031283  1.021822  3.211329
H    -0.740317  -0.474347  -0.572456
H    0.234887  0.870280  -0.508333
H    -0.905869  0.883640  1.564307
C    -0.772465  -1.290703  1.953061
C    -0.406601  -1.651848  3.415595
C    0.858836  -2.474867  3.524973
O    1.109402  -3.509359  3.002262
O    1.852721  -1.911305  4.459130
H    -0.438283  -2.115663  1.305178
H    -1.865630  -1.237201  1.875966
H    -1.189730  -2.328431  3.793089
H    -0.401985  -0.783215  4.081993
O    2.160414  -0.234624  1.735436
H    0.897870  -0.636661  -0.246173
H    2.451679  -2.666348  4.661117
Cd    2.897132  0.058689  3.920118
