20
Energy: -169133.273938 eV PBE+vdW (tier 2 basis)
N    1.867553  1.770271  1.977789
C    1.329904  0.690245  1.053081
C    -0.198873  0.896861  1.130365
O    -0.676761  1.681297  1.927502
H    2.528822  1.426044  2.683082
H    0.999615  2.158479  2.442076
H    1.670098  0.924623  0.036277
C    1.796365  -0.733796  1.403311
C    1.224007  -1.311906  2.705399
C    1.604147  -2.770624  2.953847
O    1.413926  -3.237160  4.127968
O    2.064039  -3.485301  2.004636
H    2.896092  -0.752113  1.414490
H    1.498078  -1.367185  0.557494
H    0.120830  -1.314255  2.700273
H    1.515684  -0.759986  3.610249
O    -0.846383  0.130982  0.266324
H    -1.809829  0.314846  0.312516
H    2.326746  2.531641  1.461471
Cd    2.121943  -5.206966  3.430849
