20
Energy: -169131.788097 eV PBE+vdW (tier 2 basis)
N    0.218217  0.034098  -0.048832
C    -0.099107  -0.000928  1.310128
C    1.218534  0.279939  2.111991
O    2.185232  0.755450  1.579040
H    -0.413042  -0.312069  -0.766150
H    1.112023  0.438907  -0.336263
H    -0.719723  0.908383  1.607957
C    -0.966653  -1.211118  1.709156
C    -1.749242  -1.085591  3.019287
C    -2.672082  0.095429  3.162569
O    -2.474107  1.186993  2.574276
O    -3.711256  0.030703  3.972469
H    -0.316807  -2.095215  1.793004
H    -1.665622  -1.426669  0.887161
H    -1.058372  -1.008533  3.878719
H    -2.332837  -2.005055  3.175166
O    1.081011  -0.037819  3.404826
H    1.927270  0.148554  3.867292
H    -3.828605  -0.842591  4.402247
Cd    -4.020054  2.896751  3.016249
