20
Energy: -169132.786723 eV PBE+vdW (tier 2 basis)
N    0.064607  0.410008  -0.284442
C    -0.154243  -0.080869  1.144830
C    1.163047  0.222843  1.909621
O    2.215918  -0.266142  1.508350
H    0.115211  1.438741  -0.352561
H    -0.700884  0.096961  -0.902866
H    -0.993325  0.503737  1.545590
C    -0.511798  -1.588994  1.062794
C    -0.480215  -2.425612  2.364099
C    0.965023  -2.531743  2.834873
O    1.311556  -1.827523  3.841557
O    1.804292  -3.148364  2.103421
H    0.159315  -2.072155  0.336466
H    -1.536137  -1.648246  0.664117
H    -0.855844  -3.427698  2.121143
H    -1.101242  -2.002233  3.160830
O    1.134442  0.980105  2.985844
H    0.248449  1.295285  3.253491
H    0.950112  0.024663  -0.655956
Cd    3.404719  -1.938762  3.066798
