20
Energy: -169132.679946 eV PBE+vdW (tier 2 basis)
N    -0.102387  0.222279  0.462162
C    0.244526  -0.142256  1.889839
C    1.660489  -0.744479  1.956255
O    2.352303  -0.812433  0.894443
H    0.677528  0.701448  -0.010856
H    -0.930715  0.863880  0.506671
H    0.301685  0.816166  2.429062
C    -0.809786  -1.058965  2.534333
C    -2.293671  -0.677141  2.322029
C    -2.649840  0.764491  2.628421
O    -3.229906  1.162578  3.601309
O    -2.219956  1.612203  1.621317
H    -0.576286  -1.083175  3.607446
H    -0.681118  -2.088595  2.167689
H    -2.892798  -1.313221  2.984623
H    -2.625694  -0.894914  1.295016
O    2.076623  -1.124774  3.091934
H    -0.342514  -0.601834  -0.107033
H    -2.528193  2.521811  1.823615
Cd    4.034835  -1.703367  2.179646
