20
Energy: -169132.777681 eV PBE+vdW (tier 2 basis)
N    -0.181084  0.583633  0.433333
C    -0.054397  -0.077626  1.785611
C    1.428545  -0.037657  2.229492
O    1.676451  -0.234735  3.455982
H    -0.185398  1.610556  0.495771
H    -1.082166  0.257091  -0.022947
H    -0.624237  0.527369  2.504157
C    -0.578995  -1.526766  1.768486
C    -2.117162  -1.693128  1.797829
C    -2.877177  -1.643727  0.490044
O    -3.808092  -2.348761  0.215174
O    -2.430882  -0.663650  -0.384918
H    -0.200259  -2.001161  2.683055
H    -0.131469  -2.080068  0.928730
H    -2.349915  -2.671398  2.237096
H    -2.587724  -0.952163  2.466572
O    2.323486  0.169100  1.355107
H    0.610673  0.316977  -0.171900
H    -3.004370  -0.678512  -1.181813
Cd    3.869082  -0.053705  3.044024
