20
Energy: -169131.66249 eV PBE+vdW (tier 2 basis)
N    0.010409  -1.224514  0.320657
C    -0.270549  -0.450333  1.595205
C    1.021704  0.148127  2.180368
O    1.047589  0.620331  3.285878
H    -0.622983  -0.957140  -0.443245
H    0.983820  -1.052265  0.018344
H    -0.931474  0.395765  1.363839
C    -0.930439  -1.471242  2.537667
C    -0.272432  -2.803174  2.174012
C    -0.153730  -2.809376  0.644082
O    0.891524  -3.470969  0.123300
O    -1.332009  -3.220202  -0.066426
H    -2.016987  -1.490121  2.369715
H    -0.768340  -1.186085  3.583480
H    -0.823003  -3.686347  2.521093
H    0.746063  -2.876932  2.580865
O    2.047629  0.088964  1.308508
H    2.840042  0.524370  1.691397
H    -2.141377  -3.229296  0.483172
Cd    0.128934  -4.785310  -1.296493
