20
Energy: -169133.226543 eV PBE+vdW (tier 2 basis)
N    -0.148450  -1.586494  -0.039206
C    -0.022335  -0.401352  0.894908
C    1.505582  -0.300947  1.132246
O    2.239518  -1.196816  0.762075
H    0.786695  -2.068331  0.037855
H    -0.265899  -1.298991  -1.018414
H    -0.370717  0.498444  0.370736
C    -0.768835  -0.588063  2.223817
C    -2.304357  -0.489571  2.205846
C    -3.076904  -1.761867  1.871159
O    -4.228048  -1.895621  2.404969
O    -2.605382  -2.652864  1.082183
H    -0.422236  0.229742  2.872052
H    -0.437368  -1.513560  2.718381
H    -2.665849  0.269727  1.490364
H    -2.668620  -0.162049  3.187281
O    1.836661  0.811332  1.762640
H    2.807493  0.846199  1.907008
H    -0.933534  -2.208707  0.226976
Cd    -4.569498  -3.816465  1.450712
