20
Energy: -169132.676969 eV PBE+vdW (tier 2 basis)
N    -0.185673  0.576842  -0.015798
C    -0.110785  0.124903  1.438518
C    1.326258  -0.367816  1.708091
O    2.188573  -0.234250  0.787758
H    -0.981364  1.214952  -0.165447
H    -0.308317  -0.227233  -0.650947
H    -0.242940  1.032534  2.048862
C    -1.215249  -0.901471  1.719785
C    -1.489278  -1.124854  3.208163
C    -2.482110  -2.265559  3.415462
O    -2.750513  -3.070416  2.541402
O    -2.981829  -2.275558  4.647266
H    -0.980067  -1.860746  1.231551
H    -2.138496  -0.533218  1.243673
H    -1.880795  -0.224164  3.701276
H    -0.578422  -1.421591  3.752531
O    1.581810  -0.856252  2.849065
H    0.685869  1.053066  -0.300219
H    -3.594193  -3.035576  4.750931
Cd    3.746754  -1.134176  2.245935
