20
Energy: -169132.568709 eV PBE+vdW (tier 2 basis)
N    0.158060  0.635804  0.618372
C    0.281698  0.008132  1.965564
C    1.733549  0.133553  2.495044
O    2.507351  1.020827  2.085080
H    0.464501  -0.040933  -0.095716
H    -0.900469  0.749626  0.446785
H    -0.291175  0.650012  2.660940
C    -0.354408  -1.406223  1.956581
C    -1.883112  -1.446446  2.123538
C    -2.746834  -0.706999  1.119359
O    -2.388213  0.262205  0.436747
O    -3.971641  -1.184605  1.082650
H    0.046107  -2.010056  2.784823
H    -0.043224  -1.938112  1.043977
H    -2.173929  -1.052546  3.112700
H    -2.208664  -2.496235  2.125891
O    2.168065  -0.626967  3.457510
H    1.538201  -1.315915  3.749541
H    -4.535388  -0.661283  0.471527
Cd    1.640046  2.303658  0.508496
