20
Energy: -169133.727356 eV PBE+vdW (tier 2 basis)
N    -0.017520  1.126675  0.442090
C    -0.082111  0.398455  1.743523
C    1.314027  -0.144580  2.083559
O    2.195881  -0.378978  1.239674
H    0.406339  2.053542  0.567386
H    -0.959556  1.295997  0.074432
H    -0.327141  1.107781  2.549147
C    -1.181813  -0.708681  1.774317
C    -1.537432  -1.517995  0.496776
C    -0.540454  -2.518584  -0.036786
O    0.472318  -2.241171  -0.730566
O    -0.827833  -3.759322  0.243155
H    -2.114754  -0.205061  2.061078
H    -0.954913  -1.391800  2.603551
H    -2.452526  -2.073602  0.738757
H    -1.803927  -0.855836  -0.342443
O    1.468889  -0.343364  3.363830
H    2.358599  -0.706295  3.577992
H    -0.179915  -4.387368  -0.151043
Cd    1.308844  -0.247813  -0.815427
