20
Energy: -169131.809582 eV PBE+vdW (tier 2 basis)
N    1.648568  -0.896201  -0.219916
C    0.919392  -0.129183  0.718359
C    1.895660  0.311226  1.834789
O    3.091571  0.211070  1.698173
H    1.252588  -1.106506  -1.133080
H    2.668807  -0.884186  -0.137340
H    0.620011  0.852350  0.272994
C    -0.426498  -0.770628  1.163864
C    -0.205613  -2.010289  2.047427
C    -1.447156  -2.756483  2.470873
O    -1.338877  -3.964531  2.773600
O    -2.628960  -2.189750  2.568998
H    -0.991078  -1.036211  0.258204
H    -0.987550  0.014046  1.693205
H    0.289337  -1.737328  2.997513
H    0.456095  -2.740851  1.560669
O    1.252290  0.828125  2.886648
H    1.910280  1.182467  3.523264
H    -2.632028  -1.242001  2.322437
Cd    -2.947143  -5.310156  3.545555
