20
Energy: -169132.26735 eV PBE+vdW (tier 2 basis)
N    -0.507559  -0.936011  0.007415
C    -0.205940  -0.158743  1.284117
C    1.287945  0.246576  1.320823
O    1.815023  0.638044  2.324103
H    -0.118986  -1.890501  0.043220
H    -0.057776  -0.467185  -0.796543
H    -0.780844  0.775919  1.205321
C    -0.600393  -0.924239  2.567829
C    -2.050364  -0.982222  2.899725
C    -2.648197  -0.069939  3.779708
O    -2.048626  1.026792  4.085483
O    -3.885284  -0.204550  4.280900
H    -0.051036  -0.402003  3.364710
H    -0.196134  -1.949905  2.511926
H    -2.697594  -1.713372  2.409754
H    -1.517912  -1.009069  -0.176645
O    1.838847  0.134284  0.094277
H    2.770083  0.443133  0.118136
H    -4.273681  -1.084377  4.109591
Cd    -2.302136  1.781567  6.112991
