20
Energy: -169133.250247 eV PBE+vdW (tier 2 basis)
N    -0.249180  0.698363  -0.201061
C    -0.109707  -0.078994  1.105313
C    1.025332  0.518724  1.953241
O    1.519011  -0.074563  2.878850
H    -0.175105  1.713065  -0.021530
H    -1.151751  0.509191  -0.660936
H    -1.042972  0.118419  1.657378
C    0.028364  -1.582140  0.812825
C    -0.189683  -2.495977  2.030695
C    1.041350  -2.815331  2.874123
O    2.172806  -2.990895  2.314851
O    0.861858  -2.988756  4.126477
H    1.000982  -1.795454  0.346209
H    -0.747460  -1.848960  0.079109
H    -0.524268  -3.483339  1.672643
H    -0.973154  -2.128673  2.703413
O    1.329362  1.764918  1.547236
H    2.009837  2.158184  2.134238
H    0.498401  0.457218  -0.869135
Cd    2.984979  -3.518001  4.326058
