20
Energy: -169131.899281 eV PBE+vdW (tier 2 basis)
N    0.394029  0.080002  -0.408587
C    -0.184032  0.197968  0.908212
C    1.020214  0.429357  1.903721
O    1.049487  0.141916  3.138276
H    0.680937  -0.859708  -0.684306
H    -0.165860  0.500632  -1.148085
H    -0.756723  1.140527  0.936994
C    -1.010028  -0.904794  1.587369
C    -2.315603  -1.605498  1.241701
C    -2.715129  -2.415628  2.486854
O    -2.087122  -2.412873  3.581530
O    -3.773232  -3.170759  2.460401
H    -1.299187  -0.348429  2.500263
H    -0.292701  -1.725798  1.797706
H    -2.229007  -2.294363  0.387763
H    -3.133668  -0.903085  1.014768
O    2.056336  0.953851  1.358683
H    1.838469  0.969310  0.364304
H    -4.253293  -3.164944  1.605716
Cd    -0.275942  -1.287445  4.091005
