20
Energy: -169133.299549 eV PBE+vdW (tier 2 basis)
N    2.040870  1.256072  0.899168
C    0.795634  0.396510  1.028438
C    -0.311833  1.448278  1.299567
O    -0.027328  2.629797  1.351137
H    2.735587  1.084901  1.635626
H    1.651177  2.240751  1.018317
H    0.597815  -0.050293  0.043364
C    0.884285  -0.685003  2.112647
C    1.791304  -1.864072  1.736201
C    1.747280  -3.028903  2.725711
O    2.675307  -3.902814  2.643882
O    0.796823  -3.121703  3.568007
H    -0.138629  -1.048867  2.274940
H    1.197993  -0.231765  3.065948
H    2.850941  -1.594624  1.623473
H    1.486667  -2.309566  0.773835
O    -1.504690  0.898471  1.432413
H    -2.183154  1.595001  1.569886
H    2.504153  1.177653  -0.013711
Cd    1.702797  -5.049823  4.259151
