20
Energy: -169131.900584 eV PBE+vdW (tier 2 basis)
N    -0.117761  -0.426836  0.022762
C    0.035899  -0.304906  1.520276
C    1.453986  -0.820222  1.804906
O    2.082758  -1.379610  0.920843
H    -0.175173  0.483608  -0.449760
H    0.762517  -0.931484  -0.272698
H    -0.079728  0.744173  1.816651
C    -1.076275  -1.202854  2.114332
C    -2.172355  -1.213118  1.044799
C    -1.430384  -1.245496  -0.298528
O    -2.074024  -0.681535  -1.344544
O    -1.004380  -2.554013  -0.737900
H    -1.429738  -0.807977  3.072127
H    -0.692332  -2.216043  2.307699
H    -2.762206  -0.285792  1.065333
H    -2.874363  -2.051703  1.125522
O    1.819141  -0.613699  3.053150
H    2.720014  -0.969988  3.215756
H    -0.865814  -3.210423  -0.025555
Cd    -2.007405  -2.092766  -2.858360
