20
Energy: -169133.109912 eV PBE+vdW (tier 2 basis)
N    1.183696  -1.925157  1.240257
C    0.502629  -0.598318  1.192806
C    1.340908  0.524672  1.837128
O    2.466492  0.248321  2.356407
H    0.511821  -2.561787  0.570243
H    1.240957  -2.317399  2.187629
H    0.441106  -0.334148  0.125297
C    -0.922346  -0.641715  1.799021
C    -1.764923  -1.920775  1.550759
C    -1.650982  -2.576868  0.191996
O    -0.565011  -2.944756  -0.290533
O    -2.799048  -2.768403  -0.412831
H    -1.449151  0.235652  1.402533
H    -0.866809  -0.501791  2.887526
H    -2.814674  -1.675045  1.749133
H    -1.496134  -2.703801  2.278448
O    0.862496  1.702235  1.803417
H    2.135907  -1.899001  0.855812
H    -2.669986  -3.257951  -1.255562
Cd    2.685056  2.447035  2.831513
