20
Energy: -169133.194911 eV PBE+vdW (tier 2 basis)
N    -0.858591  0.738660  0.613134
C    -0.053951  -0.246703  1.456124
C    1.232187  0.443230  1.953268
O    1.875486  0.092926  2.929435
H    -0.329509  1.042880  -0.219758
H    -1.109013  1.591521  1.137353
H    -0.675143  -0.479930  2.332450
C    0.236722  -1.533383  0.622849
C    0.085676  -2.863100  1.402307
C    0.942720  -2.776403  2.650333
O    2.204917  -2.901205  2.537041
O    0.378082  -2.387366  3.729221
H    1.238067  -1.470846  0.175924
H    -0.474631  -1.576284  -0.216224
H    0.435286  -3.683746  0.765166
H    -0.955730  -3.044296  1.690335
O    1.565315  1.460315  1.163055
H    2.400260  1.885460  1.459893
H    -1.737575  0.304665  0.291767
Cd    2.397426  -1.815394  4.457328
