20
Energy: -169133.046966 eV PBE+vdW (tier 2 basis)
N    0.429771  1.807179  1.161335
C    0.834207  1.191013  2.475247
C    1.596393  -0.116150  2.152559
O    2.239649  -0.171023  1.052852
H    -0.048223  2.707198  1.297393
H    -0.239094  1.069911  0.738743
H    1.602182  1.833432  2.937100
C    -0.348866  1.048309  3.450804
C    -1.744398  0.679359  2.896472
C    -1.786719  -0.362837  1.804768
O    -1.012877  -0.354408  0.834393
O    -2.747586  -1.251180  1.954794
H    -0.449621  2.005511  3.981242
H    -0.041655  0.317997  4.209486
H    -2.240966  1.568934  2.471626
H    -2.382549  0.367574  3.731281
O    1.631905  -1.042782  3.016985
H    1.231028  1.953588  0.532953
H    -2.796573  -1.839190  1.170190
Cd    3.014989  -2.170436  1.678775
