20
Energy: -169132.858637 eV PBE+vdW (tier 2 basis)
N    0.213777  0.816540  -0.104492
C    0.023353  0.155572  1.246102
C    1.323709  0.534118  2.008270
O    2.218053  1.117149  1.425374
H    1.198853  1.198892  -0.026270
H    -0.410199  1.623839  -0.217061
H    -0.830981  0.630855  1.749148
C    -0.163899  -1.375563  1.208750
C    -1.551220  -1.925384  0.745201
C    -1.521738  -2.812247  -0.485191
O    -0.950363  -2.490054  -1.567546
O    -2.120578  -3.963309  -0.512745
H    0.004675  -1.735353  2.231902
H    0.665262  -1.829045  0.633120
H    -2.253803  -1.108582  0.499028
H    -2.025693  -2.460816  1.576832
O    1.292877  0.148225  3.269403
H    2.114768  0.419929  3.734799
H    -2.551534  -4.217111  0.329476
Cd    -0.013273  -0.614746  -1.707108
