20
Energy: -169132.246575 eV PBE+vdW (tier 2 basis)
N    -0.113391  -0.271051  -0.055462
C    -0.289168  0.083581  1.417502
C    1.020938  0.679402  1.983707
O    1.251529  0.687630  3.161422
H    0.505483  -1.085880  -0.181431
H    0.336241  0.519309  -0.547196
H    -1.032586  0.896240  1.434043
C    -0.762440  -1.095938  2.275793
C    -2.197882  -1.460034  2.139236
C    -2.731575  -2.746136  2.306317
O    -3.835934  -3.024504  1.712988
O    -2.133436  -3.766059  2.940843
H    -0.562310  -0.747307  3.314170
H    -0.089082  -1.959763  2.142935
H    -1.010998  -0.480079  -0.515244
H    -2.924189  -0.700026  1.847981
O    1.775717  1.189179  0.992110
H    2.576805  1.616513  1.365384
H    -1.398957  -3.482007  3.516993
Cd    -5.387438  -4.231473  2.670447
