20
Energy: -169132.405434 eV PBE+vdW (tier 2 basis)
N    -0.025247  -0.491357  -0.116681
C    0.029375  -0.122821  1.352260
C    1.512480  -0.361273  1.723354
O    2.294883  -0.771060  0.887728
H    -0.332647  0.284294  -0.716421
H    0.980094  -0.741790  -0.342190
H    -0.174483  0.952920  1.436192
C    -0.985081  -0.889307  2.223412
C    -0.812142  -2.371746  2.263359
C    -1.850638  -3.303501  2.401473
O    -1.665468  -4.486199  1.931744
O    -3.079470  -3.049094  2.872965
H    -2.005539  -0.597497  1.927796
H    -0.851375  -0.480432  3.246061
H    0.174842  -2.812934  2.116652
H    -0.621240  -1.307121  -0.306839
O    1.758993  -0.060711  2.986981
H    2.715262  -0.169905  3.182045
H    -3.139232  -2.204746  3.358408
Cd    -2.406512  -6.261233  2.953721
