20
Energy: -169132.425661 eV PBE+vdW (tier 2 basis)
N    -0.160808  -0.769308  0.051621
C    -0.079842  0.053692  1.322767
C    1.447555  0.226547  1.521327
O    2.221970  -0.253596  0.716388
H    -0.679952  -0.308371  -0.704852
H    0.862454  -0.868065  -0.225005
H    -0.517729  1.039197  1.116112
C    -0.783033  -0.597231  2.542021
C    -2.268855  -0.654927  2.475142
C    -3.097903  0.236475  3.168454
O    -2.629046  1.321630  3.674337
O    -4.429539  0.090792  3.275775
H    -0.468918  -0.011375  3.415525
H    -0.384773  -1.619674  2.670611
H    -2.753015  -1.362614  1.797812
H    -0.553195  -1.708110  0.193093
O    1.739142  0.930046  2.601166
H    2.712556  1.037358  2.676346
H    -4.746962  -0.781515  2.971333
Cd    -3.575909  2.001843  5.519598
