20
Energy: -169131.868362 eV PBE+vdW (tier 2 basis)
N    -0.529766  -0.539785  -0.144529
C    -0.169821  0.026344  1.211760
C    1.365138  0.099526  1.202278
O    1.990979  -0.380580  0.272189
H    0.413477  -0.797406  -0.549759
H    -0.987257  0.146852  -0.755330
H    -0.611107  1.024746  1.318500
C    -0.747709  -0.977950  2.237358
C    -1.939939  -1.606850  1.512611
C    -1.429533  -1.818836  0.077169
O    -0.647817  -2.917080  -0.081705
O    -2.420414  -1.849287  -0.959098
H    -1.037264  -0.468976  3.161887
H    -0.003566  -1.743713  2.493164
H    -2.797710  -0.915278  1.499854
H    -2.262974  -2.560166  1.943820
O    1.839131  0.685536  2.282860
H    2.820858  0.706691  2.263240
H    -3.289010  -1.487860  -0.690498
Cd    -1.377502  -3.892180  -1.750025
