20
Energy: -169132.130602 eV PBE+vdW (tier 2 basis)
N    0.908484  0.196584  0.733210
C    0.123253  -0.234000  1.934300
C    0.996198  -0.175645  3.213557
O    2.103469  0.393993  3.265183
H    0.324570  0.746024  0.093994
H    1.233369  -0.621750  0.203519
H    -0.648907  0.538570  2.097474
C    -0.546396  -1.602352  1.720091
C    -1.508933  -1.643526  0.520117
C    -2.489266  -2.797068  0.693519
O    -2.655126  -3.334592  1.777494
O    -3.127080  -3.111144  -0.423614
H    -1.146121  -1.871566  2.607307
H    0.219792  -2.388680  1.631749
H    -1.003570  -1.763552  -0.448446
H    -2.122670  -0.729167  0.455861
O    0.552007  -0.693999  4.320982
H    -0.309121  -1.153591  4.241358
H    -3.772515  -3.832560  -0.257002
Cd    2.791438  1.358285  1.426329
