20
Energy: -169133.427914 eV PBE+vdW (tier 2 basis)
N    -0.083467  0.716780  0.344961
C    -0.127107  0.249837  1.757519
C    1.317672  0.305534  2.299444
O    2.279326  -0.033119  1.582109
H    0.122879  1.721404  0.295698
H    -0.993341  0.593810  -0.109031
H    -0.782601  0.908840  2.346390
C    -0.595445  -1.244703  1.899939
C    -1.512357  -1.857805  0.821134
C    -0.846982  -2.582195  -0.333087
O    0.287386  -2.357343  -0.827375
O    -1.595149  -3.534634  -0.816283
H    -1.130962  -1.308843  2.855144
H    0.281110  -1.899333  2.028235
H    -2.163626  -2.600450  1.303170
H    -2.229990  -1.140619  0.385265
O    1.564395  0.634587  3.534206
H    0.783098  0.935370  4.042555
H    -1.174277  -3.986202  -1.582828
Cd    1.586770  -0.682035  -0.409406
