20
Energy: -169131.79264 eV PBE+vdW (tier 2 basis)
N    0.383806  -0.314323  -0.296782
C    -0.040791  -0.066943  0.998125
C    1.199501  -0.046807  2.122659
O    2.182039  -0.789089  1.946887
H    0.650433  -1.251525  -0.588716
H    0.744086  0.441189  -0.871874
H    -0.410841  0.966449  1.058118
C    -1.097210  -1.093991  1.474021
C    -1.711366  -0.912919  2.884596
C    -2.432802  0.373729  3.044083
O    -3.448807  0.864651  2.797252
O    -1.358391  1.423544  3.897440
H    -0.672335  -2.107474  1.442731
H    -1.901016  -1.063663  0.725429
H    -0.983149  -1.032878  3.694830
H    -2.483211  -1.687878  3.016528
O    1.071932  0.750112  3.098511
H    -0.389606  1.342310  3.617396
H    -1.672108  2.352091  3.888356
Cd    3.333678  0.018251  3.730787
