20
Energy: -169133.529485 eV PBE+vdW (tier 2 basis)
N    -1.241406  1.006657  1.060273
C    -0.668086  0.267806  2.261409
C    0.847465  0.432642  2.247143
O    1.399150  0.608086  1.110036
H    -0.620848  0.874740  0.242446
H    -1.290113  2.022367  1.234740
H    -1.115748  0.709139  3.159305
C    -0.966702  -1.255653  2.218760
C    -0.094288  -2.136397  1.267556
C    1.063860  -2.857512  1.933535
O    2.266055  -2.503603  1.951813
O    0.695723  -3.983282  2.492931
H    -2.024456  -1.391059  1.950609
H    -0.884797  -1.612007  3.253708
H    -0.739182  -2.924396  0.859078
H    0.302567  -1.568586  0.416696
O    1.470799  0.152553  3.307050
H    -2.193571  0.688510  0.826571
H    1.455691  -4.448052  2.909817
Cd    3.185887  -0.505955  1.998524
