20
Energy: -169133.618094 eV PBE+vdW (tier 2 basis)
N    1.674964  -0.668043  0.394039
C    0.579016  -0.047416  1.195788
C    1.126710  0.330261  2.578291
O    2.051829  -0.282716  3.143573
H    1.287383  -1.172484  -0.410169
H    2.292265  0.054658  0.005853
H    0.252539  0.884642  0.710692
C    -0.682558  -0.949884  1.325062
C    -0.731991  -2.132310  2.336340
C    -0.053177  -3.433003  1.945812
O    1.187634  -3.583673  1.842507
O    -0.760251  -4.506312  1.712010
H    -0.953339  -1.293152  0.315279
H    -1.493790  -0.272501  1.623801
H    -1.795320  -2.330775  2.525444
H    -0.317131  -1.842307  3.315873
O    0.490169  1.330002  3.120876
H    0.830366  1.545507  4.019788
H    -1.724175  -4.383247  1.824355
Cd    2.680854  -2.044247  1.912786
