20
Energy: -169132.236271 eV PBE+vdW (tier 2 basis)
N    0.589976  -2.145650  0.320092
C    0.417342  -1.242254  1.437475
C    1.196139  -1.851539  2.618336
O    0.721088  -2.652777  3.482693
H    1.454652  -2.056787  -0.208921
H    0.352156  -3.123023  0.478887
H    0.893599  -0.283069  1.180245
C    -1.086045  -0.988825  1.669494
C    -1.462885  0.121335  2.692409
C    -2.699798  -0.191616  3.510227
O    -2.814814  -1.243761  4.207495
O    -3.716383  0.610681  3.572382
H    -1.594177  -1.951785  1.890658
H    -1.496699  -0.729685  0.685080
H    -1.577907  1.080343  2.171843
H    -0.659598  0.287864  3.434479
O    2.488901  -1.698208  2.704158
H    2.867524  -1.104275  2.023490
H    -3.627261  1.422134  3.030764
Cd    -1.238185  -2.630256  4.201505
