20
Energy: -169132.281864 eV PBE+vdW (tier 2 basis)
N    0.271494  -0.170870  0.144304
C    0.002786  -0.244913  1.578001
C    1.303129  -0.607183  2.272644
O    1.906049  -1.720958  2.142297
H    -0.569735  0.086043  -0.375241
H    0.986005  0.522477  -0.088068
H    -0.293503  0.724343  2.017569
C    -1.119764  -1.278266  1.925178
C    -1.532952  -2.295214  0.855298
C    -0.576798  -3.396046  0.423928
O    -1.055843  -4.274429  -0.367122
O    0.640026  -3.490812  0.817523
H    -2.028236  -0.696026  2.133785
H    -0.889963  -1.785219  2.872834
H    -1.860281  -1.819172  -0.081095
H    -2.430012  -2.826196  1.211574
O    1.806360  0.297438  3.040421
H    2.642985  0.012237  3.478010
H    1.385819  -2.405258  1.559318
Cd    0.752941  -5.454690  -0.493598
