20
Energy: -169133.517777 eV PBE+vdW (tier 2 basis)
N    1.298882  -0.500239  0.203692
C    0.468466  -0.041285  1.355069
C    1.355272  0.053904  2.608396
O    2.426168  -0.557646  2.754915
H    0.705584  -0.802176  -0.575899
H    1.867932  0.273021  -0.160399
H    0.121071  0.987151  1.169086
C    -0.814011  -0.901937  1.576892
C    -0.811151  -2.432567  1.300100
C    -0.005433  -3.328331  2.220178
O    1.238889  -3.460995  2.148127
O    -0.590642  -4.043081  3.144433
H    -1.578263  -0.491032  0.903462
H    -1.181888  -0.698516  2.591441
H    -0.477315  -2.655566  0.274539
H    -1.865457  -2.741697  1.326566
O    0.852857  0.856033  3.507261
H    1.416949  0.908636  4.312539
H    -1.566237  -3.970290  3.148054
Cd    2.603327  -2.123389  1.162551
