20
Energy: -169133.01414 eV PBE+vdW (tier 2 basis)
N    -0.381649  -0.164594  -0.133438
C    -0.173202  -0.077797  1.369463
C    1.306554  0.212619  1.698402
O    1.762967  0.011795  2.791933
H    0.247653  -0.862557  -0.554845
H    -0.175790  0.733388  -0.593719
H    -0.738766  0.809161  1.696382
C    -0.665346  -1.334593  2.095830
C    -2.142780  -1.407374  2.486877
C    -3.190786  -1.627523  1.396387
O    -4.295633  -2.146461  1.766805
O    -2.997702  -1.288053  0.176665
H    -0.100317  -1.352167  3.041977
H    -0.347811  -2.241206  1.557368
H    -2.469046  -0.488863  3.006400
H    -2.291905  -2.216578  3.213322
O    1.945088  0.732167  0.633368
H    2.869953  0.952511  0.878102
H    -1.365611  -0.453489  -0.319394
Cd    -5.164226  -2.060928  -0.216502
