20
Energy: -169132.602901 eV PBE+vdW (tier 2 basis)
N    0.056418  0.673070  -0.077533
C    -0.125965  0.305244  1.393427
C    1.282492  0.134960  2.018207
O    1.355390  -0.272138  3.210203
H    0.213486  -0.165146  -0.657855
H    -0.769333  1.163026  -0.450727
H    -0.559749  1.196531  1.875111
C    -1.032156  -0.911422  1.582262
C    -2.475767  -0.657783  1.117964
C    -3.441190  -1.791432  1.478249
O    -4.357066  -2.104449  0.749601
O    -3.179899  -2.345277  2.667010
H    -1.018804  -1.143965  2.655278
H    -0.600309  -1.785817  1.069841
H    -2.569880  -0.525739  0.032160
H    -2.890366  0.243790  1.600437
O    2.286552  0.453126  1.310474
H    0.886345  1.278106  -0.193974
H    -3.858299  -3.027357  2.862153
Cd    3.609310  -0.084163  3.141261
