20
Energy: -169132.267481 eV PBE+vdW (tier 2 basis)
N    -0.496448  0.242708  0.147492
C    -0.172340  -0.220506  1.564551
C    1.268606  -0.775283  1.612372
O    1.615990  -1.606945  2.405035
H    -1.295162  0.892303  0.126519
H    0.332013  0.719997  -0.248123
H    -0.170447  0.696550  2.173603
C    -1.224871  -1.187976  2.134374
C    -1.266510  -2.555953  1.550624
C    -2.439964  -3.198522  1.137363
O    -3.524982  -2.548643  0.899909
O    -2.503233  -4.514484  0.866147
H    -2.214858  -0.714146  2.127059
H    -0.937066  -1.297967  3.198764
H    -0.325381  -3.099414  1.437533
H    -0.716761  -0.551815  -0.470961
O    2.031388  -0.158426  0.685438
H    2.962953  -0.456963  0.762924
H    -1.703017  -5.001449  1.144593
Cd    -5.372686  -3.597352  1.429350
