20
Energy: -169132.736781 eV PBE+vdW (tier 2 basis)
N    -1.358788  1.183084  0.758551
C    -0.708798  0.353710  1.767923
C    0.817048  0.608146  1.576510
O    1.730044  0.142595  2.328655
H    -1.848747  1.999106  1.125913
H    -1.968449  0.683542  0.111839
H    -0.945090  0.735988  2.778822
C    -1.049444  -1.161993  1.666576
C    -2.159936  -1.680169  2.592930
C    -1.810715  -2.015732  4.029888
O    -0.671938  -1.945755  4.569005
O    -2.744490  -2.450909  4.825331
H    -0.145951  -1.790497  1.774185
H    -1.349086  -1.369066  0.628909
H    -2.567552  -2.613761  2.166680
H    -3.014454  -0.982988  2.615127
O    1.109948  1.359274  0.594330
H    0.149435  1.585565  0.217692
H    -3.628133  -2.536862  4.410000
Cd    1.124890  -1.129078  3.872649
