20
Energy: -169132.582035 eV PBE+vdW (tier 2 basis)
N    -0.124350  -0.703026  -0.131585
C    -0.044775  -0.153809  1.138621
C    1.433349  0.469500  1.587624
O    2.394657  0.463229  0.801673
H    -0.097349  -0.095108  -0.946256
H    0.216506  -1.646776  -0.299342
H    -0.625545  0.784369  1.156758
C    -0.481557  -1.140782  2.261107
C    -1.762990  -0.743990  3.011358
C    -1.674454  0.362225  4.023557
O    -0.656007  1.097610  4.237207
O    -2.676495  0.657893  4.786387
H    0.328785  -1.328743  2.976647
H    -0.686430  -2.108199  1.786364
H    -2.142108  -1.626975  3.554938
H    -2.573087  -0.474478  2.310144
O    1.469072  0.973815  2.750739
H    0.165813  0.950166  3.645498
H    -3.465759  0.093804  4.650345
Cd    3.763777  1.583718  2.230938
