20
Energy: -169132.420492 eV PBE+vdW (tier 2 basis)
N    -0.168249  0.994678  1.000423
C    0.040977  0.066138  2.057290
C    1.502044  -0.080675  2.497019
O    1.879688  -0.882225  3.407039
H    -0.235889  1.984440  1.216922
H    0.206873  0.788942  0.078404
H    -0.462930  0.464021  2.957407
C    -0.575166  -1.338109  1.710712
C    -1.567749  -1.927313  2.720444
C    -1.012892  -2.613346  3.957612
O    -1.777300  -3.458635  4.521369
O    0.145770  -2.361623  4.450088
H    0.204089  -2.066769  1.446998
H    -1.153911  -1.173413  0.791049
H    -2.212379  -2.663713  2.221177
H    -2.262684  -1.160375  3.105784
O    2.368203  0.668220  1.904369
H    3.283669  0.531825  2.243495
H    1.112441  -1.482102  3.827167
Cd    -0.457838  -3.993131  6.164619
