20
Energy: -169132.466723 eV PBE+vdW (tier 2 basis)
N    -0.117672  -0.630365  0.106211
C    -0.316642  -0.026466  1.476987
C    1.124976  0.294368  1.943889
O    2.071975  -0.064544  1.270999
H    -0.439761  -0.018467  -0.653404
H    0.935326  -0.728592  0.037891
H    -0.891692  0.902767  1.378922
C    -1.025808  -1.018221  2.442311
C    -2.444653  -1.293870  2.100473
C    -2.853471  -2.407423  1.355219
O    -2.005632  -3.079642  0.648575
O    -4.123972  -2.813168  1.234771
H    -0.989474  -0.544716  3.435630
H    -0.438783  -1.947825  2.488869
H    -0.578473  -1.550220  0.013042
H    -3.198116  -0.545087  2.357391
O    1.137348  0.948751  3.089296
H    2.059946  1.147354  3.361759
H    -4.734130  -2.357243  1.848444
Cd    -2.428594  -5.265435  0.572977
