20
Energy: -169132.88088 eV PBE+vdW (tier 2 basis)
N    -0.003786  -0.203876  0.376640
C    0.682482  -0.433612  1.707158
C    2.184975  -0.644160  1.280195
O    3.117084  -0.751327  2.191391
H    -0.328357  0.761660  0.239704
H    -0.786917  -0.840267  0.184760
H    0.608302  0.506949  2.272112
C    0.088025  -1.625830  2.500985
C    -0.884362  -1.304509  3.650317
C    -0.316312  -0.879222  4.993400
O    0.896226  -0.748894  5.291465
O    -1.141931  -0.633077  5.973592
H    0.902739  -2.270296  2.868129
H    -0.436188  -2.291800  1.799547
H    -1.480878  -2.209540  3.859216
H    -1.624167  -0.541962  3.354387
O    2.421209  -0.687300  0.083636
H    0.804575  -0.394257  -0.307044
H    -2.087580  -0.764551  5.754979
Cd    2.703862  -0.771131  4.201427
