20
Energy: -169132.702613 eV PBE+vdW (tier 2 basis)
N    0.719908  -0.644292  -0.240368
C    0.132949  -0.207720  0.933569
C    1.125681  -0.307897  2.285252
O    2.083782  -1.097701  2.289881
H    0.805254  -1.636960  -0.444122
H    1.349629  -0.037427  -0.756690
H    -0.010201  0.881619  0.875264
C    -1.189167  -0.958664  1.228515
C    -1.961562  -0.671709  2.542471
C    -2.318276  0.762305  2.765272
O    -1.474644  1.655047  3.134615
O    -3.542434  1.109040  2.570251
H    -1.002909  -2.042012  1.210875
H    -1.842851  -0.742207  0.371886
H    -1.395409  -1.010010  3.423102
H    -2.893910  -1.248758  2.513941
O    0.848842  0.478735  3.241404
H    -0.532510  1.266125  3.251153
H    -3.708579  2.065239  2.746756
Cd    2.892107  -0.391059  4.294724
