20
Energy: -169132.54951 eV PBE+vdW (tier 2 basis)
N    -1.480673  1.076653  2.608649
C    -0.591775  0.002572  2.741407
C    0.587187  0.101061  1.608101
O    1.639107  0.680067  1.962254
H    -1.259232  1.958443  3.063694
H    -2.088342  1.164900  1.799553
H    -0.026224  0.126921  3.671570
C    -1.223918  -1.417629  2.752984
C    -2.550085  -1.688739  2.016193
C    -2.554063  -2.006962  0.548992
O    -1.637249  -1.705851  -0.279050
O    -3.553599  -2.618104  -0.002274
H    -1.449626  -1.597371  3.813471
H    -0.466964  -2.168282  2.487719
H    -3.267321  -0.859006  2.157229
H    -3.031734  -2.542572  2.519502
O    0.397231  -0.361281  0.449053
H    -0.832068  -1.182691  0.093783
H    -4.260802  -2.877257  0.623534
Cd    2.672776  0.564466  -0.020639
