20
Energy: -169132.647964 eV PBE+vdW (tier 2 basis)
N    0.152714  0.316223  0.184701
C    0.378744  -0.027453  1.654949
C    1.901879  -0.147350  1.882271
O    2.296059  -0.522055  3.024216
H    0.163808  -0.531227  -0.403299
H    0.909738  0.930166  -0.160099
H    0.055669  0.857390  2.226596
C    -0.391976  -1.275372  2.086460
C    -1.912136  -1.106488  2.062417
C    -2.616894  -2.366613  2.574682
O    -2.023990  -3.392196  2.848862
O    -3.931939  -2.186791  2.665826
H    -0.062952  -1.503266  3.109409
H    -0.083673  -2.140489  1.477451
H    -2.322239  -0.931353  1.053777
H    -2.246859  -0.267101  2.691343
O    2.681693  0.163696  0.930214
H    -0.751829  0.787124  0.040707
H    -4.357597  -3.010021  2.988852
Cd    4.436201  -0.294874  2.378030
