20
Energy: -169132.503035 eV PBE+vdW (tier 2 basis)
N    -0.332515  -0.065174  0.533237
C    0.219196  0.060591  1.911980
C    1.756447  0.217955  1.899217
O    2.376696  0.634511  0.899777
H    -0.363423  -1.051441  0.242306
H    -1.345489  0.274632  0.631322
H    -0.136368  1.042509  2.273859
C    -0.313028  -1.034309  2.877449
C    -1.823786  -1.365411  2.783760
C    -2.764824  -0.202419  2.526862
O    -2.632190  0.580423  1.575421
O    -3.758184  -0.131224  3.385235
H    -0.110356  -0.686877  3.903010
H    0.244155  -1.970879  2.730989
H    -2.124444  -1.874895  3.706712
H    -2.009144  -2.082272  1.967757
O    2.456366  -0.010962  2.972008
H    1.940000  -0.351030  3.730749
H    -4.379263  0.591363  3.143235
Cd    1.087352  0.982141  -0.846625
