20
Energy: -169132.381396 eV PBE+vdW (tier 2 basis)
N    -0.151983  -0.828963  -0.031733
C    0.229123  -0.446909  1.384332
C    1.573830  -1.192432  1.589222
O    2.048667  -1.845125  0.680361
H    0.684661  -1.411001  -0.343446
H    -0.266705  -0.023890  -0.658641
H    0.430633  0.632744  1.397870
C    -0.840014  -0.804116  2.445660
C    -2.084576  0.016613  2.395029
C    -2.558708  0.849252  3.419299
O    -3.266137  1.867791  3.081226
O    -2.254533  0.757567  4.721224
H    -0.333885  -0.720123  3.416970
H    -1.102149  -1.874937  2.332101
H    -2.647509  0.094929  1.464119
H    -0.995397  -1.412939  -0.090436
O    2.074473  -0.999390  2.796205
H    2.940191  -1.455945  2.880389
H    -1.851812  -0.097809  4.962295
Cd    -4.946026  2.537406  4.294327
