20
Energy: -169133.34754 eV PBE+vdW (tier 2 basis)
N    0.924283  -0.726770  0.722169
C    -0.227407  -0.044417  1.380771
C    0.297843  1.162246  2.184400
O    1.427222  1.167504  2.703108
H    1.212337  -0.218218  -0.121945
H    0.653714  -1.665720  0.410997
H    -0.913174  0.324161  0.601065
C    -1.057876  -0.992235  2.299421
C    -0.576261  -1.360112  3.734025
C    0.462128  -2.460248  3.874449
O    1.651969  -2.366534  3.490899
O    0.153558  -3.593753  4.445453
H    -1.283196  -1.901517  1.721948
H    -2.030748  -0.500457  2.435575
H    -1.474999  -1.649399  4.294606
H    -0.179773  -0.479483  4.266313
O    -0.477059  2.189488  2.403429
H    -1.328836  2.172365  1.920762
H    -0.769826  -3.645241  4.764160
Cd    2.508098  -0.741660  2.381398
