20
Energy: -169132.848392 eV PBE+vdW (tier 2 basis)
N    -0.971726  1.268782  2.205853
C    -0.318313  0.004830  2.722575
C    0.843796  0.581623  3.598129
O    1.660980  -0.261134  4.190819
H    -1.965462  1.353117  2.448857
H    -0.872412  1.398772  1.191633
H    -1.043451  -0.476157  3.393997
C    0.122306  -0.961920  1.592250
C    -0.326575  -2.427260  1.704632
C    0.417243  -3.348511  2.666138
O    0.287693  -4.603616  2.482397
O    1.134100  -2.899896  3.628081
H    1.209236  -0.901965  1.442090
H    -0.313753  -0.612177  0.644779
H    -0.248990  -2.911399  0.721329
H    -1.390489  -2.516674  1.983471
O    0.941982  1.789534  3.702027
H    -0.395641  2.023137  2.713090
H    1.445415  -1.206983  3.998265
Cd    1.585496  -5.079327  4.167945
