20
Energy: -169133.221097 eV PBE+vdW (tier 2 basis)
N    0.727012  -0.602743  0.635371
C    -0.222360  0.135423  1.516332
C    0.574451  1.108420  2.414987
O    1.767059  0.931701  2.702399
H    1.038449  -0.003628  -0.138302
H    0.268754  -1.408970  0.198206
H    -0.878506  0.756781  0.884679
C    -1.161028  -0.806617  2.340727
C    -0.681626  -2.208030  2.817004
C    0.357595  -2.287278  3.921090
O    1.582924  -2.106185  3.736476
O    0.014185  -2.588994  5.144857
H    -2.031065  -1.007394  1.701285
H    -1.552138  -0.239247  3.196849
H    -0.293339  -2.806631  1.978379
H    -1.589882  -2.735238  3.141133
O    -0.029359  2.150334  2.922434
H    -0.944199  2.294149  2.605046
H    -0.937067  -2.786310  5.259399
Cd    2.466858  -1.075184  2.073299
