20
Energy: -169132.300585 eV PBE+vdW (tier 2 basis)
N    0.027337  -1.150198  0.018181
C    0.145960  -0.281494  1.179504
C    1.626223  -0.010319  1.418683
O    2.298034  -0.288558  2.456273
H    0.537434  -0.843646  -0.810770
H    -0.942756  -1.346956  -0.230925
H    -0.253439  0.740979  0.989429
C    -0.649766  -0.847570  2.370002
C    -0.419827  -2.338757  2.710753
C    0.422887  -2.594941  3.939483
O    0.113028  -3.553430  4.713197
O    1.448649  -1.860665  4.207408
H    -1.707132  -0.737875  2.092735
H    -0.527257  -0.197392  3.247113
H    0.090237  -2.853330  1.874615
H    -1.367803  -2.866265  2.858524
O    2.211070  0.606358  0.443387
H    3.165185  0.781389  0.615372
H    1.854096  -0.902326  3.199284
Cd    1.762267  -3.267846  6.104249
