20
Energy: -169132.393306 eV PBE+vdW (tier 2 basis)
N    0.010321  0.834679  0.787352
C    0.008339  0.034346  1.957535
C    1.330121  -0.769404  2.132495
O    1.410071  -1.860126  2.700124
H    0.273679  1.814922  0.821600
H    -0.048437  0.414418  -0.136495
H    -0.001752  0.716027  2.826396
C    -1.256535  -0.876516  2.001864
C    -1.742457  -1.286956  3.416016
C    -1.491979  -2.724706  3.821050
O    -2.443690  -3.339316  4.380173
O    -0.357843  -3.312033  3.640558
H    -1.115057  -1.746267  1.345197
H    -2.064776  -0.286972  1.552509
H    -2.819212  -1.108766  3.514024
H    -1.268376  -0.684202  4.211599
O    2.369306  -0.139742  1.639637
H    3.197187  -0.646234  1.798788
H    0.389039  -2.674555  3.211567
Cd    -1.959389  -5.374889  4.991138
