33
Energy: -173898.703577 eV PBE+vdW (tier 2 basis)
C    -0.611634  1.402755  0.069674
C    -0.352942  0.456566  1.196010
O    0.798357  -0.098360  1.250583
H    0.120946  2.221096  0.133195
H    -1.621421  1.825969  0.089439
H    -0.434863  0.894693  -0.887063
N    -1.326646  0.257794  2.093483
C    -1.236239  -0.274185  3.466491
C    -1.544878  -1.789738  3.521593
O    -0.866506  -2.572239  2.753916
H    -2.200429  0.760623  1.919369
H    -0.170179  -0.240387  3.755949
C    -1.950116  0.718296  4.408333
C    -3.308638  1.248197  3.992518
C    -3.699006  2.505377  4.506533
C    -4.201079  0.564669  3.149857
C    -4.942634  3.050033  4.203103
C    -5.446223  1.116453  2.835917
C    -5.821267  2.359941  3.364680
H    -1.270555  1.576669  4.513091
H    -1.992856  0.279453  5.416935
H    -3.016474  3.054239  5.157008
H    -3.958258  -0.416170  2.733372
H    -5.225721  4.016693  4.617055
H    -6.129942  0.574162  2.183985
H    -6.794547  2.783078  3.120229
N    -2.396359  -2.391349  4.334935
C    -3.376038  -1.931658  5.329240
H    -2.331659  -3.408645  4.247110
H    -3.869234  -1.009002  5.019227
H    -2.890990  -1.802128  6.305441
H    -4.134186  -2.715418  5.420629
Cd    1.040217  -2.115479  1.894164
