33
Energy: -173898.799605 eV PBE+vdW (tier 2 basis)
C    -0.166288  0.101948  0.190032
C    -0.201204  -0.041108  1.675509
O    0.940863  -0.071798  2.271442
H    -1.165119  0.176153  -0.253575
H    0.344289  -0.777207  -0.231117
H    0.430790  0.979692  -0.087546
N    -1.385142  -0.159360  2.282857
C    -1.657396  -0.598686  3.656221
C    -2.524515  -1.902066  3.783238
O    -2.094531  -2.724668  4.579762
H    -2.187894  -0.105887  1.658259
H    -0.708688  -0.980515  4.054870
C    -2.182219  0.518477  4.608551
C    -1.063726  1.429145  5.041362
C    -0.087550  0.946882  5.951544
C    -0.886044  2.714230  4.501649
C    1.117608  1.690688  6.186331
C    0.271497  3.466306  4.751425
C    1.298774  2.948896  5.545927
H    -2.614478  0.011242  5.482964
H    -2.987223  1.089883  4.129868
H    -0.261503  0.020523  6.506928
H    -1.659719  3.132570  3.856571
H    1.818561  1.359477  6.956992
H    0.378240  4.457592  4.311195
H    2.207131  3.521696  5.731211
N    -3.674647  -2.041682  3.088405
C    -4.343246  -1.118342  2.180380
H    -4.132963  -2.935104  3.261891
H    -5.410008  -1.363702  2.155603
H    -3.972847  -1.201616  1.145044
H    -4.277092  -0.078997  2.528780
Cd    1.488120  0.473292  4.193016
