33
Energy: -173899.130294 eV PBE+vdW (tier 2 basis)
C    0.261116  -1.703881  2.799643
C    -1.002087  -0.910643  2.772519
O    -1.365663  -0.280562  3.809004
H    0.495292  -2.170060  1.836633
H    0.178426  -2.481113  3.571783
H    1.088731  -1.046573  3.098454
N    -1.726068  -0.894795  1.611648
C    -2.925747  -0.083098  1.605693
C    -4.156464  -0.805861  2.185117
O    -4.554503  -0.473208  3.353028
H    -1.395443  -1.430907  0.814528
H    -2.640589  0.568800  2.421844
C    -3.234607  1.028656  0.555098
C    -3.923584  2.085958  1.417914
C    -5.313272  2.223888  1.467325
C    -3.162187  2.737627  2.415617
C    -5.950517  2.875891  2.538065
C    -3.794443  3.345953  3.536602
C    -5.212148  3.382938  3.600468
H    -3.866904  0.700061  -0.276974
H    -2.284664  1.395004  0.141142
H    -5.926002  1.779605  0.681367
H    -2.073070  2.796920  2.324797
H    -7.036972  2.955666  2.545921
H    -3.202403  3.944604  4.234708
H    -5.705379  3.859542  4.446651
N    -4.795306  -1.751798  1.519532
C    -4.492619  -2.295028  0.196020
H    -5.571621  -2.181870  2.026616
H    -3.746962  -1.680797  -0.315893
H    -5.405823  -2.307043  -0.410036
H    -4.116393  -3.321796  0.288285
Cd    -3.242125  0.988923  4.349879
