33
Energy: -173899.00724 eV PBE+vdW (tier 2 basis)
C    -1.284568  -1.011309  -0.328986
C    -0.848560  -0.740535  1.074025
O    0.379099  -0.441890  1.260177
H    -1.104873  -0.105911  -0.927337
H    -2.342733  -1.283518  -0.402861
H    -0.661079  -1.805153  -0.759953
N    -1.767398  -0.807548  2.047878
C    -1.700917  -0.266597  3.417526
C    -1.169057  -1.293000  4.445092
O    0.056924  -1.668494  4.420866
H    -2.709765  -1.070449  1.754431
H    -0.933826  0.528745  3.416257
C    -3.030309  0.433034  3.758164
C    -4.345065  -0.291786  3.515945
C    -4.488404  -1.675271  3.324556
C    -5.509748  0.509991  3.501922
C    -5.754998  -2.239273  3.132028
C    -6.768724  -0.052267  3.318870
C    -6.898100  -1.430282  3.131947
H    -3.048250  1.365910  3.174576
H    -2.969930  0.772424  4.806341
H    -3.632023  -2.352891  3.323028
H    -5.419917  1.588277  3.641791
H    -5.849498  -3.314368  2.984216
H    -7.650589  0.586685  3.317205
H    -7.880539  -1.876064  2.983666
N    -1.965385  -1.751204  5.388014
C    -1.563423  -2.676705  6.451596
H    -2.950380  -1.490776  5.339939
H    -0.505301  -2.530426  6.684442
H    -1.723484  -3.714677  6.131476
H    -2.174225  -2.472898  7.336122
Cd    1.473046  -0.819772  3.053039
