33
Energy: -173899.072467 eV PBE+vdW (tier 2 basis)
C    -2.397048  -1.424976  -0.255669
C    -1.767908  -0.955567  1.014993
O    -0.520510  -1.166953  1.169696
H    -1.940375  -0.871035  -1.089370
H    -3.481011  -1.269939  -0.279090
H    -2.165749  -2.485927  -0.412095
N    -2.542755  -0.323586  1.911542
C    -2.114642  0.528785  3.033389
C    -1.981051  -0.288599  4.335518
O    -0.957752  -1.031109  4.546346
H    -3.517995  -0.219656  1.637424
H    -1.097885  0.889800  2.802413
C    -3.036050  1.768654  3.122292
C    -3.032744  2.593781  1.855616
C    -4.130183  2.561777  0.984189
C    -1.924746  3.410137  1.541308
C    -4.120770  3.318964  -0.186027
C    -1.913107  4.165365  0.373763
C    -3.009073  4.120568  -0.495302
H    -2.693710  2.378241  3.972080
H    -4.070341  1.452564  3.337752
H    -5.016462  1.975389  1.236636
H    -1.082016  3.478997  2.232461
H    -4.981948  3.303814  -0.852789
H    -1.062088  4.805591  0.146245
H    -3.010295  4.720866  -1.404194
N    -2.921342  -0.225241  5.255030
C    -2.886601  -0.965884  6.523956
H    -3.711815  0.392115  5.088268
H    -3.786311  -0.715581  7.090933
H    -1.997751  -0.682755  7.099869
H    -2.861347  -2.044434  6.329911
Cd    0.525701  -1.358038  3.029913
