33
Energy: -173899.1836 eV PBE+vdW (tier 2 basis)
C    -1.195182  -0.960773  -0.344304
C    -0.807837  -0.679368  1.070078
O    0.432362  -0.463754  1.303492
H    -0.936657  -0.084379  -0.956766
H    -2.263400  -1.174284  -0.457222
H    -0.602579  -1.801875  -0.726471
N    -1.770421  -0.648982  2.001263
C    -1.691250  -0.143929  3.379322
C    -1.282669  -1.274651  4.347249
O    -0.037245  -1.518604  4.580267
H    -2.719018  -0.875118  1.689665
H    -0.868210  0.590865  3.422389
C    -2.977492  0.663388  3.735621
C    -4.290770  -0.068490  3.584002
C    -4.958694  -0.590228  4.714135
C    -4.894325  -0.216128  2.323111
C    -6.167479  -1.276525  4.577831
C    -6.098898  -0.907950  2.187651
C    -6.730489  -1.452405  3.313357
H    -2.963463  1.551367  3.087846
H    -2.853523  1.027842  4.764822
H    -4.566352  -0.392660  5.715012
H    -4.469648  0.281937  1.447243
H    -6.681594  -1.649574  5.462751
H    -6.564857  -0.999021  1.207147
H    -7.676401  -1.980831  3.203632
N    -2.198891  -2.005834  4.933786
C    -1.920587  -3.117470  5.850541
H    -3.182549  -1.751245  4.761149
H    -2.864203  -3.626672  6.061664
H    -1.489674  -2.740317  6.786259
H    -1.216246  -3.819056  5.390261
Cd    1.366135  -0.723102  3.196956
