33
Energy: -173899.104086 eV PBE+vdW (tier 2 basis)
C    0.742085  2.544929  1.629787
C    0.283049  1.127608  1.531836
O    0.861311  0.260342  2.269908
H    0.582095  2.886676  2.663469
H    0.212302  3.218283  0.947544
H    1.822671  2.596088  1.444248
N    -0.726176  0.838559  0.693792
C    -1.590413  -0.358056  0.672137
C    -1.068371  -1.394811  -0.342581
O    0.106974  -1.902759  -0.215533
H    -1.068442  1.623042  0.141598
H    -1.504467  -0.841281  1.660517
C    -3.052882  0.137592  0.501255
C    -4.103723  -0.942160  0.387759
C    -4.310435  -1.873724  1.420540
C    -4.916377  -1.003006  -0.765448
C    -5.297028  -2.846043  1.299645
C    -5.905509  -1.977086  -0.885028
C    -6.094066  -2.904579  0.144541
H    -3.105719  0.792723  -0.382918
H    -3.263024  0.775182  1.373348
H    -3.724901  -1.818861  2.340092
H    -4.805490  -0.249060  -1.549160
H    -5.465382  -3.554584  2.109591
H    -6.541733  -2.002368  -1.768626
H    -6.871299  -3.662983  0.059849
N    -1.822067  -1.773464  -1.348704
C    -1.448817  -2.782245  -2.343604
H    -2.777569  -1.401911  -1.388377
H    -2.366606  -3.202376  -2.764200
H    -0.854007  -3.570885  -1.872889
H    -0.860474  -2.320168  -3.146866
Cd    1.243487  -1.728614  1.583476
