33
Energy: -173899.320692 eV PBE+vdW (tier 2 basis)
C    0.392279  0.916394  1.090123
C    -0.280883  -0.070955  1.981545
O    0.383266  -0.732085  2.878646
H    0.857275  1.713476  1.688978
H    -0.291387  1.374520  0.368499
H    1.202222  0.408125  0.547694
N    -1.565293  -0.323824  1.821528
C    -2.388458  -1.310572  2.510758
C    -3.495000  -1.627701  1.444801
O    -3.701976  -0.763648  0.588102
H    -2.107340  0.068848  1.022979
H    -1.779513  -2.187981  2.765264
C    -3.097163  -0.736421  3.789377
C    -2.117665  -0.297641  4.836218
C    -1.516508  -1.239607  5.697945
C    -1.725908  1.055161  4.924649
C    -0.486665  -0.874339  6.562504
C    -0.700657  1.454906  5.782727
C    -0.026902  0.481956  6.592998
H    -3.746450  -1.530151  4.182759
H    -3.742584  0.096942  3.481868
H    -1.850623  -2.277537  5.682949
H    -2.230098  1.803320  4.312444
H    -0.043059  -1.604987  7.239736
H    -0.428770  2.507528  5.873086
H    0.677189  0.804804  7.363886
N    -4.155893  -2.781297  1.572250
C    -5.231844  -3.189133  0.663085
H    -3.841722  -3.454937  2.263645
H    -4.854188  -3.889840  -0.092080
H    -5.623857  -2.299372  0.163030
H    -6.027845  -3.670463  1.240617
Cd    1.185443  0.000228  4.650284
