33
Energy: -173898.860209 eV PBE+vdW (tier 2 basis)
C    -2.123903  -0.424288  -0.235838
C    -1.416534  -0.429675  1.079805
O    -0.174667  -0.155044  1.085659
H    -2.048203  0.582717  -0.670097
H    -3.179876  -0.703486  -0.155275
H    -1.612335  -1.108507  -0.925385
N    -2.126215  -0.719019  2.184733
C    -1.675602  -0.552031  3.568201
C    -0.777370  -1.719613  4.043462
O    0.490967  -1.527266  4.119979
H    -3.124988  -0.855880  2.044203
H    -1.004384  0.323590  3.587980
C    -2.856664  -0.196344  4.505796
C    -3.468909  1.140754  4.158023
C    -2.815756  2.340684  4.515924
C    -4.696638  1.203954  3.483841
C    -3.375920  3.572524  4.197705
C    -5.259973  2.437512  3.163346
C    -4.597939  3.625765  3.517124
H    -2.466348  -0.186666  5.534447
H    -3.626692  -0.976608  4.465142
H    -1.882057  2.306061  5.081674
H    -5.240376  0.287540  3.244414
H    -2.876770  4.493518  4.495166
H    -6.221794  2.483014  2.654220
H    -5.046934  4.588209  3.275158
N    -1.237059  -2.902366  4.409913
C    -2.606185  -3.423637  4.472873
H    -0.502124  -3.541580  4.720728
H    -2.547923  -4.513107  4.385829
H    -3.209292  -3.048808  3.641329
H    -3.079462  -3.174767  5.430792
Cd    1.359001  -0.270313  2.600131
