33
Energy: -173898.820079 eV PBE+vdW (tier 2 basis)
C    1.306165  -0.934842  2.302511
C    -0.015901  -0.240000  2.271303
O    -0.135492  0.924612  2.788451
H    2.041977  -0.292170  1.797693
H    1.296613  -1.917205  1.819030
H    1.646362  -1.043938  3.341111
N    -1.034712  -0.857661  1.663202
C    -2.380256  -0.396493  1.320855
C    -3.047702  0.508776  2.347346
O    -2.934198  0.299993  3.604096
H    -0.822464  -1.771720  1.252672
H    -2.316125  0.145593  0.363175
C    -3.289981  -1.661192  1.109865
C    -2.698581  -2.642540  0.131678
C    -2.737896  -2.383426  -1.261305
C    -2.104704  -3.828483  0.588230
C    -2.206286  -3.292598  -2.168770
C    -1.568716  -4.740465  -0.322379
C    -1.616835  -4.471994  -1.704040
H    -4.264621  -1.300376  0.752155
H    -3.451059  -2.138016  2.085849
H    -3.213090  -1.473058  -1.631593
H    -2.103116  -4.065304  1.653731
H    -2.258457  -3.091251  -3.237616
H    -1.127692  -5.670795  0.033546
H    -1.201807  -5.191002  -2.409277
N    -3.863889  1.439121  1.872631
C    -4.725355  2.292940  2.691296
H    -3.910120  1.565284  0.863400
H    -4.937747  1.795302  3.641217
H    -5.662296  2.468017  2.152329
H    -4.242825  3.263923  2.872487
Cd    -1.262190  1.246970  4.594121
