33
Energy: -173899.277879 eV PBE+vdW (tier 2 basis)
C    -0.132353  0.180708  -0.057891
C    -0.213981  0.075644  1.429842
O    0.926499  0.030083  2.049169
H    -1.119474  0.225344  -0.528981
H    0.406743  -0.699403  -0.438420
H    0.459727  1.061049  -0.338870
N    -1.407370  0.005527  1.993243
C    -1.862131  -0.442520  3.309633
C    -3.163024  -1.256108  2.934063
O    -3.697251  -0.978829  1.858775
H    -2.241830  -0.065313  1.363477
H    -1.106396  -1.093624  3.775340
C    -2.278435  0.717174  4.269121
C    -1.127320  1.604002  4.651786
C    -0.888124  2.819630  3.980792
C    -0.201326  1.191891  5.639940
C    0.282294  3.559023  4.191354
C    1.009933  1.925494  5.854614
C    1.259042  3.104191  5.089775
H    -2.723440  0.262933  5.165257
H    -3.068172  1.302963  3.780314
H    -1.625529  3.183818  3.264630
H    -0.410547  0.321589  6.265937
H    0.442353  4.491184  3.649840
H    1.677975  1.651171  6.674484
H    2.172459  3.674135  5.260074
N    -3.603780  -2.144697  3.829698
C    -4.825479  -2.934657  3.643681
H    -3.046438  -2.330876  4.657219
H    -5.325205  -2.590490  2.734765
H    -5.491251  -2.797282  4.503237
H    -4.575621  -3.997382  3.541666
Cd    1.461451  0.721628  3.899438
