37
Energy: -576760.204749 eV PBE+vdW (tier 2 basis)
C    -1.665637  -1.531026  -0.834233
C    -1.296386  -1.430990  0.614971
O    -0.654444  -2.269920  1.232993
H    -2.457174  -0.835081  -1.134729
H    -1.970535  -2.559627  -1.056550
H    -0.769599  -1.324060  -1.437132
N    -1.733692  -0.282135  1.292954
C    -1.229563  -0.068125  2.612948
C    -2.231689  0.057723  3.727313
O    -1.887963  0.960008  4.636464
H    -2.189442  0.469082  0.783235
H    -0.631542  -0.996229  2.802444
C    -0.367770  1.199123  2.813345
C    -0.551123  1.540130  4.302475
C    0.482861  0.896168  5.214868
C    -0.451139  2.991425  4.696062
N    1.083458  1.823341  5.900912
C    0.578543  3.124541  5.637828
C    -1.135472  4.118300  4.274401
C    0.979730  4.332737  6.185267
C    -0.762288  5.359439  4.823651
C    0.274663  5.465056  5.754756
H    -0.747059  2.035968  2.211196
H    0.679414  1.027915  2.541347
H    0.726695  -0.160636  5.307479
H    1.834414  1.635838  6.571775
H    -1.950840  4.061849  3.553842
H    1.794472  4.408467  6.904410
H    -1.294704  6.257903  4.515016
H    0.542744  6.441937  6.153859
N    -3.335558  -0.606251  3.916390
C    -3.859167  -1.709898  3.090922
H    -3.879361  -0.348793  4.742755
H    -4.514168  -2.310417  3.728608
H    -3.039979  -2.337491  2.728718
H    -4.439223  -1.314808  2.249050
Hg    2.400400  -1.658885  3.207602
