37
Energy: -576759.343169 eV PBE+vdW (tier 2 basis)
C    1.958077  0.329153  1.361434
C    1.124276  -0.133484  2.518686
O    1.632088  -0.735637  3.482621
H    2.509907  1.230838  1.664641
H    1.359779  0.564194  0.473080
H    2.699587  -0.439309  1.117635
N    -0.221326  0.117612  2.485041
C    -1.017597  -0.120146  3.671098
C    -1.139294  -1.627418  3.979695
O    -0.952236  -2.044696  5.143914
H    -0.604768  0.645297  1.705967
H    -0.480935  0.287424  4.541684
C    -2.402332  0.589337  3.644622
C    -3.302937  0.306281  2.488955
C    -4.291409  -0.713516  2.440305
C    -3.419542  1.026831  1.263012
N    -4.949121  -0.646275  1.270759
C    -4.453007  0.412545  0.503635
C    -2.783373  2.179244  0.740552
C    -4.847028  0.871526  -0.739231
C    -3.166171  2.650351  -0.515423
C    -4.175039  2.009453  -1.244688
H    -2.200514  1.669358  3.691524
H    -2.902200  0.329308  4.587836
H    -4.559050  -1.442168  3.199692
H    -5.728859  -1.244012  1.005812
H    -2.032707  2.720443  1.318733
H    -5.644002  0.396836  -1.310722
H    -2.691873  3.539475  -0.927037
H    -4.466119  2.400953  -2.218469
N    -1.480341  -2.442115  2.975672
C    -1.633608  -3.887659  3.118855
H    -1.599082  -2.030482  2.054459
H    -1.259897  -4.377373  2.213632
H    -2.686395  -4.162166  3.268052
H    -1.062846  -4.218172  3.992407
Hg    1.253353  -1.306427  6.023136
