37
Energy: -576759.389392 eV PBE+vdW (tier 2 basis)
C    -1.982157  -2.607453  0.689192
C    -1.517081  -1.422007  1.486877
O    -0.491765  -0.804317  1.123296
H    -2.004625  -2.335609  -0.373249
H    -2.966629  -2.978811  0.994771
H    -1.241805  -3.412223  0.796312
N    -2.256586  -1.077626  2.572737
C    -2.045516  0.106100  3.403250
C    -1.193420  -0.268192  4.639438
O    0.053473  -0.384448  4.524784
H    -3.025022  -1.696159  2.816391
H    -1.411377  0.784479  2.815344
C    -3.382370  0.832940  3.706228
C    -3.965885  1.481235  2.492520
C    -5.012283  0.961725  1.689871
C    -3.604829  2.731497  1.913587
N    -5.280478  1.819694  0.690527
C    -4.439677  2.932473  0.781075
C    -2.667248  3.734003  2.257679
C    -4.373946  4.064843  -0.007869
C    -2.585762  4.881922  1.467017
C    -3.419247  5.046380  0.356107
H    -3.188860  1.600711  4.469559
H    -4.113346  0.129911  4.135734
H    -5.580867  0.044616  1.810860
H    -6.012194  1.693909  -0.004950
H    -2.027747  3.628447  3.134332
H    -5.024461  4.214682  -0.868923
H    -1.874204  5.665026  1.722259
H    -3.344940  5.952446  -0.243614
N    -1.789272  -0.500121  5.805725
C    -1.060614  -0.906312  7.013042
H    -2.799171  -0.426291  5.866393
H    -0.762450  -1.960155  6.947069
H    -1.714664  -0.765349  7.877414
H    -0.162438  -0.290010  7.125330
Hg    1.320337  0.109610  2.503004
