37
Energy: -576759.768596 eV PBE+vdW (tier 2 basis)
C    1.506371  -1.016964  0.873215
C    0.673566  -0.982461  2.113166
O    0.433754  -2.126859  2.659085
H    2.426390  -1.584324  1.059093
H    1.744407  -0.015336  0.501267
H    0.946037  -1.560538  0.097734
N    0.247662  0.201684  2.557058
C    -0.899864  0.589409  3.391339
C    -1.524218  1.773219  2.547546
O    -0.759346  2.394448  1.810764
H    0.460056  1.027530  1.958779
H    -1.624150  -0.237704  3.462177
C    -0.537010  1.184725  4.790022
C    -0.012942  0.331756  5.912104
C    -0.644438  -0.893140  6.473857
C    1.090688  0.615880  6.715922
N    0.089177  -1.217386  7.628741
C    1.127161  -0.355609  7.791841
C    2.078356  1.644633  6.668380
C    2.106964  -0.320505  8.789240
C    3.027768  1.674226  7.656768
C    3.038692  0.700476  8.704250
H    -1.457535  1.668077  5.162384
H    0.172420  2.004068  4.616453
H    -1.733148  -0.977173  6.556287
H    -0.153484  -1.970859  8.265496
H    2.075003  2.389539  5.874208
H    2.133381  -1.049581  9.597472
H    3.792921  2.448745  7.657109
H    3.815236  0.768592  9.466343
N    -2.823115  2.033755  2.739608
C    -3.527760  3.128400  2.064475
H    -3.375751  1.400769  3.308873
H    -4.209333  2.730689  1.302687
H    -2.787208  3.773097  1.584325
H    -4.099362  3.707351  2.798159
Hg    -0.173989  -2.052083  4.684169
