37
Energy: -576759.884116 eV PBE+vdW (tier 2 basis)
C    -2.141115  0.810016  -0.362725
C    -1.521128  0.554732  0.980201
O    -0.326395  0.657090  1.221737
H    -3.232067  0.913727  -0.334099
H    -1.891145  -0.031826  -1.024611
H    -1.693183  1.705854  -0.806601
N    -2.405040  0.134149  1.992953
C    -1.877167  -0.060517  3.322762
C    -2.177501  -1.472413  3.862036
O    -1.764892  -1.916968  4.997247
H    -3.387595  0.375954  1.883582
H    -0.780825  -0.063161  3.149280
C    -2.209225  1.142385  4.296895
C    -1.003085  2.009696  4.540294
C    -0.374486  2.830774  3.577583
C    -0.147925  2.015793  5.658610
N    0.797278  3.295044  4.055395
C    1.002704  2.800171  5.330563
C    -0.189199  1.365411  6.975011
C    2.082616  2.940211  6.176476
C    0.980690  1.528240  7.829854
C    2.061420  2.276727  7.435366
H    -2.641621  0.792861  5.245050
H    -3.012241  1.729725  3.832851
H    -0.702713  3.083504  2.574701
H    1.430796  3.908765  3.549202
H    -1.136930  1.470453  7.528926
H    2.948337  3.541604  5.895148
H    0.952566  1.091265  8.827455
H    2.908944  2.399678  8.107732
N    -2.831918  -2.301558  3.078302
C    -3.110762  -3.705681  3.392361
H    -3.077072  -1.932371  2.159579
H    -2.175467  -4.276140  3.449666
H    -3.740074  -4.115707  2.598842
H    -3.635224  -3.780235  4.351251
Hg    -0.640237  -0.658926  6.317390
