37
Energy: -576759.371102 eV PBE+vdW (tier 2 basis)
C    -0.058915  0.973040  2.415363
C    -1.051522  -0.015152  2.953798
O    -1.667510  0.289884  4.020371
H    0.457479  0.640484  1.508263
H    0.675049  1.216504  3.193780
H    -0.597206  1.905541  2.190751
N    -1.220542  -1.148338  2.237581
C    -2.285156  -2.177985  2.136524
C    -3.429057  -2.025154  3.154410
O    -3.266943  -2.103962  4.400220
H    -0.620070  -1.174047  1.415699
H    -2.708592  -2.011427  1.137332
C    -1.705775  -3.648102  2.093976
C    -1.617296  -4.301943  3.437726
C    -2.570092  -5.171908  3.984155
C    -0.828169  -3.860371  4.519279
N    -2.455533  -5.211405  5.336025
C    -1.464414  -4.330329  5.725938
C    0.294493  -3.001307  4.606633
C    -1.299506  -3.666836  6.921247
C    0.546546  -2.377559  5.809503
C    -0.372569  -2.563836  6.938936
H    -0.731809  -3.608961  1.583772
H    -2.364599  -4.232988  1.438581
H    -3.344715  -5.741923  3.478316
H    -3.055589  -5.743922  5.958964
H    0.913966  -2.800299  3.734388
H    -1.889668  -3.893479  7.808763
H    1.397241  -1.709062  5.939642
H    -0.103059  -2.131431  7.903826
N    -4.664051  -1.902887  2.657789
C    -5.120107  -1.851682  1.264419
H    -5.383140  -1.850356  3.378930
H    -4.654175  -1.020178  0.721432
H    -6.200123  -1.679770  1.273744
H    -4.933563  -2.796941  0.739245
Hg    -1.648537  -1.014098  5.803663
