37
Energy: -576760.189392 eV PBE+vdW (tier 2 basis)
C    -0.638544  -1.012496  0.136954
C    -0.573077  -0.823174  1.622483
O    0.459651  -0.708975  2.268605
H    -0.399772  -0.053589  -0.345421
H    -1.617917  -1.349878  -0.220895
H    0.135378  -1.725323  -0.168829
N    -1.801601  -0.780751  2.301217
C    -1.777629  -0.414688  3.682157
C    -2.289449  -1.422792  4.675210
O    -2.994183  -0.878131  5.657916
H    -2.675104  -0.808846  1.783585
H    -0.685124  -0.287342  3.888224
C    -2.581735  0.851454  4.061886
C    -3.001217  0.607030  5.523189
C    -2.021009  1.178207  6.536928
C    -4.306936  1.201488  5.987294
N    -2.654216  1.974810  7.343856
C    -4.047494  2.046665  7.075099
C    -5.604477  1.071643  5.524200
C    -5.015069  2.790646  7.731638
C    -6.613769  1.803407  6.178909
C    -6.325460  2.646706  7.255553
H    -3.486700  0.946161  3.446762
H    -1.991817  1.765703  3.931973
H    -0.951025  0.978867  6.607441
H    -2.199290  2.497319  8.098918
H    -5.856739  0.417141  4.690416
H    -4.780937  3.452310  8.564795
H    -7.643437  1.709864  5.836700
H    -7.129416  3.203696  7.733938
N    -2.105645  -2.710460  4.700595
C    -1.279888  -3.503218  3.772800
H    -2.551789  -3.213802  5.470080
H    -1.859957  -3.776810  2.883935
H    -0.980018  -4.412986  4.300494
H    -0.384374  -2.942586  3.488406
Hg    1.288657  -1.058135  6.042987
