37
Energy: -576759.51771 eV PBE+vdW (tier 2 basis)
C    -1.671468  1.758889  1.619311
C    -1.391120  0.695466  2.636058
O    -0.244639  0.422067  3.045784
H    -1.313358  2.720655  2.009957
H    -2.731189  1.851135  1.357837
H    -1.092265  1.550361  0.710152
N    -2.441485  -0.019296  3.124689
C    -2.262157  -0.997510  4.185994
C    -1.034741  -1.880868  3.893628
O    -0.937676  -2.467512  2.784274
H    -3.383040  0.223182  2.834018
H    -2.109225  -0.484355  5.150469
C    -3.513171  -1.910830  4.282470
C    -3.754602  -2.701030  3.038225
C    -3.076911  -3.928823  2.694312
C    -4.682691  -2.464694  1.995488
N    -3.529918  -4.369552  1.524029
C    -4.528002  -3.505976  1.035535
C    -5.682288  -1.480831  1.783586
C    -5.284324  -3.588752  -0.111091
C    -6.458403  -1.551908  0.632247
C    -6.261613  -2.580720  -0.301452
H    -4.385381  -1.280810  4.507843
H    -3.382794  -2.579861  5.144717
H    -2.364530  -4.499457  3.278940
H    -3.228363  -5.228613  1.069112
H    -5.867137  -0.697624  2.519711
H    -5.159627  -4.387615  -0.841105
H    -7.237992  -0.813030  0.455582
H    -6.884727  -2.619024  -1.194442
N    -0.181426  -2.069982  4.904459
C    1.031295  -2.865438  4.806926
H    -0.269480  -1.455646  5.711156
H    0.864068  -3.714788  4.138294
H    1.307033  -3.218588  5.806296
H    1.867170  -2.260999  4.414366
Hg    1.279176  -1.195621  1.564626
