37
Energy: -576759.760554 eV PBE+vdW (tier 2 basis)
C    0.740671  0.092919  1.019599
C    -0.175988  -0.358135  2.117633
O    0.047891  -0.097907  3.311442
H    0.355056  -0.135296  0.019632
H    0.924836  1.169671  1.111542
H    1.707880  -0.412566  1.148870
N    -1.282986  -1.091936  1.762762
C    -2.212490  -1.556063  2.760080
C    -3.157899  -2.699223  2.288179
O    -4.253802  -2.790155  2.845430
H    -1.588446  -1.042754  0.792503
H    -1.613641  -1.986566  3.577691
C    -3.125563  -0.443479  3.341457
C    -2.448801  0.452516  4.271952
C    -1.512683  0.025918  5.305678
C    -2.558541  1.858937  4.417275
N    -1.121794  1.075661  6.003216
C    -1.731723  2.250577  5.506351
C    -3.326948  2.841263  3.751123
C    -1.641045  3.543451  5.958111
C    -3.257374  4.158187  4.194281
C    -2.440463  4.507399  5.280062
H    -3.933182  -1.045600  3.836037
H    -3.630064  0.110446  2.538728
H    -1.185278  -0.976354  5.561400
H    -0.464145  1.041878  6.780969
H    -3.984043  2.573661  2.924104
H    -1.026685  3.829627  6.810862
H    -3.862673  4.924644  3.713662
H    -2.471055  5.524952  5.668034
N    -2.707089  -3.533148  1.340501
C    -3.466559  -4.707193  0.901835
H    -1.729086  -3.469423  1.071478
H    -4.533484  -4.463462  0.907767
H    -3.293876  -5.560283  1.571071
H    -3.150015  -4.970392  -0.111925
Hg    0.197093  6.211229  4.231607
