37
Energy: -576759.729405 eV PBE+vdW (tier 2 basis)
C    -3.176032  -3.250626  1.883494
C    -2.557651  -1.964784  2.342002
O    -1.461858  -1.600804  1.847596
H    -2.482745  -4.072876  2.105009
H    -3.299117  -3.221115  0.793361
H    -4.143574  -3.454709  2.355186
N    -3.221925  -1.250009  3.295427
C    -2.710518  0.023571  3.753408
C    -1.649315  -0.109275  4.872853
O    -0.444624  0.075813  4.565493
H    -4.086646  -1.634841  3.664649
H    -2.090947  0.324133  2.910747
C    -3.710575  1.207447  3.866287
C    -3.697931  1.933953  2.549138
C    -4.781380  2.099720  1.678657
C    -2.560402  2.468383  1.864248
N    -4.366636  2.691628  0.530562
C    -3.009088  2.926444  0.590984
C    -1.172211  2.650539  2.183673
C    -2.173921  3.529626  -0.342524
C    -0.322511  3.291731  1.209546
C    -0.813161  3.694079  -0.022712
H    -3.380440  1.874605  4.676566
H    -4.724807  0.878391  4.127921
H    -5.823977  1.834258  1.825163
H    -4.975931  2.958075  -0.238903
H    -0.861210  2.689898  3.232637
H    -2.559970  3.884045  -1.299037
H    0.708829  3.511933  1.484438
H    -0.151091  4.179992  -0.736943
N    -2.038457  -0.417789  6.105617
C    -1.123816  -0.589424  7.238906
H    -3.034020  -0.505505  6.288071
H    -1.503045  -1.389501  7.882374
H    -1.050881  0.338989  7.819462
H    -0.133541  -0.856783  6.860274
Hg    -0.140875  0.439789  2.123368
