37
Energy: -576759.450311 eV PBE+vdW (tier 2 basis)
C    0.892296  -1.185072  4.555839
C    0.062898  -0.409101  3.577684
O    0.570040  0.137989  2.582045
H    0.395577  -1.321141  5.523735
H    1.106342  -2.175518  4.128015
H    1.852320  -0.677541  4.698768
N    -1.283314  -0.306281  3.815480
C    -2.157665  0.253105  2.805355
C    -1.872171  1.756520  2.561826
O    -1.822904  2.194356  1.391186
H    -1.681201  -0.825175  4.594230
H    -1.942866  -0.222014  1.832568
C    -3.652540  0.008591  3.164709
C    -4.584720  0.216462  2.018256
C    -5.068666  -0.822028  1.174266
C    -5.172015  1.418297  1.542591
N    -5.882362  -0.302110  0.245289
C    -5.983734  1.082651  0.423638
C    -5.106074  2.771694  1.955878
C    -6.705339  2.018589  -0.287246
C    -5.828842  3.731631  1.244642
C    -6.612123  3.366946  0.146508
H    -3.940620  0.644396  4.015236
H    -3.739463  -1.036713  3.497738
H    -4.871453  -1.889295  1.221070
H    -6.374860  -0.839638  -0.464873
H    -4.524184  3.061005  2.829754
H    -7.325818  1.752413  -1.142397
H    -5.794588  4.774699  1.553465
H    -7.175222  4.128985  -0.390681
N    -1.733585  2.535784  3.636050
C    -1.467435  3.970654  3.579059
H    -1.786403  2.093731  4.550821
H    -2.386023  4.549134  3.747975
H    -1.067119  4.218824  2.591880
H    -0.740994  4.230756  4.356450
Hg    0.007831  0.920413  0.135191
