37
Energy: -576759.849413 eV PBE+vdW (tier 2 basis)
C    -1.862497  -0.780657  -0.350338
C    -2.012596  -1.110176  1.090662
O    -1.462626  -2.171984  1.542584
H    -1.960871  -1.707127  -0.932513
H    -2.591863  -0.043201  -0.696825
H    -0.838514  -0.416672  -0.528967
N    -2.725164  -0.309610  1.924163
C    -2.552022  1.144190  2.037586
C    -1.047990  1.474237  1.922306
O    -0.201796  0.695399  2.415894
H    -2.982024  -0.745863  2.814199
H    -3.124634  1.660974  1.254898
C    -3.078818  1.633375  3.444184
C    -3.286995  0.599539  4.521257
C    -4.562487  0.271170  5.007963
C    -2.373867  -0.174374  5.301554
N    -4.471585  -0.632105  6.011534
C    -3.146891  -0.940457  6.231253
C    -0.928072  -0.343642  5.348977
C    -2.588242  -1.775944  7.190165
C    -0.376890  -1.205857  6.375801
C    -1.188535  -1.909185  7.249032
H    -4.038940  2.136986  3.282813
H    -2.387448  2.408569  3.803266
H    -5.527214  0.659196  4.693100
H    -5.259113  -0.998237  6.540517
H    -0.292716  0.467813  4.977499
H    -3.219372  -2.313929  7.899022
H    0.707591  -1.263027  6.468870
H    -0.742998  -2.551504  8.006399
N    -0.736360  2.625315  1.324374
C    0.623169  3.153559  1.202820
H    -1.490845  3.181716  0.931534
H    0.835585  3.384707  0.152849
H    1.327056  2.398578  1.561349
H    0.729328  4.068017  1.799309
Hg    -0.682743  -1.608789  3.529908
