37
Energy: -576760.137097 eV PBE+vdW (tier 2 basis)
C    -1.824328  1.776129  0.342755
C    -1.048548  1.000566  1.363982
O    0.147057  0.698617  1.073407
H    -1.252976  2.674828  0.075582
H    -2.823122  2.070696  0.682282
H    -1.914909  1.172197  -0.570184
N    -1.684949  0.707017  2.519947
C    -1.226505  0.008003  3.735944
C    0.057286  0.673540  4.282773
O    1.200872  0.350459  3.894098
H    -2.647552  1.030063  2.550728
H    -2.018472  0.207990  4.465308
C    -1.172078  -1.562061  3.558257
C    -0.131296  -2.298166  4.352368
C    -0.087376  -2.468926  5.744318
C    1.069632  -2.854085  3.859901
N    1.081113  -3.054714  6.105479
C    1.841113  -3.288858  4.976729
C    1.644930  -2.983011  2.526212
C    3.127696  -3.785004  4.850498
C    2.996746  -3.504348  2.437107
C    3.705564  -3.870814  3.560765
H    -1.056516  -1.795109  2.491022
H    -2.174555  -1.936450  3.807462
H    -0.827913  -2.206807  6.494292
H    1.340676  -3.304589  7.055447
H    0.978249  -3.369946  1.738586
H    3.699718  -4.100573  5.724228
H    3.424769  -3.661846  1.447599
H    4.713045  -4.270364  3.459027
N    -0.094781  1.628829  5.209060
C    -1.325010  2.188882  5.773163
H    0.784622  2.052399  5.502474
H    -1.908628  1.432508  6.313719
H    -1.946395  2.661676  5.001858
H    -1.042091  2.962513  6.492536
Hg    1.421914  -0.910240  1.838273
