37
Energy: -576759.348978 eV PBE+vdW (tier 2 basis)
C    -3.299237  -2.198105  0.142257
C    -2.114569  -1.374370  0.574850
O    -0.968462  -1.843185  0.389609
H    -3.786678  -1.732494  -0.726738
H    -4.034321  -2.301129  0.951207
H    -2.950136  -3.191598  -0.150865
N    -2.301752  -0.163165  1.145344
C    -3.545334  0.539985  1.379795
C    -3.265446  2.038061  1.122103
O    -2.276192  2.543436  1.656708
H    -1.468192  0.369890  1.405851
H    -4.327298  0.143761  0.720841
C    -3.983034  0.382233  2.894207
C    -5.111651  1.246006  3.312781
C    -6.494243  0.886333  3.261895
C    -5.068536  2.553256  3.877266
N    -7.233154  1.884423  3.757374
C    -6.405127  2.944285  4.154780
C    -4.012910  3.439963  4.200777
C    -6.730814  4.155070  4.729767
C    -4.328651  4.677146  4.776065
C    -5.653021  5.028228  5.039171
H    -3.095996  0.611820  3.498497
H    -4.234315  -0.676779  3.047011
H    -6.948436  -0.040413  2.922719
H    -8.245860  1.861665  3.863293
H    -2.976389  3.169577  4.004178
H    -7.758882  4.442225  4.948729
H    -3.528775  5.369463  5.032542
H    -5.876176  5.989903  5.499481
N    -4.160729  2.700409  0.368248
C    -4.072692  4.137763  0.121188
H    -4.919371  2.183800  -0.063315
H    -4.425726  4.352247  -0.892519
H    -3.028835  4.449889  0.222782
H    -4.683400  4.700832  0.840446
Hg    1.356910  -0.914887  0.159635
