37
Energy: -576759.199901 eV PBE+vdW (tier 2 basis)
C    -1.539963  3.324903  1.830670
C    -1.584143  2.051055  2.624736
O    -1.622650  2.119196  3.877372
H    -1.582605  3.161158  0.748197
H    -0.624055  3.873211  2.086909
H    -2.385433  3.956167  2.134577
N    -1.595630  0.886320  1.933199
C    -1.928350  -0.430786  2.475304
C    -0.664911  -1.239634  2.849571
O    0.247560  -0.699403  3.524273
H    -1.548035  0.971954  0.922013
H    -2.410422  -0.242740  3.450446
C    -2.993645  -1.124774  1.611235
C    -2.776668  -1.359010  0.141213
C    -3.871683  -1.743034  -0.679635
C    -1.639167  -1.293052  -0.726045
N    -3.458818  -1.908465  -1.943241
C    -2.093134  -1.642671  -2.034563
C    -0.263580  -0.973426  -0.573045
C    -1.268874  -1.688618  -3.142830
C    0.577038  -1.012720  -1.682696
C    0.089971  -1.364145  -2.948233
H    -3.917666  -0.533194  1.717715
H    -3.254048  -2.083144  2.098050
H    -4.909524  -1.897094  -0.397822
H    -4.056059  -2.181640  -2.720530
H    0.158732  -0.700389  0.392341
H    -1.642171  -1.962187  -4.129193
H    1.631193  -0.767360  -1.566110
H    0.767386  -1.388395  -3.800569
N    -0.578925  -2.521200  2.488400
C    0.534629  -3.394979  2.857007
H    -1.273723  -2.895473  1.850035
H    0.955666  -3.058814  3.808716
H    1.322621  -3.363846  2.092171
H    0.163239  -4.420150  2.950837
Hg    -0.267157  0.820380  5.355523
