37
Energy: -576759.302255 eV PBE+vdW (tier 2 basis)
C    0.690972  1.014704  0.538587
C    0.225272  0.694770  1.931142
O    0.837106  1.197258  2.898464
H    0.143017  0.463806  -0.234195
H    1.762311  0.794151  0.460234
H    0.569354  2.093091  0.367165
N    -0.857999  -0.118066  2.053494
C    -1.582811  -0.383317  3.289419
C    -1.016433  -1.652644  3.970935
O    -0.024791  -1.559976  4.739292
H    -1.227198  -0.519588  1.195997
H    -1.326639  0.430608  3.982103
C    -3.125951  -0.301642  3.106565
C    -3.779667  -1.123181  2.041217
C    -3.867914  -0.785404  0.669520
C    -4.517118  -2.337620  2.194593
N    -4.577668  -1.726718  0.015077
C    -5.002812  -2.707134  0.909043
C    -4.862454  -3.140990  3.310566
C    -5.775925  -3.834931  0.694012
C    -5.639574  -4.281311  3.105135
C    -6.085470  -4.626115  1.823204
H    -3.339225  0.759692  2.906377
H    -3.581248  -0.523155  4.081256
H    -3.507540  0.100460  0.154188
H    -4.813468  -1.695393  -0.973831
H    -4.556261  -2.863946  4.319747
H    -6.144769  -4.107181  -0.294384
H    -5.921669  -4.901895  3.953874
H    -6.698704  -5.516044  1.688502
N    -1.555235  -2.839856  3.711245
C    -1.041156  -4.092232  4.273566
H    -2.329493  -2.891738  3.053909
H    -0.107241  -4.386419  3.778178
H    -1.792824  -4.872134  4.124703
H    -0.847951  -3.965960  5.344289
Hg    1.074179  0.536050  5.231808
