37
Energy: -576759.237062 eV PBE+vdW (tier 2 basis)
C    0.231291  -1.325639  0.396911
C    0.013357  -0.658052  1.724654
O    0.977156  -0.163443  2.342021
H    -0.667470  -1.818701  0.009006
H    1.037865  -2.062050  0.496369
H    0.571015  -0.571849  -0.326009
N    -1.257586  -0.633715  2.215029
C    -1.619535  0.095210  3.417000
C    -1.055990  -0.540625  4.719913
O    -0.302175  0.152113  5.448956
H    -1.991261  -1.017759  1.628257
H    -1.115760  1.074154  3.384280
C    -3.149336  0.354502  3.528225
C    -3.655249  1.322846  2.508647
C    -3.577100  2.736514  2.614132
C    -4.308181  1.053005  1.273262
N    -4.131560  3.298889  1.528233
C    -4.603153  2.305286  0.665293
C    -4.721006  -0.133458  0.619935
C    -5.262816  2.417144  -0.543159
C    -5.382460  -0.037248  -0.603922
C    -5.647077  1.211844  -1.178334
H    -3.336346  0.748645  4.537404
H    -3.703036  -0.590753  3.456967
H    -3.173147  3.343030  3.419535
H    -4.227205  4.300265  1.375665
H    -4.557418  -1.112944  1.071745
H    -5.492481  3.381497  -0.995153
H    -5.712059  -0.940482  -1.114138
H    -6.172107  1.265302  -2.131057
N    -1.378500  -1.777392  5.107539
C    -2.321891  -2.737342  4.540608
H    -0.949555  -2.039021  5.996508
H    -3.324498  -2.616719  4.972784
H    -1.964339  -3.744590  4.780421
H    -2.366080  -2.648950  3.452312
Hg    1.509663  1.320143  4.316046
