37
Energy: -576759.831869 eV PBE+vdW (tier 2 basis)
C    0.519756  0.900971  0.574147
C    0.213810  0.495996  1.984161
O    1.039470  0.558438  2.903565
H    -0.306562  0.731868  -0.124896
H    1.408557  0.357319  0.230739
H    0.778757  1.968522  0.569087
N    -1.063259  0.038935  2.243343
C    -1.496265  -0.209214  3.612956
C    -1.001774  -1.630958  4.037829
O    -1.691202  -2.727688  4.111966
H    -1.714806  -0.091919  1.475753
H    -0.902213  0.478953  4.235177
C    -2.991359  0.172258  3.761223
C    -3.501566  0.394682  5.160819
C    -3.040878  1.365957  6.069492
C    -4.496049  -0.329887  5.853313
N    -3.677713  1.235438  7.256388
C    -4.572213  0.185693  7.184155
C    -5.341914  -1.479253  5.503824
C    -5.391407  -0.362764  8.153504
C    -6.174694  -2.031859  6.559405
C    -6.185160  -1.493142  7.825594
H    -3.636209  -0.540831  3.222119
H    -3.099296  1.112948  3.199394
H    -2.295385  2.142877  5.923854
H    -3.527637  1.830801  8.067046
H    -5.836135  -1.451853  4.520605
H    -5.430810  0.052950  9.161583
H    -6.844238  -2.853934  6.308370
H    -6.837135  -1.916544  8.587912
N    0.298626  -1.695060  4.215240
C    1.053367  -2.913762  4.495052
H    0.812459  -0.822694  3.941597
H    1.987000  -2.631620  4.990225
H    1.290017  -3.439729  3.560018
H    0.471958  -3.580826  5.138260
Hg    -3.664698  -2.712907  4.866199
