37
Energy: -576760.068015 eV PBE+vdW (tier 2 basis)
C    -0.899330  -0.555039  -0.039816
C    -0.898279  -0.778809  1.443487
O    0.050897  -1.468155  1.922907
H    -0.906274  -1.525531  -0.551865
H    0.040930  -0.058309  -0.316571
H    -1.739421  0.052899  -0.392598
N    -1.885858  -0.189996  2.149652
C    -2.116826  -0.054301  3.598978
C    -0.800746  0.169040  4.377040
O    -0.194446  -0.771984  4.946725
H    -2.547448  0.321769  1.572980
H    -2.669204  0.890003  3.679138
C    -3.067016  -1.121632  4.279603
C    -3.196286  -2.503262  3.709323
C    -4.144977  -2.883378  2.752583
C    -2.476689  -3.690055  4.018241
N    -4.025169  -4.204104  2.459766
C    -3.004387  -4.746299  3.210567
C    -1.363385  -4.008446  4.905421
C    -2.531362  -6.049126  3.266580
C    -0.889433  -5.371478  4.927646
C    -1.454137  -6.347607  4.126025
H    -4.068970  -0.673968  4.276475
H    -2.769503  -1.178156  5.335156
H    -4.918439  -2.282273  2.283291
H    -4.629739  -4.719551  1.826474
H    -1.235561  -3.422110  5.823120
H    -2.979962  -6.837017  2.660082
H    -0.098025  -5.629849  5.630382
H    -1.081569  -7.369161  4.175515
N    -0.348093  1.419882  4.482598
C    -0.931388  2.662034  3.971091
H    0.503659  1.499904  5.038059
H    -1.105688  2.606485  2.889921
H    -0.215808  3.468981  4.152217
H    -1.864098  2.915749  4.492602
Hg    0.021028  -2.777149  3.694201
