37
Energy: -576760.162608 eV PBE+vdW (tier 2 basis)
C    1.714558  -1.191925  2.382048
C    0.354771  -1.047267  2.959737
O    0.300834  -0.176941  3.960116
H    2.393899  -1.586511  3.151618
H    1.716022  -1.865687  1.520241
H    2.098378  -0.206628  2.085596
N    -0.651210  -1.727472  2.495081
C    -2.074617  -1.781476  2.846853
C    -2.629884  -2.725972  1.718920
O    -1.841899  -3.050202  0.822866
H    -0.558607  -2.329667  1.622452
H    -2.198592  -2.283886  3.818954
C    -2.717933  -0.388886  2.851848
C    -2.109563  0.531372  3.857375
C    -0.924867  0.131208  4.710658
C    -2.473735  1.805756  4.210813
N    -0.646741  1.299372  5.495757
C    -1.560232  2.263936  5.258461
C    -3.535046  2.661929  3.772472
C    -1.721783  3.505724  5.874149
C    -3.662436  3.884303  4.367864
C    -2.767448  4.295899  5.418579
H    -3.800383  -0.472737  3.040452
H    -2.632992  0.055045  1.844526
H    -1.138918  -0.736488  5.359032
H    0.046811  1.316837  6.238104
H    -4.222428  2.338090  2.992569
H    -1.068872  3.838270  6.679222
H    -4.462187  4.561865  4.073973
H    -2.960613  5.246618  5.915105
N    -3.907036  -3.102010  1.808245
C    -4.551355  -3.988346  0.833116
H    -4.439465  -2.852429  2.635822
H    -3.932355  -4.026445  -0.066768
H    -5.542392  -3.595408  0.582872
H    -4.652769  -4.999916  1.245362
Hg    -1.694914  6.821077  3.534912
