37
Energy: -576759.133314 eV PBE+vdW (tier 2 basis)
C    0.598174  0.387321  0.416185
C    0.069574  0.470084  1.818028
O    0.837009  0.706741  2.772900
H    0.831830  1.403987  0.068857
H    -0.111300  -0.072365  -0.281706
H    1.536418  -0.178617  0.416506
N    -1.267008  0.274001  2.010985
C    -1.861625  0.511064  3.312550
C    -1.403798  -0.499119  4.390829
O    -1.020682  -0.038606  5.498497
H    -1.857594  0.158406  1.193379
H    -1.444792  1.457352  3.691912
C    -3.396612  0.763895  3.285699
C    -4.326156  -0.352169  2.945164
C    -4.878746  -0.615524  1.666298
C    -4.915047  -1.298835  3.832627
N    -5.724819  -1.658467  1.747499
C    -5.787352  -2.117493  3.065811
C    -4.811909  -1.524185  5.225827
C    -6.536848  -3.139597  3.618976
C    -5.560212  -2.555126  5.797721
C    -6.405374  -3.348076  5.013488
H    -3.556642  1.602707  2.591547
H    -3.649690  1.146850  4.284608
H    -4.734140  -0.083166  0.730383
H    -6.278673  -2.020449  0.974504
H    -4.176374  -0.896750  5.851400
H    -7.208464  -3.758576  3.024888
H    -5.499962  -2.736016  6.869444
H    -6.988588  -4.139721  5.481967
N    -1.389058  -1.822702  4.203930
C    -1.865390  -2.656798  3.107904
H    -1.009546  -2.322913  5.009897
H    -2.689880  -3.294388  3.452087
H    -1.044697  -3.299848  2.764541
H    -2.209685  -2.047328  2.272635
Hg    0.779440  1.619733  5.184874
