37
Energy: -576759.820157 eV PBE+vdW (tier 2 basis)
C    -0.297075  -0.501247  -0.323678
C    -0.679574  0.223613  0.929857
O    -0.793944  1.469749  0.934512
H    0.652611  -0.093907  -0.693457
H    -1.052840  -0.302520  -1.095111
H    -0.199642  -1.583410  -0.182973
N    -0.892051  -0.524135  2.058657
C    -1.352487  0.146102  3.252552
C    -0.203636  0.817324  4.044588
O    -0.135179  2.076092  4.103137
H    -0.811812  -1.535159  2.004962
H    -1.894124  0.998391  2.839439
C    -2.414146  -0.550412  4.124534
C    -3.074158  0.479676  5.002437
C    -3.174436  0.398860  6.396094
C    -3.618159  1.753660  4.645399
N    -3.727364  1.533618  6.890016
C    -4.007203  2.400922  5.856490
C    -3.866549  2.460361  3.416842
C    -4.594047  3.660141  5.901048
C    -4.493857  3.759162  3.480284
C    -4.822114  4.343729  4.692351
H    -2.005253  -1.367355  4.734393
H    -3.153595  -1.002629  3.443676
H    -2.886132  -0.414332  7.055389
H    -3.937259  1.700036  7.870981
H    -3.986309  1.896630  2.485703
H    -4.887110  4.110502  6.850218
H    -4.758811  4.252421  2.545421
H    -5.296777  5.322929  4.711744
N    0.699747  0.047707  4.638424
C    1.867640  0.556432  5.363767
H    0.580467  -0.959884  4.583479
H    2.166784  1.517307  4.934983
H    2.684719  -0.164330  5.264447
H    1.634311  0.694919  6.427038
Hg    -1.684637  3.150037  2.661354
