37
Energy: -576759.266901 eV PBE+vdW (tier 2 basis)
C    -0.211350  1.398580  0.298973
C    -0.222212  0.779187  1.665217
O    0.793694  0.805902  2.387648
H    -0.237717  2.492293  0.408417
H    -1.058178  1.084336  -0.322202
H    0.729296  1.145742  -0.203003
N    -1.374819  0.178601  2.081586
C    -1.535753  -0.300657  3.441209
C    -0.588351  -1.473427  3.801542
O    0.113852  -1.374929  4.837246
H    -2.187985  0.233786  1.474602
H    -1.214863  0.497494  4.131050
C    -3.025934  -0.632764  3.755494
C    -3.332469  -0.649973  5.217180
C    -3.843009  0.458989  5.945371
C    -3.207157  -1.713135  6.151237
N    -4.015120  0.111974  7.229278
C    -3.637579  -1.222232  7.415372
C    -2.781181  -3.060098  6.053414
C    -3.653259  -1.998150  8.556393
C    -2.788797  -3.857148  7.198680
C    -3.214647  -3.340398  8.426247
H    -3.315795  -1.585208  3.291861
H    -3.635839  0.151283  3.281842
H    -4.098773  1.452799  5.589074
H    -4.393121  0.720585  7.951894
H    -2.468201  -3.479374  5.098099
H    -3.988003  -1.614114  9.519472
H    -2.469874  -4.896006  7.138378
H    -3.219293  -3.980289  9.307623
N    -0.530043  -2.590357  3.065976
C    -1.318986  -3.026348  1.916206
H    0.147522  -3.263400  3.426447
H    -0.650787  -3.529684  1.207697
H    -1.775200  -2.177958  1.404413
H    -2.098983  -3.738765  2.218912
Hg    1.487959  0.719922  4.842807
