37
Energy: -576760.169965 eV PBE+vdW (tier 2 basis)
C    -3.694250  -1.620415  0.516979
C    -2.780001  -0.825560  1.402550
O    -1.744751  -1.415675  1.834155
H    -3.125111  -1.944313  -0.365525
H    -4.006892  -2.530551  1.043840
H    -4.577782  -1.065262  0.184077
N    -3.119948  0.460560  1.627187
C    -2.425619  1.593579  2.273318
C    -0.909406  1.618998  1.969970
O    -0.062225  1.019249  2.674990
H    -3.990794  0.724964  1.175836
H    -2.844626  2.464516  1.753426
C    -2.749948  1.860598  3.802671
C    -3.202431  0.741052  4.692583
C    -4.537200  0.376034  4.900279
C    -2.440306  -0.126586  5.522312
N    -4.617852  -0.657951  5.777689
C    -3.349413  -1.009554  6.185671
C    -1.015092  -0.303377  5.778538
C    -2.936181  -1.987518  7.078945
C    -0.622477  -1.338979  6.703634
C    -1.557184  -2.153333  7.319002
H    -3.538061  2.624071  3.812474
H    -1.863426  2.345863  4.233011
H    -5.437938  0.818184  4.484416
H    -5.482201  -1.070390  6.116790
H    -0.351828  0.565971  5.695716
H    -3.659701  -2.622092  7.592450
H    0.434924  -1.439009  6.946189
H    -1.228383  -2.917818  8.020611
N    -0.539624  2.371220  0.933273
C    0.850362  2.542460  0.507990
H    -1.248042  2.903613  0.437092
H    0.870888  2.698148  -0.574965
H    1.420233  1.646018  0.767116
H    1.301059  3.410410  1.006736
Hg    -0.683776  -1.015126  3.711973
