21
Energy: -33480.3441117 eV PBE+vdW (tier 2 basis)
N    -0.519712  0.394486  0.079476
C    -0.146790  0.052121  1.443325
C    1.380930  0.194061  1.454038
O    1.886821  1.306754  1.837317
H    -0.782877  -0.398748  -0.499431
H    -1.230475  1.118216  0.022037
H    -0.495425  0.846557  2.115528
C    -0.695685  -1.282806  2.009575
C    -0.670309  -2.469646  1.103020
N    0.472348  -2.935800  0.466703
C    -1.667908  -3.348391  0.761366
C    0.199757  -4.044921  -0.228883
N    -1.099894  -4.307188  -0.052333
H    -1.743758  -1.111270  2.287037
H    -0.170891  -1.527404  2.947598
H    -2.713784  -3.374674  1.040906
H    0.893264  -4.622740  -0.827924
H    -1.588581  -5.101237  -0.460781
O    2.182308  -0.727180  1.005465
H    1.366728  -2.431339  0.512522
Ca    3.838088  0.742015  1.188703
