21
Energy: -33480.2650107 eV PBE+vdW (tier 2 basis)
N    -0.671572  -0.038478  1.858290
C    0.765071  -0.220038  1.899745
C    1.098476  -0.986675  0.616363
O    0.834959  -2.242877  0.475660
H    -0.986252  0.858938  2.215869
H    -1.211576  -0.799680  2.261694
H    1.227741  0.763622  1.751265
C    1.401629  -0.805650  3.199673
C    0.654702  -1.896550  3.898246
N    0.354615  -1.823702  5.255035
C    0.158501  -3.109663  3.487529
C    -0.279186  -2.928696  5.663289
N    -0.406265  -3.716541  4.592130
H    1.506137  0.035235  3.899536
H    2.428231  -1.144664  2.988937
H    0.173680  -3.570540  2.509317
H    -0.624013  -3.142570  6.668335
H    -0.852284  -4.630987  4.604806
O    1.574174  -0.331908  -0.381025
H    0.595202  -1.048702  5.869640
Ca    1.298028  -2.020876  -1.662332
