21
Energy: -33479.4157317 eV PBE+vdW (tier 2 basis)
N    0.504315  0.064543  0.170890
C    0.229896  -0.297222  1.602005
C    1.541216  -0.188629  2.371902
O    2.428791  0.590444  1.951863
H    0.844592  -0.793421  -0.289430
H    -0.507372  0.130965  -0.211438
H    -0.391635  0.522712  2.012712
C    -0.587598  -1.592748  1.732640
C    -1.918622  -1.424681  1.047723
N    -2.072988  -0.501807  0.025228
C    -3.107811  -2.082594  1.257122
C    -3.333331  -0.601154  -0.377737
N    -3.982648  -1.545767  0.343339
H    -0.766096  -1.832194  2.793938
H    -0.015080  -2.436043  1.307590
H    -3.401897  -2.858613  1.953075
H    -3.801247  -0.023014  -1.166336
H    -4.956737  -1.812430  0.229941
O    1.763517  -0.824288  3.484451
H    1.032662  -1.425296  3.738574
Ca    2.233269  1.661982  0.087643
