21
Energy: -33479.9433488 eV PBE+vdW (tier 2 basis)
N    1.789293  -1.879904  0.708841
C    0.597477  -1.128052  1.057900
C    0.961078  -0.091252  2.118281
O    0.739899  -0.281232  3.341703
H    2.303397  -2.279014  1.492119
H    2.423374  -1.433053  0.050690
H    0.252935  -0.594119  0.158274
C    -0.516492  -2.098322  1.516520
C    -1.865825  -1.515193  1.810027
N    -2.245461  -0.992944  3.057251
C    -2.949850  -1.447319  0.970426
C    -3.531569  -0.628652  2.939884
N    -3.973208  -0.887948  1.698943
H    -0.150272  -2.685868  2.375458
H    -0.616288  -2.829071  0.703689
H    -3.080378  -1.765565  -0.057143
H    -4.153951  -0.192273  3.714077
H    -4.918033  -0.715192  1.361917
O    1.610751  1.004886  1.810426
H    1.765130  1.101160  0.848800
Ca    -0.749524  -0.707612  4.775939
