21
Energy: -33480.3909428 eV PBE+vdW (tier 2 basis)
N    -0.389466  1.064988  1.089804
C    0.357934  0.111139  1.924201
C    1.825036  0.329427  1.506206
O    2.760754  -0.419330  1.899768
H    -0.906785  0.627952  0.325065
H    -1.027429  1.660251  1.616985
H    0.283991  0.428959  2.975756
C    -0.077448  -1.379744  1.814674
C    0.131777  -2.240056  3.027326
N    1.364037  -2.732292  3.484039
C    -0.856403  -2.733293  3.843683
C    1.087800  -3.500157  4.550215
N    -0.233211  -3.515109  4.786272
H    0.384750  -1.840900  0.927545
H    -1.157588  -1.382770  1.618550
H    -1.932454  -2.607659  3.820871
H    1.802752  -4.048445  5.155576
H    -0.694506  -4.030830  5.532844
O    2.011182  1.317086  0.723083
H    0.985045  1.635085  0.602550
Ca    3.484616  -2.177009  2.748558
