21
Energy: -33480.4334035 eV PBE+vdW (tier 2 basis)
N    -1.169911  0.306887  0.773614
C    -0.110493  -0.037551  1.709347
C    1.249287  0.377319  1.167097
O    1.325841  1.358543  0.338696
H    -0.996126  1.218946  0.350071
H    -2.069787  0.363783  1.251851
H    -0.149392  0.550936  2.656022
C    -0.184104  -1.509751  2.164527
C    -0.287092  -2.538511  1.081475
N    0.058855  -3.866311  1.313897
C    -0.771643  -2.509840  -0.203299
C    -0.198151  -4.618548  0.236402
N    -0.698066  -3.800690  -0.692762
H    -1.068466  -1.608079  2.814806
H    0.685818  -1.726811  2.800116
H    -1.178261  -1.680125  -0.765240
H    -0.031623  -5.684857  0.139529
H    -0.999056  -4.099224  -1.617633
O    2.332935  -0.159035  1.608321
H    0.436424  -4.235265  2.183531
Ca    3.473012  1.397184  0.597629
