21
Energy: -33480.2993557 eV PBE+vdW (tier 2 basis)
N    -0.142973  0.379449  0.113733
C    0.319052  -0.166837  1.389528
C    1.381862  -1.162217  0.916993
O    2.565160  -0.733130  0.667898
H    -0.166623  1.395775  0.094101
H    -1.042293  0.007269  -0.184942
H    0.842454  0.616334  1.953352
C    -0.824050  -0.767900  2.238813
C    -0.436216  -1.326527  3.566406
N    0.005585  -2.631882  3.752024
C    -0.450005  -0.766467  4.819689
C    0.242916  -2.869250  5.048689
N    -0.028056  -1.737200  5.704392
H    -1.339692  -1.545114  1.654313
H    -1.554463  0.034325  2.408096
H    -0.739887  0.224173  5.147063
H    0.579854  -3.801570  5.486094
H    0.052097  -1.623502  6.712991
O    1.065139  -2.369391  0.582293
H    0.105821  -3.320343  3.009461
Ca    2.773318  -2.278993  -0.799987
