21
Energy: -33480.33814 eV PBE+vdW (tier 2 basis)
N    -0.183675  0.703504  0.469383
C    0.362774  -0.274264  1.385525
C    1.132652  -1.324475  0.601616
O    1.545481  -1.054933  -0.580459
H    -0.474138  1.551373  0.954905
H    0.480763  0.967459  -0.256841
H    1.127514  0.124360  2.095734
C    -0.803196  -0.875518  2.230935
C    -0.462344  -1.356203  3.600181
N    0.459431  -2.359896  3.862416
C    -0.960606  -0.985989  4.823998
C    0.529487  -2.601463  5.176724
N    -0.333738  -1.770890  5.770131
H    -1.305817  -1.670226  1.660392
H    -1.548558  -0.078548  2.339440
H    -1.706240  -0.247246  5.089878
H    1.163642  -3.327284  5.671198
H    -0.498781  -1.732286  6.773783
O    1.409045  -2.490444  1.101413
H    1.003542  -2.813343  3.125252
Ca    2.356558  -3.019650  -0.834606
