21
Energy: -33480.7141284 eV PBE+vdW (tier 2 basis)
N    0.837307  -1.425310  -0.191681
C    0.446087  -0.546288  0.951457
C    1.732516  -0.079969  1.639572
O    2.771848  -0.749720  1.548570
H    -0.002668  -1.909735  -0.526226
H    1.128675  -0.836113  -0.980675
H    -0.114763  0.331014  0.590608
C    -0.476600  -1.304694  1.940615
C    0.100830  -2.421610  2.767125
N    1.102459  -3.308923  2.357131
C    -0.352141  -2.814756  4.003240
C    1.226686  -4.210097  3.341910
N    0.364538  -3.937984  4.335775
H    -1.323403  -1.681216  1.341454
H    -0.923014  -0.571064  2.625661
H    -1.119998  -2.407789  4.650603
H    1.914081  -5.049279  3.364730
H    0.259606  -4.478440  5.191810
O    1.743806  1.004095  2.373581
H    0.907739  1.511038  2.349217
Ca    2.657615  -2.799337  0.705966
