21
Energy: -33480.5962645 eV PBE+vdW (tier 2 basis)
N    2.247167  -2.431911  0.667892
C    1.367091  -1.297007  0.505235
C    1.993469  0.085287  0.783647
O    1.261457  1.145460  0.803655
H    3.007221  -2.430022  -0.010961
H    2.669702  -2.464609  1.596550
H    1.075498  -1.241570  -0.559495
C    0.069230  -1.470206  1.330765
C    -0.748313  -2.652591  0.911507
N    -2.138314  -2.647421  0.963738
C    -0.406365  -3.905219  0.464295
C    -2.630601  -3.828766  0.569456
N    -1.583530  -4.597538  0.261164
H    -0.535485  -0.557133  1.246866
H    0.332841  -1.576450  2.396358
H    0.572182  -4.332055  0.291691
H    -3.676819  -4.104086  0.509694
H    -1.653741  -5.556979  -0.070465
O    3.261693  0.190896  0.950753
H    -2.717645  -1.866510  1.261634
Ca    3.055263  2.344430  1.067023
