21
Energy: -33480.3613494 eV PBE+vdW (tier 2 basis)
N    -0.242657  -0.134964  0.350319
C    -0.065764  0.161979  1.775987
C    1.442657  0.403771  1.935980
O    2.001283  0.490672  3.063459
H    -0.377162  -1.127827  0.152661
H    -0.999346  0.391610  -0.085012
H    -0.543591  1.131918  1.990918
C    -0.622217  -0.855507  2.807139
C    0.045946  -2.196160  2.873406
N    1.233647  -2.441909  3.582746
C    -0.388521  -3.383613  2.337440
C    1.480624  -3.753823  3.455464
N    0.526899  -4.338779  2.712853
H    -1.686753  -1.001235  2.581937
H    -0.608260  -0.377589  3.798799
H    -1.273747  -3.629844  1.762675
H    2.317035  -4.298866  3.881100
H    0.482019  -5.329963  2.485031
O    2.087595  0.490402  0.834973
H    1.294922  0.302470  0.146628
Ca    2.536389  -0.808745  4.611495
