21
Energy: -33480.9292198 eV PBE+vdW (tier 2 basis)
N    0.740091  -1.395233  -0.168433
C    0.438764  -0.503691  0.994267
C    1.764322  -0.087619  1.620456
O    2.799985  -0.763635  1.484811
H    -0.132550  -1.853244  -0.452676
H    0.999136  -0.813227  -0.973859
H    -0.087075  0.406900  0.671471
C    -0.474058  -1.212238  2.024154
C    0.077925  -2.370429  2.810232
N    1.043551  -3.279583  2.360874
C    -0.364371  -2.779847  4.044919
C    1.156439  -4.209021  3.321342
N    0.321428  -3.933613  4.336840
H    -1.373213  -1.531961  1.470280
H    -0.829245  -0.451276  2.731627
H    -1.106402  -2.363364  4.715885
H    1.816327  -5.070179  3.311091
H    0.213269  -4.491855  5.180909
O    1.695325  1.012245  2.322526
H    2.560377  1.233695  2.733443
Ca    2.534976  -2.824824  0.640840
