21
Energy: -33480.7875125 eV PBE+vdW (tier 2 basis)
N    -0.097564  0.544342  0.240818
C    0.151819  0.075454  1.663690
C    1.660639  -0.004911  1.868270
O    2.321046  -0.582803  0.934459
H    0.589343  0.072034  -0.376010
H    -1.048932  0.322384  -0.087161
H    -0.320111  0.783696  2.352796
C    -0.401548  -1.371777  1.809150
C    0.006150  -2.131386  3.039430
N    1.308518  -2.565353  3.324752
C    -0.846542  -2.637423  3.989601
C    1.206246  -3.313737  4.427462
N    -0.071579  -3.374601  4.848437
H    -0.080681  -1.942050  0.921312
H    -1.499549  -1.330182  1.790440
H    -1.920020  -2.552162  4.109999
H    2.017169  -3.824679  4.936921
H    -0.405382  -3.893099  5.657490
O    2.146105  0.255290  3.000344
H    0.037428  1.561416  0.142858
Ca    3.396443  -1.577454  2.651941
