21
Energy: -33480.3692276 eV PBE+vdW (tier 2 basis)
N    3.139698  -1.580866  2.360408
C    2.737831  -1.136658  1.033345
C    2.202759  0.292767  1.095831
O    0.952732  0.573441  1.323931
H    4.021307  -1.176945  2.671233
H    2.432602  -1.457395  3.082986
H    3.648718  -1.069835  0.423841
C    1.808277  -2.161421  0.337200
C    0.725907  -2.762587  1.168246
N    -0.323691  -2.040635  1.720521
C    0.497183  -4.069159  1.517354
C    -1.161000  -2.855648  2.373716
N    -0.670064  -4.093341  2.252562
H    2.448662  -2.987560  0.004698
H    1.376186  -1.718416  -0.573699
H    1.060710  -4.967092  1.297367
H    -2.064645  -2.572930  2.899928
H    -1.104044  -4.926065  2.645349
O    3.033906  1.267241  0.984317
H    -0.390253  -1.022833  1.652586
Ca    1.491216  2.724938  1.201280
