21
Energy: -33480.3502588 eV PBE+vdW (tier 2 basis)
N    -0.034581  0.944674  0.707475
C    0.394899  -0.235244  1.402519
C    1.077064  -1.315428  0.540995
O    1.249403  -1.123686  -0.712055
H    0.734625  1.508630  0.352101
H    -0.682473  0.759426  -0.057430
H    1.169747  0.066940  2.129189
C    -0.802211  -0.848954  2.207285
C    -0.476655  -1.348328  3.572118
N    0.485203  -2.314628  3.835109
C    -1.009937  -1.016873  4.792023
C    0.545795  -2.569287  5.147886
N    -0.363215  -1.786678  5.737534
H    -1.300199  -1.641385  1.627678
H    -1.528942  -0.035094  2.314816
H    -1.787237  -0.310423  5.054927
H    1.205166  -3.271645  5.643240
H    -0.543488  -1.767073  6.739127
O    1.512140  -2.423846  1.065911
H    1.069404  -2.729785  3.105299
Ca    2.295491  -2.985313  -0.924746
