21
Energy: -33479.759424 eV PBE+vdW (tier 2 basis)
N    -0.988754  -0.645550  0.961341
C    0.179789  -0.273995  1.832740
C    1.267077  0.304036  0.892578
O    0.996397  0.615332  -0.246257
H    -0.940617  0.029313  0.171692
H    -0.733915  -1.528241  0.493839
H    -0.123099  0.573656  2.473048
C    0.628121  -1.440611  2.719870
C    -0.231957  -1.711342  3.919461
N    -1.634845  -1.634940  3.937200
C    0.189956  -2.111686  5.161840
C    -2.017026  -1.992327  5.177711
N    -0.942720  -2.284040  5.923051
H    1.643437  -1.227091  3.076255
H    0.722135  -2.350629  2.101248
H    1.183553  -2.288118  5.556550
H    -3.034021  -2.043219  5.552705
H    -0.964355  -2.579310  6.897350
O    2.438987  0.445176  1.508163
H    3.080637  0.863122  0.894844
Ca    -2.937779  -0.887533  2.230771
