21
Energy: -33480.6462223 eV PBE+vdW (tier 2 basis)
N    0.433088  -0.576139  -0.351689
C    0.133064  0.042277  0.949727
C    1.396943  0.579541  1.605950
O    1.402593  0.882113  2.854383
H    1.224835  -0.102923  -0.792587
H    -0.362899  -0.471511  -0.983949
H    -0.472534  0.966187  0.838789
C    -0.702380  -0.891583  1.858947
C    -0.166503  -2.278478  2.024999
N    0.443198  -2.955204  0.980611
C    -0.243445  -3.173926  3.062555
C    0.732564  -4.206056  1.343469
N    0.316232  -4.352456  2.608834
H    -1.708295  -0.959946  1.415269
H    -0.834518  -0.427298  2.843318
H    -0.660378  -3.079509  4.057039
H    1.211864  -4.963957  0.735596
H    0.391025  -5.214371  3.143868
O    2.434444  0.833334  0.889176
H    0.638908  -2.426669  0.102678
Ca    3.319193  1.873574  2.587018
