21
Energy: -33480.4460204 eV PBE+vdW (tier 2 basis)
N    -0.892707  0.189593  1.087246
C    0.376257  0.280817  1.777734
C    1.405124  0.512867  0.666988
O    1.667207  -0.428477  -0.171423
H    -1.077839  -0.713845  0.657454
H    -1.691128  0.511595  1.625392
H    0.369151  1.198873  2.380153
C    0.790596  -0.936185  2.668484
C    -0.130426  -1.165646  3.815570
N    0.002753  -0.537818  5.050904
C    -1.251572  -1.949922  3.929918
C    -0.973036  -0.921468  5.883627
N    -1.743171  -1.778659  5.208794
H    1.816610  -0.794008  3.042202
H    0.809826  -1.839551  2.043872
H    -1.716194  -2.623464  3.221606
H    -1.106727  -0.604481  6.911389
H    -2.561752  -2.242924  5.596824
O    1.944310  1.667342  0.516308
H    0.749790  0.100253  5.314461
Ca    2.743927  1.015106  -1.385503
