21
Energy: -33480.2859188 eV PBE+vdW (tier 2 basis)
N    -0.884717  -0.156474  0.347142
C    -0.050736  -0.914471  1.256348
C    0.764425  -1.934158  0.476370
O    1.281371  -2.963448  1.056657
H    -0.425465  0.000779  -0.549135
H    -1.140997  0.751017  0.733583
H    0.729180  -0.311776  1.777883
C    -0.950256  -1.578048  2.349752
C    -0.395091  -1.625149  3.735602
N    -1.142066  -1.232659  4.841238
C    0.818091  -2.018093  4.244051
C    -0.435622  -1.376821  5.968484
N    0.761134  -1.852082  5.614202
H    -1.239036  -2.590830  2.034538
H    -1.882277  -0.997893  2.357592
H    1.693562  -2.408593  3.744197
H    -0.769327  -1.148652  6.974013
H    1.511662  -2.057184  6.269788
O    0.963116  -1.760448  -0.780774
H    -2.099630  -0.888687  4.812540
Ca    2.042677  -3.615328  -0.895072
