21
Energy: -33480.5814208 eV PBE+vdW (tier 2 basis)
N    -0.298440  -0.229149  1.211215
C    0.294412  0.654224  2.215847
C    1.378249  1.519023  1.565899
O    2.612861  1.149727  1.545100
H    0.395966  -0.811540  0.740850
H    -0.829589  0.285338  0.509105
H    -0.492538  1.341295  2.557555
C    0.837920  -0.156041  3.406415
C    -0.223790  -0.904142  4.152326
N    -0.159969  -1.101960  5.527782
C    -1.371319  -1.541689  3.748076
C    -1.208157  -1.819241  5.952377
N    -1.950921  -2.087582  4.876247
H    1.353511  0.523370  4.100942
H    1.605297  -0.861223  3.049071
H    -1.794534  -1.644242  2.758445
H    -1.413010  -2.120366  6.972833
H    -2.816413  -2.622380  4.894904
O    1.032326  2.595861  0.949620
H    0.576240  -0.762838  6.141978
Ca    3.078898  2.899555  0.334412
