33
Energy: -609923.703781 eV PBE+vdW (tier 2 basis)
C    -0.686903  -0.140169  -0.227011
C    -0.377498  -0.198887  1.227541
O    0.705030  -0.768960  1.615888
H    0.109241  0.422831  -0.735563
H    -1.651820  0.331852  -0.438408
H    -0.672919  -1.155594  -0.645364
N    -1.215999  0.352208  2.106989
C    -0.939011  0.415911  3.537891
C    -0.990734  -0.996946  4.152649
O    0.126417  -1.460980  4.621680
H    -2.076184  0.796930  1.774301
H    0.121860  0.693157  3.641787
C    -1.706007  1.559109  4.262896
C    -3.204632  1.585917  4.133360
C    -4.016589  1.175063  5.198635
C    -3.814091  2.036732  2.948682
C    -5.405577  1.171893  5.069342
C    -5.203967  2.016645  2.812243
C    -6.000195  1.572892  3.870007
H    -1.270953  2.489210  3.865832
H    -1.409874  1.511146  5.320020
H    -3.560645  0.870725  6.142573
H    -3.212231  2.486250  2.152118
H    -6.027850  0.870332  5.911282
H    -5.666235  2.380823  1.895623
H    -7.084890  1.573238  3.772182
N    -2.048608  -1.777784  4.202342
C    -3.408593  -1.631419  3.675841
H    -1.856664  -2.677146  4.651171
H    -4.124224  -1.641814  4.505270
H    -3.609511  -2.485586  3.017078
H    -3.528425  -0.693828  3.132375
Pb    1.953280  -1.528749  3.331748
