33
Energy: -609923.375329 eV PBE+vdW (tier 2 basis)
C    -0.453415  -0.051558  -0.247489
C    -0.493133  0.055872  1.238334
O    0.497556  0.584668  1.856409
H    -1.365351  -0.487363  -0.668593
H    0.407212  -0.671565  -0.536545
H    -0.290780  0.943762  -0.681959
N    -1.548338  -0.405922  1.908232
C    -1.604921  -0.436793  3.371106
C    -2.420176  -1.560030  4.066513
O    -1.951276  -1.920397  5.144589
H    -2.301437  -0.824377  1.367848
H    -0.590112  -0.713672  3.684763
C    -1.959974  0.952480  3.994480
C    -0.844934  1.555515  4.813316
C    -0.152015  0.779690  5.780712
C    -0.463095  2.911690  4.651469
C    0.849014  1.361321  6.587271
C    0.542652  3.484238  5.460590
C    1.192920  2.712302  6.435498
H    -2.828854  0.838244  4.660822
H    -2.266028  1.647224  3.202830
H    -0.443362  -0.265971  5.929755
H    -0.981836  3.535059  3.921067
H    1.343351  0.752259  7.344604
H    0.798625  4.536397  5.333060
H    1.954770  3.161268  7.072048
N    -3.569076  -2.043049  3.550526
C    -4.336768  -1.600622  2.390941
H    -3.977416  -2.779924  4.123724
H    -5.384197  -1.882041  2.539569
H    -4.007000  -2.085094  1.457202
H    -4.321352  -0.507674  2.285845
Pb    1.620575  1.362015  3.657050
