33
Energy: -609923.981879 eV PBE+vdW (tier 2 basis)
C    0.866882  2.477213  1.524078
C    0.287680  1.105622  1.477468
O    0.847088  0.171289  2.157504
H    0.836345  2.828473  2.566560
H    0.334576  3.194068  0.890415
H    1.925487  2.442870  1.234482
N    -0.811598  0.887103  0.756360
C    -1.679556  -0.307575  0.754369
C    -1.123527  -1.353163  -0.230082
O    0.041828  -1.865805  -0.009761
H    -1.183352  1.692051  0.253639
H    -1.598687  -0.770908  1.751533
C    -3.131948  0.177968  0.540013
C    -4.164139  -0.917680  0.385547
C    -4.372884  -1.872235  1.391070
C    -4.928615  -0.986240  -0.790586
C    -5.317513  -2.883205  1.216281
C    -5.875149  -2.000784  -0.963596
C    -6.064462  -2.953554  0.036865
H    -3.162809  0.831194  -0.347329
H    -3.375127  0.816760  1.403235
H    -3.825503  -1.812646  2.334317
H    -4.821010  -0.215041  -1.558173
H    -5.485123  -3.610269  2.009951
H    -6.475698  -2.031509  -1.871816
H    -6.807507  -3.739358  -0.091145
N    -1.827013  -1.723635  -1.269719
C    -1.429699  -2.711497  -2.272369
H    -2.804489  -1.397215  -1.303042
H    -2.036204  -3.617863  -2.146912
H    -0.370750  -2.952209  -2.163483
H    -1.618121  -2.295790  -3.268901
Pb    1.459594  -1.916429  1.704230
