33
Energy: -609923.914059 eV PBE+vdW (tier 2 basis)
C    -1.625014  -1.061575  -0.135097
C    -1.130769  -0.701888  1.223093
O    0.107032  -0.375587  1.364151
H    -1.468048  -0.200069  -0.800942
H    -2.685025  -1.334662  -0.144312
H    -1.025353  -1.887400  -0.540518
N    -1.982619  -0.701154  2.240766
C    -1.783086  -0.185370  3.600937
C    -1.073238  -1.235772  4.477215
O    0.163814  -1.507344  4.253216
H    -2.960866  -0.959799  2.053327
H    -1.063353  0.647726  3.540218
C    -3.133025  0.386032  4.119695
C    -4.397206  -0.269083  3.589397
C    -4.630440  -1.657104  3.629157
C    -5.392667  0.557938  3.046916
C    -5.828354  -2.194416  3.151509
C    -6.592288  0.021921  2.578503
C    -6.813013  -1.355067  2.629612
H    -3.155375  1.444244  3.830000
H    -3.111306  0.406253  5.221146
H    -3.889911  -2.351677  4.033110
H    -5.234823  1.636623  3.006111
H    -5.994131  -3.269970  3.197413
H    -7.356682  0.684166  2.174224
H    -7.750103  -1.773724  2.265538
N    -1.712919  -1.823727  5.462450
C    -1.161198  -2.821710  6.381629
H    -2.687712  -1.559906  5.601874
H    -0.094514  -2.948458  6.188574
H    -1.681583  -3.776717  6.236614
H    -1.319035  -2.482325  7.412066
Pb    1.720812  -0.748399  2.828405
