33
Energy: -609923.819268 eV PBE+vdW (tier 2 basis)
C    -0.424739  2.300677  1.802666
C    -1.050609  0.992981  1.456429
O    -0.794139  0.479687  0.315227
H    -0.806725  3.060554  1.104975
H    0.660059  2.239617  1.646041
H    -0.631793  2.624341  2.827765
N    -1.864252  0.420012  2.348243
C    -2.746278  -0.756186  2.201063
C    -1.943730  -2.059171  2.146760
O    -1.375818  -2.444266  1.060902
H    -2.011336  0.959433  3.197481
H    -3.333039  -0.767323  3.126472
C    -3.785997  -0.643484  1.054952
C    -4.632071  0.598772  1.169050
C    -5.778584  0.585586  1.977424
C    -4.278829  1.777013  0.496607
C    -6.545370  1.740670  2.124763
C    -5.051866  2.929145  0.637991
C    -6.182314  2.913057  1.457938
H    -4.404680  -1.552486  1.091507
H    -3.301516  -0.649067  0.055172
H    -6.087130  -0.333052  2.480538
H    -3.417397  1.790709  -0.175593
H    -7.438343  1.720540  2.748071
H    -4.784297  3.834686  0.094982
H    -6.792181  3.809366  1.561869
N    -1.866473  -2.843029  3.204943
C    -2.430596  -2.642070  4.547175
H    -1.350789  -3.711653  3.049629
H    -1.982145  -3.386261  5.211187
H    -3.517632  -2.791563  4.543487
H    -2.182274  -1.648273  4.935418
Pb    -0.986117  -1.397967  -0.875132
