33
Energy: -609923.266715 eV PBE+vdW (tier 2 basis)
C    -0.284417  2.063363  0.037686
C    0.193540  1.049328  1.013397
O    1.453025  0.970220  1.266695
H    0.463801  2.861590  -0.027132
H    -1.260192  2.477083  0.306592
H    -0.360809  1.612442  -0.966094
N    -0.628104  0.196164  1.656657
C    -1.700397  -0.611101  1.047543
C    -1.015810  -1.598368  0.068289
O    0.271458  -1.725060  0.030481
H    -0.180058  -0.258426  2.453053
H    -2.093017  -1.221572  1.875168
C    -2.907669  0.175084  0.470317
C    -4.113267  -0.709047  0.218453
C    -4.768803  -1.353581  1.279453
C    -4.598509  -0.883506  -1.089319
C    -5.876297  -2.164075  1.035433
C    -5.711100  -1.695527  -1.331183
C    -6.345809  -2.340554  -0.270244
H    -2.631168  0.684227  -0.460910
H    -3.154846  0.948958  1.211863
H    -4.438821  -1.201460  2.309676
H    -4.126937  -0.353943  -1.919974
H    -6.385719  -2.648260  1.867544
H    -6.088377  -1.808135  -2.346792
H    -7.216261  -2.968453  -0.455045
N    -1.769752  -2.340224  -0.704980
C    -1.278962  -3.345113  -1.651584
H    -2.786459  -2.164566  -0.659997
H    -0.728743  -4.130046  -1.119206
H    -0.621667  -2.884303  -2.398516
H    -2.143657  -3.786279  -2.153313
Pb    2.307800  -1.054859  0.721990
