33
Energy: -609923.680153 eV PBE+vdW (tier 2 basis)
C    -0.220202  1.700605  1.176229
C    -0.270404  0.559896  2.137431
O    0.818432  -0.093642  2.377730
H    0.205252  1.371070  0.219399
H    0.467457  2.458007  1.581790
H    -1.198157  2.162270  1.005394
N    -1.429053  0.279459  2.713710
C    -1.835245  -0.568334  3.840493
C    -1.166391  -1.916468  3.964104
O    -0.657902  -2.537287  2.951538
H    -2.220577  0.882807  2.436417
H    -1.651892  0.007246  4.761422
C    -3.393519  -0.785710  3.709680
C    -4.107941  0.521195  3.473978
C    -4.501922  0.885684  2.174372
C    -4.353639  1.404988  4.536465
C    -5.133875  2.111612  1.945199
C    -4.984890  2.625444  4.304741
C    -5.371006  2.982112  3.008891
H    -3.745483  -1.263597  4.631906
H    -3.574474  -1.486130  2.882723
H    -4.363545  0.186746  1.346189
H    -4.075777  1.129956  5.556098
H    -5.458949  2.374007  0.939208
H    -5.189313  3.296300  5.138124
H    -5.871885  3.933206  2.833547
N    -1.189930  -2.541470  5.130462
C    -1.737478  -2.111635  6.421454
H    -0.833977  -3.498006  5.095321
H    -1.725545  -1.021836  6.511747
H    -1.113004  -2.534269  7.215177
H    -2.763675  -2.480980  6.544956
Pb    1.302503  -2.199245  1.944105
