33
Energy: -609923.774188 eV PBE+vdW (tier 2 basis)
C    0.212647  1.066761  0.607882
C    -0.300009  0.124730  1.642423
O    0.536041  -0.392662  2.483077
H    0.933680  0.528699  -0.025284
H    0.763189  1.887476  1.085981
H    -0.583569  1.472560  -0.023897
N    -1.581244  -0.183831  1.664832
C    -2.255681  -1.251149  2.395677
C    -3.404702  -1.652984  1.396356
O    -3.724790  -0.818220  0.548500
H    -2.226463  0.145108  0.912215
H    -1.558483  -2.085991  2.564201
C    -2.899525  -0.779208  3.727775
C    -1.969860  -0.392534  4.853070
C    -1.701177  -1.292273  5.915811
C    -1.409696  0.906194  4.941001
C    -0.984548  -0.887359  7.060192
C    -0.658548  1.299293  6.069244
C    -0.470627  0.410616  7.146354
H    -3.555790  -1.585314  4.082186
H    -3.554163  0.074586  3.498558
H    -2.120083  -2.299307  5.882711
H    -1.605291  1.632642  4.151105
H    -0.845973  -1.588855  7.882909
H    -0.267498  2.315784  6.125384
H    0.065323  0.736437  8.037288
N    -3.970857  -2.853306  1.570842
C    -5.074874  -3.345301  0.741436
H    -3.573202  -3.492835  2.251035
H    -4.726177  -4.144979  0.076626
H    -5.451916  -2.514786  0.139263
H    -5.876612  -3.728154  1.382489
Pb    0.861474  -0.696838  4.642756
