33
Energy: -609923.980086 eV PBE+vdW (tier 2 basis)
C    -2.186365  -2.949821  0.786052
C    -1.573739  -2.002473  1.758222
O    -0.484874  -1.404173  1.432544
H    -3.125339  -3.382362  1.145791
H    -1.474079  -3.755153  0.559788
H    -2.369925  -2.413534  -0.155923
N    -2.181603  -1.789369  2.922429
C    -1.890372  -0.733073  3.904531
C    -0.661170  -1.098183  4.758497
O    0.522831  -0.886976  4.303731
H    -3.122251  -2.189748  3.012093
H    -1.606865  0.176073  3.348190
C    -3.187174  -0.425474  4.697230
C    -4.367893  -0.248420  3.770650
C    -5.279165  -1.302203  3.594243
C    -4.539882  0.936222  3.041934
C    -6.341627  -1.176176  2.695155
C    -5.602971  1.061212  2.148228
C    -6.500296  0.004189  1.969015
H    -3.008280  0.472093  5.304951
H    -3.419192  -1.252028  5.389010
H    -5.197059  -2.207005  4.203581
H    -3.862171  1.779032  3.193079
H    -7.056623  -1.990113  2.582102
H    -5.743139  1.992567  1.600965
H    -7.335493  0.110900  1.278221
N    -0.828741  -1.596960  5.962688
C    0.230638  -1.989157  6.895696
H    -1.789075  -1.704238  6.285732
H    0.192719  -3.074047  7.055112
H    0.065830  -1.481622  7.853271
H    1.202477  -1.705866  6.487709
Pb    1.346864  -0.484109  2.265481
