33
Energy: -609923.266425 eV PBE+vdW (tier 2 basis)
C    -0.257044  1.904099  0.798110
C    0.037826  0.863330  1.817155
O    1.233134  0.767612  2.284971
H    -1.263785  2.318303  0.899961
H    -0.154836  1.478203  -0.214247
H    0.493106  2.698197  0.887274
N    -0.887011  0.002313  2.286146
C    -1.841286  -0.781403  1.482171
C    -1.003511  -1.759753  0.616490
O    0.271031  -1.889420  0.801435
H    -0.586755  -0.473709  3.137526
H    -2.377521  -1.402677  2.215762
C    -2.921641  0.031058  0.719889
C    -4.076619  -0.829383  0.245926
C    -4.909185  -1.488631  1.164459
C    -4.337459  -0.963655  -1.128722
C    -5.970110  -2.273941  0.716554
C    -5.403564  -1.750459  -1.575388
C    -6.215785  -2.410214  -0.653641
H    -2.482339  0.552208  -0.139389
H    -3.284799  0.795705  1.422305
H    -4.755232  -1.367338  2.239159
H    -3.725414  -0.423085  -1.853983
H    -6.618172  -2.769539  1.438190
H    -5.605815  -1.832508  -2.642530
H    -7.050620  -3.018609  -0.998624
N    -1.630350  -2.479979  -0.281282
C    -1.041204  -3.483669  -1.166318
H    -2.639337  -2.283691  -0.393000
H    -1.153719  -3.159985  -2.208418
H    -1.576199  -4.431481  -1.032142
H    0.016125  -3.618000  -0.931801
Pb    2.157093  -1.253901  1.852000
