33
Energy: -609924.734216 eV PBE+vdW (tier 2 basis)
C    -0.785646  1.160457  1.756329
C    -1.625694  -0.008208  2.165719
O    -1.546019  -0.431019  3.353117
H    -1.065040  2.027393  2.371097
H    -0.881212  1.424518  0.698108
H    0.265918  0.938543  1.981568
N    -2.424938  -0.552432  1.229691
C    -3.369571  -1.691764  1.280477
C    -4.540808  -1.422591  2.239082
O    -4.398110  -1.419909  3.499296
H    -2.379142  -0.094799  0.323505
H    -3.789019  -1.700468  0.266261
C    -2.728069  -3.105617  1.418292
C    -2.261280  -3.661094  2.752059
C    -3.134116  -4.436682  3.554074
C    -0.911636  -3.551000  3.165422
C    -2.673116  -5.087376  4.708368
C    -0.454903  -4.198657  4.324849
C    -1.331989  -4.974609  5.092796
H    -1.884952  -3.124380  0.713585
H    -3.472461  -3.806208  1.013152
H    -4.174027  -4.562980  3.250113
H    -0.205872  -2.983750  2.558102
H    -3.360901  -5.699231  5.291301
H    0.594130  -4.115456  4.607607
H    -0.968933  -5.498229  5.976297
N    -5.728751  -1.208720  1.689651
C    -6.963696  -0.946079  2.432536
H    -5.791331  -1.195301  0.674770
H    -6.834823  -1.258720  3.471251
H    -7.782308  -1.508692  1.971459
H    -7.200007  0.125279  2.400333
Pb    -2.557560  -1.866534  4.832444
