33
Energy: -609923.779272 eV PBE+vdW (tier 2 basis)
C    0.356124  -1.846392  2.620819
C    -0.904623  -1.058690  2.719443
O    -1.239255  -0.531278  3.823990
H    0.547580  -2.226681  1.611905
H    0.308744  -2.688366  3.325261
H    1.196560  -1.214537  2.939469
N    -1.675239  -0.916203  1.608567
C    -2.858413  -0.084652  1.715253
C    -4.071845  -0.839398  2.284560
O    -4.427876  -0.573566  3.486993
H    -1.357972  -1.321059  0.731955
H    -2.561747  0.552828  2.548073
C    -3.209903  1.016892  0.688733
C    -3.971770  2.039187  1.525120
C    -5.352694  2.188555  1.434139
C    -3.284516  2.735308  2.551407
C    -6.053370  2.978277  2.361084
C    -3.987131  3.527178  3.478582
C    -5.382561  3.625197  3.396611
H    -3.808955  0.663771  -0.158254
H    -2.274479  1.437328  0.291733
H    -5.904120  1.683726  0.639878
H    -2.189088  2.769782  2.546917
H    -7.134018  3.080927  2.267312
H    -3.438478  4.120198  4.212337
H    -5.931331  4.240672  4.107981
N    -4.743637  -1.739705  1.594270
C    -4.506659  -2.223416  0.234332
H    -5.513760  -2.177392  2.104977
H    -3.733092  -1.633092  -0.262172
H    -5.433249  -2.143701  -0.346274
H    -4.197404  -3.275762  0.264103
Pb    -3.061822  0.685068  4.813890
