33
Energy: -609924.053947 eV PBE+vdW (tier 2 basis)
C    0.835003  1.343577  1.525838
C    0.160682  0.050325  1.788110
O    0.310384  -0.633459  2.791573
H    1.402998  1.667882  2.402506
H    0.111065  2.115553  1.225772
H    1.527141  1.226668  0.673910
N    -0.723446  -0.533009  0.766550
C    -2.138893  -0.061388  0.655703
C    -2.823894  -0.171223  2.018927
O    -2.613216  -1.183397  2.754789
H    -0.294267  -0.446655  -0.161481
H    -2.177380  0.981021  0.303030
C    -2.858737  -0.961780  -0.401285
C    -2.728496  -2.456726  -0.177310
C    -1.675464  -3.186752  -0.780113
C    -3.662903  -3.170924  0.604314
C    -1.561375  -4.573751  -0.603700
C    -3.544054  -4.555864  0.782911
C    -2.493691  -5.259086  0.181670
H    -2.446479  -0.700737  -1.386905
H    -3.916861  -0.667915  -0.425491
H    -0.969823  -2.677219  -1.438466
H    -4.503903  -2.646325  1.058202
H    -0.757782  -5.116114  -1.100925
H    -4.289231  -5.086988  1.374340
H    -2.416463  -6.338564  0.305820
N    -3.674167  0.783134  2.362487
C    -4.481546  0.791848  3.586322
H    -3.789226  1.569211  1.726349
H    -5.545762  0.739371  3.326379
H    -4.292289  1.720090  4.137458
H    -4.207699  -0.066374  4.203641
Pb    -1.020227  -2.740426  2.108073
