33
Energy: -609923.915745 eV PBE+vdW (tier 2 basis)
C    -0.309173  -0.626304  0.141701
C    -0.691142  0.094683  1.388927
O    -0.277037  -0.366057  2.507077
H    -0.629970  -0.115174  -0.771700
H    -0.767220  -1.626205  0.169524
H    0.778419  -0.773180  0.121598
N    -1.460841  1.181146  1.286963
C    -2.136782  1.968008  2.340583
C    -1.144868  2.820709  3.140600
O    -0.395423  2.302709  4.042082
H    -1.740554  1.415137  0.337717
H    -2.786732  2.655081  1.782951
C    -3.088580  1.144478  3.247782
C    -4.115220  0.372277  2.458770
C    -5.301208  1.006182  2.059106
C    -3.894221  -0.963772  2.097264
C    -6.239193  0.317400  1.291095
C    -4.837721  -1.654142  1.336782
C    -6.008082  -1.011176  0.927568
H    -3.567347  1.855652  3.937331
H    -2.529826  0.431299  3.891121
H    -5.504944  2.035341  2.361705
H    -2.998952  -1.487232  2.441471
H    -7.160756  0.814160  0.990628
H    -4.669937  -2.698857  1.078174
H    -6.749860  -1.552103  0.341677
N    -1.116864  4.120100  2.916708
C    -0.272917  5.094975  3.614084
H    -1.731750  4.484995  2.191806
H    0.498639  5.469380  2.929475
H    0.197397  4.619289  4.476926
H    -0.897747  5.932791  3.943341
Pb    -0.050527  0.177115  4.655212
