33
Energy: -609923.432485 eV PBE+vdW (tier 2 basis)
C    -1.202069  0.470705  -0.232061
C    -1.030290  0.325647  1.241627
O    0.140363  0.433762  1.753769
H    -0.588741  -0.288533  -0.737824
H    -0.822037  1.450674  -0.550690
H    -2.243179  0.364895  -0.554266
N    -2.086038  0.062558  2.004642
C    -2.045552  -0.158279  3.454844
C    -3.323070  -0.950153  3.914340
O    -4.036646  -0.466634  4.783645
H    -2.992170  -0.002534  1.543381
H    -1.164737  -0.789255  3.656154
C    -1.970960  1.165017  4.248752
C    -0.648562  1.528296  4.849539
C    0.081097  0.623293  5.667578
C    -0.095809  2.826091  4.671041
C    1.261084  1.022676  6.330739
C    1.084024  3.221717  5.339254
C    1.759688  2.324587  6.179635
H    -2.715340  1.043978  5.063514
H    -2.345032  1.988244  3.628348
H    -0.309767  -0.379216  5.848894
H    -0.627674  3.551597  4.053248
H    1.772547  0.313335  6.981943
H    1.456448  4.238309  5.209086
H    2.656806  2.636943  6.712795
N    -3.570890  -2.138479  3.316585
C    -2.741994  -2.920266  2.403584
H    -4.431583  -2.572933  3.645570
H    -1.674944  -2.728059  2.567800
H    -2.985671  -2.728621  1.348827
H    -2.913360  -3.983735  2.600722
Pb    1.595061  1.086371  3.341987
