26
Energy: -15600.9034705 eV PBE+vdW (tier 2 basis)
C    -2.084702  2.944127  2.977272
C    -2.215134  1.475782  2.622407
O    -3.233090  1.044688  2.054718
H    -3.032563  3.431796  2.735353
H    -1.283265  3.427046  2.400013
H    -1.863226  3.090414  4.042813
N    -1.182837  0.653364  2.954341
C    -1.166369  -0.766891  2.534580
C    -2.019129  -1.652912  3.491251
O    -1.509351  -2.411795  4.315675
H    -1.608799  -0.819262  1.529180
C    0.319840  -1.160374  2.561663
C    1.092133  0.159740  2.709306
C    0.122465  1.044025  3.496019
H    0.604845  -1.719984  1.663855
H    0.478652  -1.813451  3.430551
H    1.288205  0.615651  1.727825
H    2.053997  0.033801  3.220960
H    0.300558  2.115280  3.359040
H    0.168854  0.821959  4.575503
N    -3.353098  -1.499718  3.306802
C    -4.332347  -2.154381  4.151158
H    -3.632987  -0.718675  2.702852
H    -3.873599  -3.045581  4.592301
H    -5.203613  -2.450829  3.554001
H    -4.673437  -1.500819  4.969560
