26
Energy: -15600.5405671 eV PBE+vdW (tier 2 basis)
C    0.007061  0.541867  0.259454
C    -0.275727  -0.279568  1.505069
O    0.540581  -1.079330  1.963547
H    0.951373  0.193401  -0.166912
H    0.104091  1.610047  0.501934
H    -0.790584  0.444975  -0.490344
N    -1.501600  -0.105628  2.090767
C    -1.835723  -0.808717  3.339495
C    -1.733368  -2.341574  3.375479
O    -1.416940  -2.878544  4.434167
H    -1.143752  -0.490901  4.133339
C    -3.272864  -0.332693  3.640651
C    -3.340468  1.052893  2.989453
C    -2.523806  0.873419  1.706374
H    -3.472664  -0.327233  4.717193
H    -4.001449  -1.011811  3.172940
H    -2.859081  1.801396  3.635174
H    -4.365586  1.388471  2.791218
H    -2.068320  1.809588  1.360877
H    -3.154864  0.487138  0.884181
N    -2.104326  -3.093600  2.293675
C    -2.440575  -2.701757  0.936466
H    -1.966918  -4.084210  2.467968
H    -1.561589  -2.388916  0.352485
H    -2.892672  -3.566027  0.435810
H    -3.182227  -1.893686  0.917537
