26
Energy: -15600.7032884 eV PBE+vdW (tier 2 basis)
C    -0.195009  0.519416  -0.030183
C    -0.642143  -0.685322  0.780100
O    -0.267898  -1.827550  0.515222
H    0.417618  1.198806  0.579014
H    -1.046195  1.095200  -0.421020
H    0.404756  0.156407  -0.868766
N    -1.489886  -0.444871  1.830090
C    -2.008737  0.850658  2.248618
C    -0.930460  1.746001  2.898236
O    -0.032135  1.293383  3.600031
H    -2.458137  1.383982  1.394617
C    -3.092973  0.472365  3.285635
C    -2.563605  -0.832407  3.895641
C    -1.912828  -1.545002  2.707870
H    -4.043438  0.299538  2.760600
H    -3.255401  1.267094  4.024178
H    -3.356194  -1.431599  4.359450
H    -1.807822  -0.610417  4.659696
H    -2.619835  -2.201659  2.174883
H    -1.044495  -2.154655  2.984533
N    -1.101685  3.079346  2.653967
C    -0.250680  4.100921  3.233604
H    -1.851849  3.360334  2.034063
H    0.505656  3.590306  3.839328
H    -0.823756  4.782718  3.877634
H    0.254130  4.688003  2.453959
