26
Energy: -15600.5454472 eV PBE+vdW (tier 2 basis)
C    -0.349182  0.496528  -0.034746
C    -0.393115  -0.342945  1.227922
O    0.495435  -1.148966  1.512013
H    -0.412604  1.571894  0.183167
H    -1.187402  0.249637  -0.702795
H    0.591470  0.287700  -0.550553
N    -1.497966  -0.187901  2.023000
C    -1.573418  -0.839287  3.334506
C    -2.131106  -2.276790  3.436811
O    -2.198516  -2.770082  4.563044
H    -0.560367  -0.914215  3.750527
C    -2.471317  0.124500  4.132735
C    -3.451771  0.631884  3.068580
C    -2.565538  0.805400  1.828720
H    -1.860897  0.952378  4.520860
H    -2.947515  -0.378702  4.979626
H    -3.957407  1.563649  3.348055
H    -4.227536  -0.124249  2.878696
H    -2.144325  1.823104  1.780755
H    -3.114773  0.629261  0.891165
N    -2.577005  -2.980091  2.353600
C    -2.497281  -2.733423  0.919590
H    -2.874710  -3.909425  2.636017
H    -2.944658  -3.596024  0.413136
H    -3.067590  -1.844789  0.619384
H    -1.460396  -2.634985  0.572220
