26
Energy: -15600.682749 eV PBE+vdW (tier 2 basis)
C    -0.514652  0.134219  -0.527229
C    -0.238786  -0.058409  0.951510
O    0.910746  -0.140182  1.398813
H    -1.165934  -0.657991  -0.921288
H    -1.006714  1.097735  -0.722759
H    0.441951  0.112366  -1.055633
N    -1.321113  -0.136067  1.776476
C    -1.131557  -0.380720  3.212791
C    -0.490428  -1.765059  3.440410
O    -1.026738  -2.776187  2.988351
H    -0.508255  0.422147  3.629335
C    -2.566531  -0.347662  3.784261
C    -3.387751  0.400757  2.724412
C    -2.735827  -0.041012  1.412624
H    -2.599411  0.126121  4.772143
H    -2.930593  -1.379021  3.881440
H    -3.281661  1.488847  2.843974
H    -4.456540  0.157943  2.766081
H    -2.885658  0.677962  0.598219
H    -3.121665  -1.022238  1.086674
N    0.630878  -1.823962  4.211022
C    1.511806  -0.721730  4.577295
H    0.998963  -2.766875  4.291340
H    2.416515  -1.143891  5.027886
H    1.798054  -0.136579  3.692606
H    1.050897  -0.060514  5.325247
