26
Energy: -15600.8239359 eV PBE+vdW (tier 2 basis)
C    -1.009581  1.087970  -0.270996
C    -1.210631  -0.213819  0.483684
O    -1.065892  -1.313088  -0.050873
H    -1.969767  1.602438  -0.422755
H    -0.585442  0.847630  -1.249409
H    -0.343522  1.784100  0.255875
N    -1.560834  -0.117538  1.810869
C    -1.914660  1.109674  2.535156
C    -0.722718  1.877097  3.147803
O    -0.893954  2.969783  3.684469
H    -2.424883  1.828525  1.880589
C    -2.862956  0.600970  3.639455
C    -2.324544  -0.803649  3.940346
C    -1.921501  -1.335045  2.561702
H    -3.885188  0.543177  3.239434
H    -2.873217  1.274788  4.502881
H    -3.062070  -1.448423  4.432071
H    -1.447019  -0.740613  4.599965
H    -2.751336  -1.848712  2.051282
H    -1.079612  -2.038666  2.588648
N    0.484486  1.262351  3.064195
C    1.693498  1.866771  3.593062
H    0.527590  0.373774  2.578696
H    1.852745  2.863771  3.160512
H    2.547600  1.227742  3.347219
H    1.633409  1.981992  4.684120
