26
Energy: -15600.693962 eV PBE+vdW (tier 2 basis)
C    -0.781065  1.266351  -0.072967
C    -0.838200  0.038763  0.814937
O    -0.083625  -0.926672  0.649875
H    -1.701588  1.360699  -0.666635
H    0.069071  1.158306  -0.751428
H    -0.668938  2.191559  0.509159
N    -1.769900  0.048669  1.811171
C    -1.888301  -1.100532  2.713494
C    -2.583570  -2.281708  2.003620
O    -3.704073  -2.151485  1.507782
H    -0.887923  -1.387123  3.057701
C    -2.757457  -0.552468  3.862460
C    -3.635334  0.513041  3.189153
C    -2.717569  1.126540  2.124594
H    -2.102577  -0.099268  4.620578
H    -3.345156  -1.339294  4.349365
H    -4.007549  1.265482  3.895137
H    -4.492044  0.030672  2.704758
H    -2.180742  2.009007  2.513556
H    -3.275933  1.435729  1.230856
N    -1.934078  -3.478712  2.003139
C    -0.539269  -3.741196  2.338386
H    -2.451919  -4.206641  1.520367
H    0.122383  -3.015854  1.846385
H    -0.365841  -3.726103  3.424700
H    -0.284804  -4.743760  1.977858
