26
Energy: -15600.6140723 eV PBE+vdW (tier 2 basis)
C    0.276463  0.799800  0.760757
C    -0.250907  -0.417139  1.495973
O    0.301794  -1.516172  1.425586
H    -0.514291  1.374311  0.260480
H    1.005132  0.454784  0.022443
H    0.781745  1.485505  1.455872
N    -1.373999  -0.242098  2.267833
C    -2.151533  0.995194  2.414744
C    -1.435194  2.233808  2.977553
O    -1.725413  3.342726  2.530674
H    -2.529307  1.332584  1.437191
C    -3.338768  0.572051  3.313153
C    -3.478963  -0.931418  3.046376
C    -2.030343  -1.396438  2.891118
H    -4.236832  1.154009  3.079696
H    -3.097549  0.752489  4.370960
H    -4.030184  -1.102978  2.110547
H    -4.008562  -1.458164  3.849194
H    -1.899326  -2.277493  2.252963
H    -1.570199  -1.632751  3.866763
N    -0.520021  2.099685  3.984949
C    -0.050627  0.916153  4.691872
H    -0.143224  2.996927  4.273526
H    0.526466  1.251058  5.560814
H    -0.880202  0.303281  5.068059
H    0.596846  0.279285  4.073902
