26
Energy: -15600.7972395 eV PBE+vdW (tier 2 basis)
C    0.398150  -1.305234  0.823151
C    0.195010  -0.218056  1.861929
O    1.139531  0.334357  2.423971
H    1.473495  -1.431219  0.674563
H    -0.074975  -1.057672  -0.136398
H    -0.030746  -2.260735  1.157704
N    -1.109935  0.131884  2.147460
C    -2.308734  -0.565597  1.655439
C    -2.710224  -0.265720  0.202844
O    -3.500413  -0.999980  -0.385433
H    -2.181761  -1.656608  1.715400
C    -3.431180  -0.100918  2.619960
C    -2.680956  0.348621  3.878518
C    -1.407360  0.977651  3.314245
H    -4.161754  -0.897683  2.793312
H    -3.969869  0.748241  2.174545
H    -2.421770  -0.517733  4.504489
H    -3.262954  1.046323  4.492749
H    -0.545489  0.967687  3.989964
H    -1.577834  2.023537  3.006906
N    -2.177021  0.870985  -0.322071
C    -2.479029  1.336567  -1.660505
H    -1.497057  1.365090  0.246549
H    -3.196995  0.635493  -2.099908
H    -2.925650  2.340440  -1.641132
H    -1.576480  1.363279  -2.287251
