26
Energy: -15600.5967155 eV PBE+vdW (tier 2 basis)
C    1.081525  -0.429767  1.143712
C    -0.005764  -1.301364  1.748943
O    0.139887  -2.512825  1.911302
H    1.449544  0.303745  1.874774
H    0.726855  0.121462  0.260841
H    1.908046  -1.080736  0.847302
N    -1.170582  -0.676030  2.108343
C    -1.471690  0.741342  1.971874
C    -0.726532  1.606667  3.013802
O    -0.331015  1.151191  4.082019
H    -1.227233  1.089965  0.958428
C    -2.998841  0.793948  2.217667
C    -3.228616  -0.347895  3.217804
C    -2.246061  -1.431700  2.764323
H    -3.521588  0.596119  1.271020
H    -3.332743  1.770193  2.591145
H    -4.267019  -0.699732  3.221712
H    -2.977841  -0.014914  4.233354
H    -2.699600  -2.136622  2.049077
H    -1.837416  -2.022779  3.592955
N    -0.563336  2.927226  2.691775
C    -0.942679  3.606903  1.463480
H    -0.097615  3.465274  3.415329
H    -2.021879  3.539591  1.264312
H    -0.692695  4.668174  1.565511
H    -0.400113  3.220567  0.587196
