26
Energy: -15600.6919354 eV PBE+vdW (tier 2 basis)
C    0.645016  -0.012738  0.775833
C    -0.259189  -0.973132  1.527535
O    0.000900  -2.172908  1.618267
H    1.205948  0.615542  1.481835
H    0.091541  0.653746  0.099571
H    1.355309  -0.607550  0.195420
N    -1.387313  -0.446052  2.103502
C    -1.822263  0.949062  2.069162
C    -0.825887  1.912944  2.741888
O    -0.266667  1.641395  3.798711
H    -2.002002  1.266560  1.024754
C    -3.154803  0.934645  2.858441
C    -3.636945  -0.516699  2.750892
C    -2.333960  -1.311748  2.814123
H    -3.866668  1.670884  2.466812
H    -2.945342  1.184269  3.907974
H    -4.138680  -0.689026  1.787363
H    -4.337480  -0.787800  3.549846
H    -2.372205  -2.290373  2.323168
H    -2.002475  -1.469783  3.853787
N    -0.669717  3.098456  2.083302
C    0.181865  4.164006  2.575883
H    -1.128132  3.210721  1.187120
H    0.544894  3.862481  3.564230
H    -0.376208  5.105523  2.668384
H    1.046464  4.325575  1.916198
