26
Energy: -15600.5840067 eV PBE+vdW (tier 2 basis)
C    0.538298  0.616777  0.905493
C    -0.121801  -0.529025  1.650806
O    0.399933  -1.641593  1.744821
H    1.507534  0.267499  0.540593
H    0.687909  1.496612  1.546947
H    -0.069697  0.941115  0.048925
N    -1.334334  -0.269750  2.235288
C    -2.085857  0.982446  2.164769
C    -1.613880  2.181835  3.016542
O    -2.033479  3.296602  2.704778
H    -2.078869  1.385828  1.143345
C    -3.517364  0.549071  2.552289
C    -3.292945  -0.632620  3.503912
C    -2.070428  -1.344478  2.916335
H    -4.043715  0.215809  1.646942
H    -4.090509  1.374844  2.987311
H    -4.163988  -1.294595  3.572799
H    -3.079215  -0.267817  4.519382
H    -2.350083  -2.123177  2.189225
H    -1.434102  -1.828624  3.669453
N    -0.770158  2.034821  4.082459
C    -0.159046  0.867402  4.707555
H    -0.575971  2.934537  4.511927
H    0.599854  0.390171  4.074309
H    0.332608  1.206884  5.625967
H    -0.898694  0.110430  4.994827
