35
Energy: -608358.264908 eV PBE+vdW (tier 2 basis)
C    -0.181133  0.525611  -0.234501
C    -0.180183  0.485114  1.252948
O    0.867507  0.836795  1.893291
H    -1.129293  0.206793  -0.679979
H    0.632012  -0.107924  -0.616901
H    0.046146  1.551873  -0.559757
N    -1.289346  0.096046  1.901500
C    -1.464900  0.092188  3.361865
C    -0.612750  -1.040198  3.994286
O    0.532397  -0.715519  4.484920
H    -2.082669  -0.181617  1.327053
H    -0.988253  1.008588  3.741303
C    -2.953477  0.136237  3.772040
C    -3.593303  1.532369  3.629039
C    -5.066407  1.545200  4.092717
C    -5.679546  2.942761  3.984271
N    -7.127250  2.967650  4.456275
H    -3.014962  -0.186186  4.822310
H    -3.529286  -0.601306  3.194202
H    -3.535792  1.872420  2.583105
H    -3.017741  2.257304  4.225770
H    -5.122537  1.197654  5.136876
H    -5.651699  0.835908  3.485777
H    -5.693995  3.311364  2.950949
H    -5.149381  3.676273  4.604544
H    -7.526602  3.915919  4.378290
H    -7.217113  2.682244  5.442957
H    -7.727064  2.340561  3.899554
N    -0.980176  -2.303782  4.058072
C    -2.190506  -2.980509  3.575796
H    -0.297161  -2.903909  4.527940
H    -2.526009  -2.558483  2.624219
H    -2.991333  -2.927526  4.323598
H    -1.938632  -4.032858  3.410927
Pb    2.200442  0.564941  3.682741
