35
Energy: -608356.514186 eV PBE+vdW (tier 2 basis)
C    -0.219725  0.003875  -0.976814
C    -0.480302  -0.717812  0.290870
O    0.495983  -1.354115  0.837798
H    -1.078273  0.581357  -1.333154
H    0.087220  -0.717998  -1.747806
H    0.640717  0.673586  -0.828889
N    -1.694866  -0.702800  0.851870
C    -2.044127  -1.161164  2.217930
C    -1.927338  -2.706741  2.322990
O    -2.990676  -3.417972  2.649777
H    -2.441022  -0.274902  0.308899
H    -1.252032  -0.783506  2.886778
C    -3.398057  -0.592278  2.667596
C    -3.424787  0.856295  3.210016
C    -3.281629  1.997340  2.183113
C    -3.875544  3.343857  2.605577
N    -3.139937  4.028953  3.754316
H    -3.755512  -1.239709  3.478383
H    -4.138417  -0.712371  1.859597
H    -2.666412  0.949097  4.004729
H    -4.400264  0.960392  3.710121
H    -3.845519  1.744817  1.270406
H    -2.235639  2.133015  1.864406
H    -4.916391  3.241657  2.938216
H    -3.851701  4.060113  1.775728
H    -3.154219  3.472327  4.620228
H    -3.580729  4.935942  3.974044
H    -2.155325  4.223340  3.521181
N    -0.751290  -3.201541  2.107037
C    -0.523549  -4.612017  2.202898
H    0.148288  -2.117401  1.486093
H    -1.128839  -5.192619  1.457780
H    -0.693805  -4.990291  3.244311
H    0.519990  -4.873146  1.980127
Pb    -3.249759  -5.555187  2.955002
