35
Energy: -608356.375673 eV PBE+vdW (tier 2 basis)
C    0.151092  0.311104  1.107157
C    -0.537123  1.011832  2.218382
O    -0.067465  2.193335  2.582034
H    1.193441  0.116810  1.404088
H    -0.314720  -0.631765  0.825159
H    0.178705  0.966667  0.224738
N    -1.572400  0.575521  2.909207
C    -2.488094  -0.608731  2.873681
C    -2.491557  -1.412421  4.216339
O    -3.607914  -1.705721  4.666277
H    -1.860181  1.235913  3.637048
H    -3.475840  -0.129204  2.894583
C    -2.443029  -1.554320  1.659573
C    -3.500326  -2.677662  1.737282
C    -4.981327  -2.244784  1.662934
C    -5.933043  -3.244125  2.320971
N    -5.995860  -3.041925  3.832053
H    -1.465703  -2.049258  1.586296
H    -2.594512  -0.964739  0.742571
H    -3.312706  -3.273384  2.642740
H    -3.294738  -3.360976  0.902329
H    -5.284170  -2.149128  0.611611
H    -5.153193  -1.249977  2.103964
H    -5.615450  -4.280163  2.151672
H    -6.958824  -3.142312  1.950548
H    -6.683157  -2.316268  4.074133
H    -5.079736  -2.719374  4.218831
H    -6.285065  -3.900489  4.319152
N    -1.351192  -1.804851  4.803331
C    0.033707  -1.676364  4.356415
H    -1.505812  -2.325404  5.667203
H    0.623067  -2.457218  4.847426
H    0.467059  -0.705894  4.635964
H    0.124027  -1.837715  3.276501
Pb    1.022483  4.037742  2.507325
