35
Energy: -608356.905757 eV PBE+vdW (tier 2 basis)
C    -0.310023  0.883524  -0.619983
C    -0.221746  1.070017  0.851674
O    0.795215  1.771135  1.333132
H    0.611760  0.408571  -0.985897
H    -0.389117  1.864513  -1.111547
H    -1.163254  0.271026  -0.922697
N    -1.076202  0.593443  1.713160
C    -2.379624  -0.063804  1.506554
C    -3.129453  0.359134  2.809599
O    -2.431329  0.647642  3.792799
H    -1.009712  0.805685  2.743361
H    -2.862320  0.367106  0.619099
C    -2.283420  -1.604903  1.326097
C    -1.778918  -2.435683  2.529046
C    -2.858332  -2.924868  3.520402
C    -3.652027  -4.166884  3.110620
N    -2.891659  -5.466073  3.368930
H    -1.632557  -1.786368  0.458867
H    -3.282555  -1.940683  1.008628
H    -1.032851  -1.863321  3.097428
H    -1.218264  -3.293721  2.125465
H    -3.600577  -2.134551  3.697063
H    -2.404178  -3.095849  4.509041
H    -3.917714  -4.181606  2.045814
H    -4.576465  -4.257260  3.692842
H    -3.448766  -6.285892  3.083608
H    -2.676710  -5.579928  4.370803
H    -2.000352  -5.511027  2.855841
N    -4.465676  0.350287  2.775615
C    -5.307552  0.749815  3.908392
H    -4.928815  0.175216  1.887714
H    -4.691454  0.785691  4.810541
H    -5.742129  1.741043  3.727796
H    -6.119309  0.025230  4.037396
Pb    2.372897  3.147951  1.636550
