35
Energy: -608358.159422 eV PBE+vdW (tier 2 basis)
C    0.037802  1.543013  2.484800
C    -0.482432  0.220709  2.038629
O    0.214267  -0.477245  1.223154
H    1.017150  1.405447  2.965480
H    -0.631429  2.071964  3.171338
H    0.212819  2.168739  1.596708
N    -1.671740  -0.188921  2.497656
C    -2.494326  -1.370163  2.137942
C    -1.779020  -2.680272  2.519700
O    -0.882826  -3.202731  1.761838
H    -2.123391  0.462224  3.137003
H    -3.364846  -1.283982  2.799661
C    -3.027068  -1.330957  0.685793
C    -4.259939  -2.231565  0.468849
C    -4.948368  -1.977522  -0.890172
C    -6.214361  -2.823684  -1.043000
N    -6.940440  -2.536644  -2.350370
H    -2.232006  -1.582868  -0.030391
H    -3.298812  -0.283428  0.489558
H    -4.987559  -2.040087  1.273999
H    -3.978471  -3.293505  0.547028
H    -4.249755  -2.199945  -1.712308
H    -5.207732  -0.909509  -0.968504
H    -6.942497  -2.622094  -0.247273
H    -5.998716  -3.899406  -1.047809
H    -7.790750  -3.114934  -2.436906
H    -6.353198  -2.738166  -3.173294
H    -7.237281  -1.551576  -2.418944
N    -2.110323  -3.307242  3.631773
C    -3.093336  -2.929490  4.661313
H    -1.596285  -4.176390  3.795032
H    -3.013163  -3.653355  5.477305
H    -4.115579  -2.971150  4.266031
H    -2.876769  -1.934593  5.067185
Pb    0.939379  -2.491673  0.654194
