35
Energy: -608356.894033 eV PBE+vdW (tier 2 basis)
C    0.421409  -0.007523  0.463599
C    0.233368  0.776928  1.712524
O    1.306820  1.321833  2.273217
H    0.788111  0.654488  -0.335596
H    -0.497318  -0.491039  0.121553
H    1.187092  -0.779432  0.624694
N    -0.910662  0.971841  2.302130
C    -2.277534  0.697496  1.822124
C    -3.065672  1.836351  2.543698
O    -2.512028  2.357270  3.528316
H    -1.029803  1.613996  3.140222
H    -2.300904  0.832689  0.733597
C    -2.821720  -0.717973  2.162601
C    -3.403643  -0.938708  3.573092
C    -4.000534  -2.356976  3.692744
C    -5.017436  -2.592818  4.807172
N    -4.405927  -2.687841  6.203391
H    -2.027340  -1.451571  1.957300
H    -3.611194  -0.924188  1.425200
H    -4.196925  -0.196805  3.755362
H    -2.631524  -0.762679  4.338807
H    -3.206184  -3.119610  3.737829
H    -4.557325  -2.586477  2.770407
H    -5.539992  -3.545166  4.657530
H    -5.769648  -1.795807  4.863443
H    -5.134767  -2.877341  6.908338
H    -3.930978  -1.819559  6.484319
H    -3.721485  -3.455684  6.263136
N    -4.276396  2.183217  2.100876
C    -5.025573  1.665946  0.956153
H    -4.713832  2.927976  2.643839
H    -5.633148  2.476675  0.541202
H    -5.697006  0.847683  1.250012
H    -4.353846  1.318958  0.163762
Pb    3.152708  2.299601  2.591003
