35
Energy: -608357.047655 eV PBE+vdW (tier 2 basis)
C    -0.383673  -1.765226  1.918316
C    -0.139148  -0.323783  2.186142
O    1.014471  0.015147  2.751809
H    0.376952  -2.145742  1.220465
H    -1.373893  -1.956484  1.496591
H    -0.281504  -2.335413  2.852707
N    -0.970833  0.637493  1.911093
C    -2.207976  0.628221  1.109392
C    -2.186678  2.087501  0.549243
O    -1.459258  2.900346  1.148853
H    -0.727193  1.669270  2.023362
H    -2.104618  -0.106692  0.301016
C    -3.500334  0.318007  1.909903
C    -3.993138  1.411173  2.873776
C    -5.366841  1.054812  3.479984
C    -5.889026  2.167420  4.387736
N    -7.270522  1.842561  4.943106
H    -3.352240  -0.630328  2.448823
H    -4.278692  0.113831  1.159869
H    -4.075324  2.369384  2.338417
H    -3.261161  1.571953  3.680005
H    -5.292973  0.113789  4.048588
H    -6.086754  0.878588  2.663978
H    -5.996875  3.120621  3.854999
H    -5.244569  2.331771  5.260255
H    -7.614163  2.597432  5.556070
H    -7.267155  0.975241  5.499893
H    -7.966001  1.720832  4.192016
N    -2.941626  2.406668  -0.503753
C    -3.793967  1.553509  -1.330698
H    -2.867568  3.387240  -0.776216
H    -3.706930  1.875257  -2.374037
H    -4.848010  1.630753  -1.032185
H    -3.477724  0.506622  -1.280205
Pb    3.041815  0.239634  3.289126
