35
Energy: -608358.020675 eV PBE+vdW (tier 2 basis)
C    2.100106  0.123299  0.139645
C    1.596280  -0.598734  1.339664
O    2.431507  -1.063255  2.188515
H    2.790065  -0.524222  -0.419115
H    2.692033  0.987466  0.478589
H    1.305254  0.471382  -0.528135
N    0.273063  -0.722351  1.522263
C    -0.400846  -1.246005  2.721968
C    -0.436421  -2.792171  2.670330
O    0.658468  -3.436612  2.834207
H    -0.316250  -0.347535  0.783137
H    0.274292  -1.034938  3.566389
C    -1.710759  -0.483143  3.045350
C    -2.777394  -0.223520  1.954263
C    -4.055160  0.355705  2.606548
C    -5.257535  0.623817  1.691307
N    -5.307370  2.038222  1.119389
H    -1.398087  0.489262  3.452975
H    -2.173989  -1.007184  3.896190
H    -3.045874  -1.139690  1.402191
H    -2.383786  0.476779  1.198612
H    -3.810271  1.262469  3.183784
H    -4.413755  -0.361189  3.359907
H    -6.194303  0.516157  2.250271
H    -5.301226  -0.054292  0.829891
H    -4.496479  2.265212  0.527958
H    -5.355121  2.746536  1.867496
H    -6.149919  2.164067  0.536056
N    -1.567011  -3.440224  2.484685
C    -1.730112  -4.899702  2.438826
H    -2.410441  -2.884006  2.372007
H    -2.551808  -5.185455  3.105334
H    -0.805246  -5.380981  2.761846
H    -1.970773  -5.210737  1.414224
Pb    2.839867  -2.993424  3.243432
