35
Energy: -608356.782099 eV PBE+vdW (tier 2 basis)
C    -0.651867  0.281933  0.052087
C    -0.589826  0.289351  1.535349
O    0.535190  0.584250  2.084449
H    -0.499038  1.308647  -0.313851
H    -1.594603  -0.107792  -0.344285
H    0.188218  -0.309230  -0.338195
N    -1.687989  0.011113  2.245935
C    -1.901627  -0.221020  3.698242
C    -1.305940  0.857537  4.612859
O    -2.103991  1.241268  5.602063
H    -2.519906  -0.153048  1.682652
H    -2.985959  -0.110106  3.826450
C    -1.571270  -1.681081  4.135466
C    -0.125115  -2.170222  3.961176
C    0.143364  -3.599726  4.492537
C    -0.415026  -4.717207  3.609453
N    0.026732  -6.087307  4.109356
H    -2.269445  -2.319881  3.573566
H    -1.875223  -1.764892  5.191054
H    0.562889  -1.502965  4.499208
H    0.175812  -2.123224  2.903731
H    -0.251968  -3.698263  5.516241
H    1.235463  -3.719564  4.564789
H    -0.049699  -4.645267  2.577120
H    -1.511113  -4.748184  3.589074
H    -0.340409  -6.843396  3.511341
H    -0.301429  -6.272210  5.068982
H    1.054125  -6.177384  4.116256
N    -0.120066  1.328896  4.418590
C    0.402456  2.368822  5.261064
H    0.416165  0.855163  3.109223
H    1.408238  2.674146  4.944049
H    0.510110  2.037120  6.321197
H    -0.213712  3.301275  5.194215
Pb    -2.022280  2.788034  7.102885
