35
Energy: -608356.717444 eV PBE+vdW (tier 2 basis)
C    2.059114  0.659283  2.046244
C    0.931016  -0.275668  2.273702
O    1.208340  -1.463646  2.683081
H    2.575782  0.837486  3.001113
H    1.753157  1.615251  1.610155
H    2.794413  0.171957  1.389196
N    -0.328948  0.124264  2.063113
C    -1.575059  -0.681004  1.986269
C    -1.874091  -1.434194  3.293357
O    -3.091668  -1.278545  3.792319
H    -0.431853  1.103993  1.810092
H    -2.377364  0.058374  1.870574
C    -1.590322  -1.646997  0.767767
C    -1.423328  -0.948428  -0.596132
C    -1.212791  -1.935312  -1.771227
C    -2.454691  -2.434747  -2.513267
N    -2.879770  -1.496648  -3.641615
H    -2.540490  -2.201953  0.809470
H    -0.792992  -2.394152  0.896612
H    -0.540661  -0.295369  -0.557752
H    -2.280183  -0.279562  -0.783434
H    -0.689270  -2.830404  -1.405426
H    -0.514832  -1.495665  -2.500736
H    -3.333129  -2.549601  -1.866217
H    -2.263911  -3.397439  -3.001652
H    -3.719546  -1.849937  -4.125387
H    -2.137291  -1.410829  -4.352603
H    -3.095707  -0.546658  -3.308512
N    -0.959524  -2.180539  3.818568
C    -1.206177  -2.888332  5.040747
H    0.363893  -1.933174  3.125036
H    -0.325514  -3.459885  5.363121
H    -2.022011  -3.645353  4.930364
H    -1.417499  -2.189776  5.892256
Pb    -4.028533  -1.988205  5.611172
