35
Energy: -608357.999283 eV PBE+vdW (tier 2 basis)
C    -1.099430  -1.316497  0.551473
C    -0.682916  -0.278596  1.533379
O    0.556363  0.014111  1.649348
H    -0.774595  -0.995633  -0.450289
H    -2.179071  -1.498431  0.537960
H    -0.571694  -2.257167  0.761532
N    -1.619935  0.350382  2.257769
C    -1.416286  1.511164  3.140585
C    -0.907798  1.033638  4.520958
O    0.295293  0.604097  4.616461
H    -2.577013  0.036266  2.116797
H    -0.556222  2.061549  2.727623
C    -2.603830  2.507516  3.078826
C    -4.058689  2.013869  3.243867
C    -5.050375  3.189369  3.072368
C    -6.510558  2.739783  3.161730
N    -7.473040  3.904127  2.970610
H    -2.522978  2.995670  2.096387
H    -2.390299  3.301751  3.810612
H    -4.233622  1.535246  4.221414
H    -4.297700  1.247201  2.488827
H    -4.870364  3.666651  2.095734
H    -4.847626  3.952033  3.841079
H    -6.755664  2.304943  4.138831
H    -6.767907  2.008190  2.385595
H    -8.453835  3.587907  3.029653
H    -7.356698  4.356180  2.050949
H    -7.347360  4.633891  3.688344
N    -1.682381  1.080658  5.584083
C    -1.309366  0.668426  6.943879
H    -2.625363  1.438846  5.457642
H    -1.586436  1.464477  7.644122
H    -0.233237  0.491947  6.989664
H    -1.846995  -0.250569  7.210096
Pb    2.078628  0.254001  3.268093
