35
Energy: -608356.301882 eV PBE+vdW (tier 2 basis)
C    -0.409518  0.428133  -0.331556
C    -0.241339  -0.017938  1.093944
O    0.801046  -0.532751  1.521449
H    -1.260717  1.099003  -0.494186
H    -0.553618  -0.456880  -0.970013
H    0.510799  0.922015  -0.664686
N    -1.342838  0.167159  1.902232
C    -1.596363  -0.279125  3.269437
C    -1.556145  0.889315  4.281033
O    -2.587497  1.011561  5.094955
H    -2.146091  0.577943  1.434071
H    -2.652279  -0.589274  3.286289
C    -0.783004  -1.472338  3.854816
C    -1.110808  -2.868889  3.276281
C    -0.380576  -3.332050  2.002586
C    1.131993  -3.539602  2.196427
N    1.915282  -3.048456  0.996933
H    -1.044788  -1.500788  4.924158
H    0.289124  -1.252231  3.812986
H    -2.193403  -2.948920  3.096317
H    -0.901147  -3.595213  4.075694
H    -0.563583  -2.627738  1.180812
H    -0.834950  -4.279979  1.685109
H    1.389271  -4.593966  2.346524
H    1.527739  -2.973127  3.047149
H    2.928126  -3.184848  1.121393
H    1.722727  -2.026626  0.882329
H    1.647788  -3.541981  0.134504
N    -0.581778  1.752817  4.404488
C    0.696340  1.846873  3.686797
H    -0.727516  2.478929  5.110190
H    1.470945  2.097021  4.421103
H    0.635744  2.659646  2.950119
H    0.943886  0.906465  3.189591
Pb    -4.251852  1.260474  6.411589
