35
Energy: -608357.400382 eV PBE+vdW (tier 2 basis)
C    -0.185829  0.463130  0.862107
C    -0.524958  0.251554  2.289820
O    0.313346  0.603135  3.195789
H    0.868906  0.235644  0.669359
H    -0.304621  1.545835  0.670965
H    -0.836732  -0.064573  0.161360
N    -1.706275  -0.269995  2.691643
C    -2.308716  -1.501833  2.142204
C    -1.209686  -2.600660  2.236172
O    -0.225144  -2.460540  3.045479
H    -1.876752  -0.135704  3.688694
H    -3.051679  -1.790596  2.903517
C    -3.068313  -1.337049  0.793955
C    -4.463345  -2.002860  0.748116
C    -5.138098  -1.790132  -0.622405
C    -6.476896  -2.495386  -0.856435
N    -7.681622  -1.764494  -0.268930
H    -2.452642  -1.695294  -0.045398
H    -3.194691  -0.257785  0.634682
H    -5.077655  -1.584551  1.562326
H    -4.389639  -3.084916  0.948837
H    -4.474115  -2.175841  -1.411234
H    -5.238302  -0.714157  -0.841206
H    -6.502703  -3.508637  -0.436087
H    -6.686453  -2.569617  -1.929960
H    -8.553966  -2.272359  -0.484704
H    -7.781127  -0.818226  -0.666043
H    -7.635236  -1.670240  0.754765
N    -1.322534  -3.700921  1.522388
C    -0.396929  -4.843542  1.585143
H    -2.107405  -3.774412  0.880794
H    -0.831279  -5.668854  1.015359
H    -0.254954  -5.153238  2.626162
H    0.571061  -4.572797  1.145751
Pb    1.157216  -1.150713  4.347269
