35
Energy: -608357.961934 eV PBE+vdW (tier 2 basis)
C    -0.119391  -0.397424  0.140109
C    -0.165125  -0.366297  1.628497
O    0.898933  -0.630541  2.288651
H    -1.073883  -0.151451  -0.336776
H    0.194908  -1.402996  -0.178674
H    0.655397  0.296248  -0.216432
N    -1.327602  -0.078040  2.228660
C    -1.707399  -0.099585  3.663834
C    -0.958174  0.997475  4.453481
O    0.268418  0.868328  4.795874
H    -2.091671  0.128003  1.588078
H    -2.766673  0.192828  3.650873
C    -1.609863  -1.505771  4.304354
C    -2.414724  -1.664066  5.616313
C    -3.930741  -1.923806  5.444656
C    -4.363303  -3.382507  5.254502
N    -4.518334  -4.134440  6.573884
H    -0.556679  -1.751950  4.493480
H    -1.952766  -2.228040  3.548871
H    -2.278414  -0.773274  6.247456
H    -1.950962  -2.478949  6.192773
H    -4.318983  -1.380130  4.570048
H    -4.481813  -1.493485  6.295178
H    -3.655748  -3.967999  4.653782
H    -5.347060  -3.443858  4.774730
H    -4.808224  -5.111350  6.409807
H    -5.241991  -3.704049  7.169802
H    -3.647587  -4.166299  7.122775
N    -1.634541  2.076710  4.796930
C    -1.100862  3.227048  5.537962
H    -2.606901  2.141996  4.500493
H    -1.878082  3.596925  6.214865
H    -0.830582  4.028013  4.836726
H    -0.222539  2.921173  6.110945
Pb    2.182394  0.006486  3.981656
