35
Energy: -608358.459282 eV PBE+vdW (tier 2 basis)
C    0.291997  1.864219  1.204153
C    0.098649  1.355815  2.589802
O    0.894762  1.734753  3.516120
H    0.255265  2.963797  1.226129
H    -0.451764  1.491022  0.492410
H    1.298406  1.595848  0.852464
N    -0.924417  0.528201  2.845392
C    -1.340483  0.015575  4.164575
C    -0.403498  -1.148046  4.574071
O    0.754007  -0.876982  5.054114
H    -1.488058  0.249502  2.044159
H    -1.141391  0.813520  4.896971
C    -2.848749  -0.307112  4.184625
C    -3.767447  0.930379  4.107001
C    -5.260993  0.550929  4.212035
C    -6.160997  1.787849  4.175967
N    -7.634512  1.422960  4.296379
H    -3.055292  -0.842563  5.123502
H    -3.096920  -1.001671  3.362825
H    -3.595016  1.478688  3.168059
H    -3.508334  1.621583  4.924163
H    -5.431624  -0.001483  5.150060
H    -5.529807  -0.126894  3.385938
H    -6.065197  2.344642  3.235419
H    -5.953211  2.474773  5.005930
H    -8.228427  2.266519  4.273146
H    -7.840666  0.932888  5.179807
H    -7.946848  0.812429  3.526489
N    -0.788066  -2.397142  4.424691
C    0.006898  -3.590321  4.746529
H    -1.720956  -2.562207  4.051610
H    0.850172  -3.309371  5.380454
H    0.372841  -4.050077  3.819172
H    -0.633550  -4.306731  5.272498
Pb    2.149224  0.887711  5.165344
