35
Energy: -608356.689567 eV PBE+vdW (tier 2 basis)
C    0.527418  0.473889  0.011446
C    0.523075  0.223358  1.487134
O    1.514766  0.347532  2.212529
H    -0.437540  0.293229  -0.474240
H    1.288668  -0.170419  -0.450558
H    0.836404  1.509944  -0.184005
N    -0.684959  -0.194307  2.044393
C    -0.813522  -0.281581  3.492930
C    -1.561893  -1.556101  3.862861
O    -2.027641  -1.714878  5.069729
H    -1.520617  0.041833  1.508948
H    0.223421  -0.444488  3.853421
C    -1.363724  1.001460  4.164638
C    -0.451598  2.225605  3.964050
C    0.826116  2.241953  4.828919
C    1.914403  3.194791  4.318829
N    2.897508  2.497605  3.386336
H    -1.498541  0.811029  5.239238
H    -2.360955  1.219732  3.753398
H    -1.044344  3.120057  4.200553
H    -0.205698  2.325950  2.896544
H    1.258979  1.234382  4.939780
H    0.564966  2.559987  5.847418
H    2.513062  3.608839  5.137307
H    1.489660  4.036578  3.758560
H    2.428270  1.802317  2.758370
H    3.415238  3.176093  2.811563
H    3.598576  1.971222  3.924534
N    -1.703243  -2.511090  2.970814
C    -2.337040  -3.802760  3.194829
H    -1.290294  -2.305516  2.054673
H    -3.407948  -3.677840  3.427626
H    -1.811911  -4.366626  3.985039
H    -2.274942  -4.399409  2.278212
Pb    -3.072662  -2.906736  6.535325
