35
Energy: -608356.748223 eV PBE+vdW (tier 2 basis)
C    -1.575292  -0.516817  0.095766
C    -0.902419  0.257677  1.177129
O    0.389828  0.518984  1.085187
H    -2.645210  -0.652913  0.283754
H    -1.116468  -1.514040  0.013470
H    -1.453002  -0.001553  -0.868280
N    -1.579653  0.673301  2.213550
C    -1.141131  1.335973  3.447470
C    -2.119886  0.728527  4.497297
O    -3.232760  0.372463  4.078385
H    -2.570729  0.369596  2.349964
H    -0.096818  1.059378  3.640354
C    -1.255296  2.891150  3.401465
C    -2.610955  3.558362  3.716452
C    -3.726215  3.402837  2.667659
C    -4.872971  4.408123  2.781236
N    -5.752478  4.200758  4.011968
H    -0.884753  3.234197  2.423524
H    -0.532390  3.262891  4.141072
H    -2.384759  4.629734  3.836082
H    -2.954818  3.212015  4.704630
H    -4.131076  2.378874  2.666791
H    -3.312461  3.572891  1.661153
H    -5.550860  4.331809  1.922980
H    -4.512779  5.443074  2.842805
H    -6.162935  3.255792  4.032734
H    -6.534767  4.873100  4.018036
H    -5.233821  4.335832  4.890591
N    -1.704247  0.673722  5.764484
C    -2.501929  0.123985  6.864803
H    -0.758923  0.978113  5.981402
H    -2.651882  0.887706  7.637608
H    -1.980738  -0.732182  7.309518
H    -3.466665  -0.204500  6.470377
Pb    2.243805  0.161690  0.067774
