35
Energy: -608357.469317 eV PBE+vdW (tier 2 basis)
C    0.721904  0.133481  0.499586
C    0.893700  0.650389  1.880084
O    2.060328  0.972482  2.299012
H    0.962904  0.913093  -0.239379
H    -0.273674  -0.272597  0.300865
H    1.474017  -0.656825  0.345887
N    -0.152736  0.776945  2.730961
C    -1.403451  1.448669  2.356326
C    -1.041461  2.956299  2.142352
O    0.115271  3.405525  2.470428
H    0.137595  0.978455  3.690013
H    -1.740914  1.049032  1.388039
C    -2.512058  1.260734  3.416755
C    -3.240190  -0.101918  3.484136
C    -2.485378  -1.266605  4.158672
C    -3.366668  -2.304185  4.859739
N    -4.219639  -3.155559  3.922507
H    -3.279105  2.022397  3.218851
H    -2.106275  1.521558  4.408624
H    -3.575729  -0.382636  2.472859
H    -4.157587  0.099531  4.059371
H    -1.854036  -0.874837  4.971763
H    -1.793459  -1.764950  3.462381
H    -4.071970  -1.833313  5.556536
H    -2.754848  -3.017529  5.424660
H    -4.776138  -3.836818  4.462572
H    -3.644270  -3.697109  3.261277
H    -4.886642  -2.594890  3.374086
N    -1.941946  3.758190  1.617025
C    -1.759169  5.196353  1.362147
H    -2.839171  3.358392  1.346718
H    -1.262272  5.665214  2.217097
H    -2.745497  5.646305  1.219853
H    -1.161282  5.347848  0.454181
Pb    2.356526  3.156338  2.856275
