35
Energy: -608356.738613 eV PBE+vdW (tier 2 basis)
C    0.156166  0.045195  -0.814499
C    0.281146  -0.298316  0.623743
O    1.491203  -0.583938  1.077045
H    0.818285  0.900968  -1.021801
H    -0.861692  0.296713  -1.106987
H    0.481927  -0.806243  -1.425460
N    -0.659759  -0.215450  1.551424
C    -2.119361  -0.366916  1.413491
C    -2.325462  -1.807938  0.812891
O    -1.533880  -2.162911  -0.063423
H    -0.316831  -0.390706  2.497031
H    -2.485270  -0.304151  2.445502
C    -2.849374  0.725029  0.583486
C    -4.322565  0.877960  1.010785
C    -5.073921  2.097148  0.429952
C    -5.526936  1.934160  -1.020495
N    -6.446218  3.077451  -1.434947
H    -2.782671  0.489606  -0.487408
H    -2.322459  1.676823  0.748968
H    -4.361192  0.986077  2.104391
H    -4.885642  -0.037015  0.774827
H    -4.458065  3.004549  0.534854
H    -5.964329  2.251344  1.059638
H    -6.109055  1.015746  -1.168639
H    -4.698605  1.939811  -1.739222
H    -6.761512  2.976198  -2.411445
H    -5.980730  3.993751  -1.356396
H    -7.291070  3.115421  -0.844635
N    -3.344150  -2.565185  1.247507
C    -4.282285  -2.385450  2.354806
H    -3.410103  -3.453480  0.748974
H    -4.275519  -3.285808  2.980520
H    -5.303310  -2.230957  1.983259
H    -4.002388  -1.536318  2.983983
Pb    3.519363  -1.206929  1.015985
