35
Energy: -608356.704222 eV PBE+vdW (tier 2 basis)
C    0.352484  -1.487236  -0.338819
C    0.219097  -1.283650  1.131204
O    1.138726  -1.765767  1.945283
H    0.365711  -2.564345  -0.564998
H    1.297285  -1.049369  -0.693983
H    -0.470318  -1.035180  -0.902250
N    -0.805378  -0.632437  1.620948
C    -1.182519  -0.362464  3.015772
C    -2.728230  -0.279672  2.959649
O    -3.227031  0.206428  1.917902
H    -1.544408  -0.303654  0.977189
H    -0.826149  -1.196420  3.630977
C    -0.596669  0.981569  3.570208
C    -1.426072  2.258998  3.362366
C    -1.437976  2.884196  1.950304
C    -2.660257  3.766565  1.694962
N    -3.882064  2.936509  1.295985
H    0.419753  1.104653  3.167670
H    -0.476065  0.831996  4.651937
H    -1.030452  3.010319  4.060877
H    -2.452773  2.074260  3.716323
H    -1.371729  2.127293  1.153868
H    -0.550063  3.518768  1.823219
H    -2.493441  4.482015  0.882723
H    -2.940400  4.335300  2.589732
H    -4.758378  3.371163  1.613908
H    -3.949363  2.854915  0.273293
H    -3.827858  1.959143  1.666606
N    -3.441731  -0.661090  4.014681
C    -2.976064  -1.265615  5.268411
H    -4.451123  -0.575698  3.892326
H    -3.790171  -1.204339  5.996581
H    -2.122213  -0.718855  5.683509
H    -2.722453  -2.324851  5.130513
Pb    2.927100  -2.930530  2.199635
