35
Energy: -608358.304782 eV PBE+vdW (tier 2 basis)
C    -1.659065  -0.208805  -2.634487
C    -1.306074  -0.595335  -1.241190
O    -0.117584  -0.395816  -0.814265
H    -1.459580  0.866246  -2.760085
H    -2.702081  -0.415812  -2.895947
H    -0.996255  -0.730437  -3.339437
N    -2.251296  -1.122742  -0.449533
C    -2.121291  -1.445347  0.983675
C    -1.376551  -2.794044  1.135904
O    -0.100020  -2.812934  1.023820
H    -3.161115  -1.278920  -0.879128
H    -1.438042  -0.697720  1.416226
C    -3.477819  -1.323933  1.712128
C    -3.977413  0.135336  1.802903
C    -5.112517  0.408848  2.817633
C    -6.508658  -0.025091  2.367729
N    -7.572850  0.466738  3.341519
H    -3.332358  -1.716058  2.730194
H    -4.231160  -1.967786  1.225920
H    -4.275076  0.508149  0.810813
H    -3.132631  0.766536  2.115700
H    -5.123044  1.496315  2.990563
H    -4.866313  -0.055855  3.785671
H    -6.631443  -1.113895  2.316752
H    -6.777691  0.401766  1.393097
H    -7.574998  1.495776  3.415124
H    -7.429597  0.095054  4.292641
H    -8.518535  0.182581  3.042758
N    -2.043225  -3.903610  1.371128
C    -1.463602  -5.246614  1.513959
H    -3.054617  -3.834934  1.462767
H    -0.383637  -5.166795  1.652340
H    -1.682702  -5.839414  0.616378
H    -1.916222  -5.733743  2.384638
Pb    1.535066  -1.459705  0.258093
