35
Energy: -608356.288763 eV PBE+vdW (tier 2 basis)
C    -0.062550  -1.208667  3.016460
C    -0.155959  0.250458  2.681636
O    0.529065  1.113083  3.218048
H    -0.628443  -1.425366  3.935158
H    0.986672  -1.440485  3.236132
H    -0.416132  -1.870594  2.218128
N    -1.058073  0.658369  1.668978
C    -2.424983  0.154304  1.580786
C    -2.768044  -0.168652  0.114976
O    -3.967246  -0.567669  -0.206394
H    -0.992739  1.671929  1.548667
H    -2.465084  -0.819614  2.097484
C    -3.456060  1.099604  2.258273
C    -3.156014  1.335130  3.759562
C    -2.245479  2.545215  4.072648
C    -1.523761  2.415851  5.423978
N    -0.136154  3.027202  5.358867
H    -4.450880  0.645344  2.161171
H    -3.495579  2.056360  1.713531
H    -2.718422  0.416844  4.183427
H    -4.112345  1.464156  4.282695
H    -2.835591  3.471305  4.046882
H    -1.479350  2.653459  3.293779
H    -1.362223  1.366919  5.700541
H    -2.058478  2.905026  6.245789
H    0.416786  2.537948  4.626652
H    -0.162733  4.031636  5.133687
H    0.360624  2.931991  6.256625
N    -1.826790  -0.057397  -0.783568
C    -1.925173  -0.335076  -2.215693
H    -0.922071  0.226706  -0.382363
H    -2.052299  -1.412923  -2.390540
H    -2.756017  0.229868  -2.658613
H    -0.996254  -0.015267  -2.696849
Pb    -5.727423  -1.355726  -1.149303
