35
Energy: -608357.928160 eV PBE+vdW (tier 2 basis)
C    -0.263304  1.172601  0.526111
C    -0.519203  -0.191528  1.068966
O    0.203382  -1.166132  0.666422
H    -0.327696  1.134054  -0.571336
H    0.768424  1.469860  0.764475
H    -0.952909  1.935258  0.902936
N    -1.513132  -0.350682  1.954774
C    -2.061158  -1.578214  2.581422
C    -1.023318  -2.263186  3.489639
O    -0.071674  -2.978807  3.006570
H    -1.998187  0.509469  2.200375
H    -2.851919  -1.200816  3.241223
C    -2.722062  -2.566903  1.589577
C    -3.966237  -1.985780  0.886243
C    -4.588063  -2.936367  -0.166235
C    -5.651572  -3.931092  0.314951
N    -7.069204  -3.368889  0.231652
H    -2.984156  -3.471118  2.161252
H    -1.991605  -2.883328  0.831058
H    -4.715105  -1.693239  1.641314
H    -3.685014  -1.056691  0.371021
H    -3.792490  -3.532723  -0.635726
H    -5.001123  -2.341734  -0.995592
H    -5.512090  -4.248520  1.355880
H    -5.667464  -4.829518  -0.312706
H    -7.195937  -2.515527  0.793655
H    -7.762052  -4.057972  0.563613
H    -7.322014  -3.135644  -0.740885
N    -1.125836  -2.162464  4.800441
C    -2.107779  -1.431326  5.617720
H    -0.414799  -2.687327  5.316269
H    -1.721679  -1.389460  6.640553
H    -3.071233  -1.956241  5.634975
H    -2.232647  -0.402912  5.262002
Pb    1.363856  -2.964101  1.290389
