35
Energy: -608356.489662 eV PBE+vdW (tier 2 basis)
C    0.429762  -0.913918  0.431122
C    0.071285  0.205493  1.349027
O    0.948869  1.135911  1.626230
H    0.681030  -0.510954  -0.562406
H    1.308773  -1.449941  0.820578
H    -0.379233  -1.640921  0.300230
N    -1.137718  0.260123  1.878307
C    -1.761637  1.271344  2.755055
C    -1.560120  1.017102  4.278989
O    -1.531896  2.021712  5.005974
H    -1.765073  -0.487019  1.570651
H    -1.265891  2.229215  2.560819
C    -3.272249  1.313396  2.388209
C    -4.265525  2.001569  3.346811
C    -4.433465  3.531430  3.281479
C    -3.391544  4.442176  3.923478
N    -3.230720  4.183159  5.409961
H    -3.605126  0.264112  2.308072
H    -3.365420  1.743901  1.379874
H    -4.104034  1.653692  4.378871
H    -5.246942  1.587374  3.076663
H    -5.413723  3.774658  3.721424
H    -4.518318  3.851429  2.231661
H    -3.691401  5.490636  3.810417
H    -2.386955  4.326810  3.499228
H    -4.140468  4.093317  5.882795
H    -2.676343  3.306638  5.536949
H    -2.723062  4.949121  5.872044
N    -1.478317  -0.238723  4.726808
C    -1.394433  -0.588943  6.151126
H    -1.583478  -1.007081  4.071456
H    -0.818071  -1.513206  6.256402
H    -2.396631  -0.743138  6.571508
H    -0.895938  0.220313  6.691667
Pb    2.978796  1.804828  1.249602
