35
Energy: -608357.531326 eV PBE+vdW (tier 2 basis)
C    -1.055803  -1.031419  0.544786
C    -0.065196  -0.061397  1.067374
O    1.138669  -0.074764  0.624862
H    -1.166912  -0.935390  -0.544712
H    -2.028770  -0.979923  1.040758
H    -0.633415  -2.038026  0.708921
N    -0.376140  0.833451  2.033819
C    -1.546958  1.715635  1.986653
C    -1.309750  2.666963  0.776633
O    -0.135777  2.811551  0.281425
H    0.444295  1.269610  2.459705
H    -2.442474  1.108572  1.787796
C    -1.687002  2.436840  3.355463
C    -3.056536  3.057295  3.692559
C    -3.017408  3.706709  5.093940
C    -4.275051  4.447180  5.557487
N    -5.329202  3.546518  6.197161
H    -0.904118  3.208438  3.434931
H    -1.452255  1.673457  4.112660
H    -3.832635  2.276066  3.637738
H    -3.326510  3.834299  2.959877
H    -2.218164  4.462883  5.106682
H    -2.717569  2.966641  5.854078
H    -4.782545  4.978819  4.742815
H    -4.022997  5.180429  6.332505
H    -6.138760  4.102794  6.514264
H    -4.957214  3.061263  7.027491
H    -5.690905  2.829242  5.554049
N    -2.333245  3.324661  0.269801
C    -2.265152  4.263530  -0.860725
H    -3.254687  3.138678  0.659807
H    -3.144224  4.913050  -0.823957
H    -2.268226  3.714380  -1.811358
H    -1.357650  4.869554  -0.785946
Pb    1.894135  1.862455  -0.274804
