35
Energy: -608356.232941 eV PBE+vdW (tier 2 basis)
C    0.942017  -1.323286  0.542691
C    0.548281  -0.657692  1.819445
O    1.388254  -0.282435  2.680677
H    1.680411  -0.697007  0.023817
H    0.100944  -1.529946  -0.127316
H    1.446046  -2.274025  0.771364
N    -0.771940  -0.440368  2.049950
C    -1.337348  -0.007971  3.335090
C    -1.098212  1.487547  3.591420
O    -2.111026  2.235569  3.966388
H    -1.432651  -0.728645  1.332809
H    -2.421798  -0.087726  3.198420
C    -0.959942  -0.959371  4.544524
C    -0.314012  -0.398977  5.828787
C    1.199925  -0.118259  5.919784
C    2.173096  -1.294074  6.018706
N    2.457963  -1.998747  4.690487
H    -0.362429  -1.771233  4.113611
H    -1.902446  -1.434290  4.843650
H    -0.570278  -1.107040  6.631548
H    -0.836167  0.526066  6.123810
H    1.354398  0.426428  6.863698
H    1.552476  0.567054  5.137954
H    1.835609  -2.064726  6.722316
H    3.144008  -0.927072  6.369505
H    3.434790  -2.320651  4.651229
H    2.280503  -1.366709  3.875136
H    1.872498  -2.833761  4.569264
N    0.090917  1.992635  3.430789
C    0.485978  3.391642  3.593565
H    0.804413  1.268759  3.157987
H    1.561040  3.469388  3.410257
H    0.272799  3.738960  4.612917
H    -0.035682  4.025299  2.863304
Pb    -3.730758  3.582878  4.318861
