35
Energy: -608356.505078 eV PBE+vdW (tier 2 basis)
C    0.756300  1.561661  1.074962
C    0.559079  0.560747  2.158491
O    1.567609  -0.131956  2.624118
H    0.253023  2.509592  1.308696
H    0.330868  1.186347  0.129952
H    1.819912  1.758709  0.915818
N    -0.633044  0.331842  2.689847
C    -1.914744  0.956829  2.315403
C    -2.233267  2.309887  3.047347
O    -3.250947  2.881565  2.668596
H    -0.669060  -0.381702  3.422273
H    -1.836615  1.232316  1.255461
C    -3.096901  -0.036862  2.519348
C    -4.018209  -0.237392  1.295093
C    -4.848834  0.966215  0.808274
C    -6.016161  1.415499  1.685594
N    -7.272067  0.572293  1.468597
H    -3.673111  0.279938  3.399004
H    -2.684802  -1.026134  2.768767
H    -4.672423  -1.092602  1.531183
H    -3.408700  -0.585760  0.447636
H    -5.217551  0.753220  -0.207840
H    -4.209114  1.851809  0.700106
H    -6.312635  2.443444  1.448377
H    -5.797549  1.370241  2.758840
H    -8.047306  0.896704  2.065644
H    -7.120691  -0.423644  1.679482
H    -7.596314  0.632753  0.492013
N    -1.406607  2.757763  4.003647
C    -1.669391  3.994392  4.753499
H    -0.659206  2.157906  4.333294
H    -0.716161  4.419304  5.082227
H    -2.300903  3.795150  5.628610
H    -2.180135  4.705828  4.098282
Pb    3.558546  -0.954291  2.760738
