35
Energy: -608355.736889 eV PBE+vdW (tier 2 basis)
C    0.762431  -0.459337  0.374610
C    0.377305  -0.207930  1.800235
O    1.094319  -0.494787  2.766609
H    -0.008372  -0.174102  -0.349154
H    0.989444  -1.527998  0.257437
H    1.689858  0.086178  0.152773
N    -0.857345  0.371067  2.027937
C    -1.244813  0.693335  3.407009
C    -2.762369  0.854493  3.443503
O    -3.310280  2.048208  3.499378
H    -1.365044  0.754881  1.236522
H    -1.031606  -0.217652  3.990196
C    -0.410187  1.842640  4.007043
C    -0.179136  1.863110  5.531911
C    0.188807  0.584719  6.331906
C    1.221828  -0.452177  5.860164
N    2.457552  0.099327  5.170038
H    -0.824547  2.814232  3.697270
H    0.555312  1.785964  3.492417
H    -1.068149  2.264651  6.041867
H    0.593766  2.627126  5.704586
H    -0.717049  -0.011325  6.522417
H    0.490428  0.941740  7.326848
H    0.810536  -1.159763  5.133918
H    1.570524  -1.022784  6.728371
H    2.240834  0.209541  4.159737
H    3.237235  -0.570939  5.234305
H    2.789460  0.986258  5.570065
N    -3.551105  -0.194140  3.411574
C    -3.164439  -1.613489  3.342257
H    -4.556292  -0.010960  3.437522
H    -3.997197  -2.165935  2.895067
H    -2.989118  -2.003483  4.354378
H    -2.274660  -1.738721  2.718955
Pb    -4.327839  3.932770  3.548288
