35
Energy: -608356.693166 eV PBE+vdW (tier 2 basis)
C    -0.059774  1.456518  -0.188269
C    0.062864  0.544999  0.977403
O    1.252259  0.242358  1.442286
H    -1.062705  1.486803  -0.623774
H    0.670135  1.180158  -0.960363
H    0.167547  2.483045  0.144694
N    -0.974806  0.026881  1.615458
C    -2.400191  0.235060  1.302616
C    -2.868733  1.676397  1.745354
O    -3.126319  2.449978  0.828581
H    -0.750952  -0.541326  2.435644
H    -2.481041  0.293787  0.212334
C    -3.278001  -0.939517  1.775660
C    -4.758443  -0.699322  1.419915
C    -5.657409  -1.919011  1.703785
C    -7.104654  -1.626588  1.306834
N    -8.018179  -2.820128  1.552919
H    -3.170265  -1.109904  2.856392
H    -2.916886  -1.848776  1.270642
H    -4.835423  -0.433025  0.354153
H    -5.136816  0.170797  1.978609
H    -5.608690  -2.181192  2.772937
H    -5.286699  -2.790208  1.140102
H    -7.199843  -1.390621  0.239509
H    -7.533299  -0.796128  1.881645
H    -7.723510  -3.646850  1.012613
H    -8.989350  -2.607551  1.278130
H    -8.036056  -3.092820  2.546614
N    -2.945694  2.016201  3.049556
C    -2.778983  1.209224  4.253878
H    -3.278977  2.970422  3.184280
H    -1.900433  0.555632  4.194462
H    -3.668203  0.604439  4.479364
H    -2.612674  1.888001  5.096618
Pb    3.404008  0.285645  1.412208
