35
Energy: -608355.908550 eV PBE+vdW (tier 2 basis)
C    -0.181953  0.223761  -0.022063
C    -0.068145  0.234381  1.472802
O    1.011606  0.325149  2.057798
H    -1.174653  0.500919  -0.392252
H    0.095030  -0.765030  -0.417661
H    0.556583  0.931517  -0.418971
N    -1.229649  0.174717  2.252126
C    -2.314200  -0.751376  1.967360
C    -3.712266  -0.112884  2.013892
O    -4.582221  -0.508965  1.111165
H    -0.978145  0.247136  3.237692
H    -2.203526  -1.076403  0.924298
C    -2.245777  -2.020243  2.874136
C    -0.845190  -2.687179  2.825024
C    0.053313  -2.405727  4.050263
C    1.532819  -2.782445  3.847466
N    2.411001  -1.564068  3.607572
H    -3.016128  -2.728774  2.540143
H    -2.508852  -1.753694  3.909396
H    -0.329622  -2.397008  1.896215
H    -0.985309  -3.773522  2.747201
H    -0.330079  -2.976100  4.906870
H    -0.005770  -1.350879  4.362699
H    1.672447  -3.443889  2.983961
H    1.948533  -3.292051  4.723184
H    3.326744  -1.833453  3.221783
H    2.598764  -1.066252  4.488475
H    1.963755  -0.870310  2.958906
N    -4.101930  0.777053  2.892939
C    -3.370830  1.366331  4.028059
H    -5.056072  1.122764  2.772993
H    -4.110208  1.823853  4.692295
H    -2.680277  2.141417  3.673319
H    -2.836733  0.593768  4.589607
Pb    -6.122261  -1.057486  -0.281441
