35
Energy: -608356.765206 eV PBE+vdW (tier 2 basis)
C    0.244232  -0.223019  0.222275
C    -0.146705  -0.683663  1.575063
O    0.786127  -1.136594  2.392029
H    0.914794  0.645028  0.314228
H    -0.616726  0.037001  -0.400237
H    0.808852  -1.022141  -0.280021
N    -1.379504  -0.685930  2.041960
C    -2.662443  -0.161302  1.468275
C    -3.063415  -0.913632  0.158059
O    -2.785175  -0.422506  -0.949241
H    -1.465410  -1.045968  2.994606
H    -3.396685  -0.414594  2.246013
C    -2.639976  1.368474  1.294384
C    -4.031100  2.035302  1.259933
C    -4.924945  1.819918  0.024306
C    -4.370499  2.428817  -1.277610
N    -4.384154  1.422975  -2.412276
H    -2.057805  1.617333  0.395737
H    -2.098227  1.792031  2.151780
H    -3.865065  3.115315  1.387770
H    -4.601662  1.731349  2.150395
H    -5.901271  2.272715  0.239565
H    -5.136594  0.749082  -0.120103
H    -3.325482  2.745527  -1.181836
H    -4.952047  3.295240  -1.610794
H    -5.341497  1.118867  -2.635792
H    -3.823085  0.589427  -2.127499
H    -3.984148  1.817330  -3.274919
N    -3.714022  -2.069560  0.331796
C    -4.183018  -2.921885  -0.763852
H    -3.963863  -2.353030  1.275489
H    -4.080052  -3.971622  -0.469905
H    -3.578617  -2.729353  -1.654517
H    -5.240282  -2.723369  -0.984870
Pb    2.673392  -1.673472  3.240426
