35
Energy: -608356.488016 eV PBE+vdW (tier 2 basis)
C    0.681002  -2.275142  1.383205
C    0.435770  -1.317556  2.499501
O    1.112624  -1.429199  3.622599
H    0.457956  -3.300035  1.717578
H    1.737497  -2.231088  1.077752
H    0.064644  -2.068212  0.501600
N    -0.457616  -0.364032  2.363730
C    -0.891854  0.703378  3.288451
C    -2.433067  0.804890  3.074326
O    -2.817826  1.224358  1.965988
H    -0.932364  -0.322587  1.455364
H    -0.618528  0.412569  4.308066
C    -0.254242  2.050149  2.867247
C    -0.925559  3.276817  3.521931
C    -0.942484  4.547435  2.649435
C    -1.613752  4.467819  1.278545
N    -3.058780  3.997827  1.333417
H    -0.337634  2.109234  1.773325
H    0.819653  2.025085  3.096267
H    -0.413243  3.525052  4.460856
H    -1.956806  3.034883  3.824105
H    0.086484  4.885890  2.454499
H    -1.403877  5.358485  3.233139
H    -1.110032  3.779020  0.589617
H    -1.619804  5.458140  0.808214
H    -3.609757  4.544378  2.009206
H    -3.111959  2.981723  1.587437
H    -3.512871  4.111262  0.416438
N    -3.261556  0.449898  4.058853
C    -2.944812  -0.043277  5.402990
H    -4.249782  0.531774  3.817577
H    -3.885088  -0.153363  5.950850
H    -2.320148  0.668855  5.956070
H    -2.464029  -1.029367  5.366993
Pb    2.660700  -2.519005  4.658154
