35
Energy: -608356.873516 eV PBE+vdW (tier 2 basis)
C    -0.313773  1.982756  1.682359
C    -0.307671  0.709466  2.448313
O    0.684186  0.430072  3.260794
H    0.261481  2.751290  2.208886
H    -1.328542  2.356760  1.505825
H    0.159901  1.819803  0.699226
N    -1.271717  -0.187603  2.337485
C    -2.434304  -0.158543  1.419464
C    -3.648295  0.693766  1.901918
O    -4.376540  1.163321  1.017187
H    -1.157297  -1.041415  2.890911
H    -2.107835  0.328607  0.493199
C    -2.855706  -1.624268  1.133499
C    -4.165554  -1.799455  0.349953
C    -4.140148  -1.335507  -1.122395
C    -5.528737  -1.016433  -1.672677
N    -5.975968  0.383550  -1.258088
H    -2.972316  -2.143358  2.099446
H    -2.028209  -2.116927  0.600410
H    -4.980120  -1.309103  0.903232
H    -4.410927  -2.870215  0.373741
H    -3.712775  -2.128275  -1.751156
H    -3.488738  -0.460071  -1.272451
H    -5.558248  -1.040957  -2.767350
H    -6.286226  -1.715878  -1.298631
H    -5.630404  1.087226  -1.923465
H    -7.000827  0.467415  -1.239168
H    -5.590787  0.647918  -0.325111
N    -3.859452  0.843715  3.213876
C    -5.016671  1.558126  3.768052
H    -3.256254  0.356079  3.868158
H    -4.742976  1.976260  4.741377
H    -5.869494  0.879057  3.895784
H    -5.297791  2.367786  3.088523
Pb    2.598815  0.527528  4.238096
