35
Energy: -608357.351388 eV PBE+vdW (tier 2 basis)
C    -1.040690  1.007573  0.468769
C    -0.833539  0.340820  1.782137
O    0.202096  0.655587  2.472795
H    -0.504851  0.459832  -0.324107
H    -0.585779  2.005286  0.519869
H    -2.093629  1.093208  0.192162
N    -1.694504  -0.557775  2.311470
C    -2.225284  -1.757025  1.631074
C    -1.002446  -2.694510  1.393603
O    0.193637  -2.229598  1.491899
H    -1.491154  -0.732406  3.297768
H    -2.858584  -2.247055  2.387139
C    -3.101626  -1.527891  0.378178
C    -4.453723  -0.842629  0.672034
C    -5.335646  -0.784128  -0.593796
C    -6.830603  -0.525960  -0.395173
N    -7.196736  0.930930  -0.121174
H    -3.305267  -2.517950  -0.052119
H    -2.540891  -0.991851  -0.398001
H    -4.285093  0.162817  1.089900
H    -4.977421  -1.416775  1.453430
H    -5.298788  -1.763870  -1.095164
H    -4.924345  -0.075972  -1.331402
H    -7.249426  -1.103743  0.438438
H    -7.384760  -0.791529  -1.303310
H    -8.220053  1.035303  -0.035373
H    -6.897321  1.548903  -0.889847
H    -6.785311  1.290286  0.750698
N    -1.165288  -3.971961  1.112810
C    -2.389631  -4.775436  1.022853
H    -0.292345  -4.480542  0.951666
H    -3.212473  -4.306067  1.569447
H    -2.187121  -5.753242  1.474213
H    -2.669977  -4.928931  -0.027474
Pb    1.785293  -0.954088  2.547908
