35
Energy: -608356.558023 eV PBE+vdW (tier 2 basis)
C    0.106901  -0.249449  0.222100
C    0.061075  -0.664282  1.650218
O    1.164438  -0.977744  2.285058
H    1.082271  0.187818  -0.015841
H    -0.675479  0.474142  -0.033763
H    -0.032229  -1.134758  -0.421129
N    -1.070339  -0.749875  2.328832
C    -2.424076  -0.465716  1.818769
C    -2.786019  1.062653  1.749339
O    -3.317571  1.419869  0.700344
H    -0.986916  -1.030753  3.308595
H    -2.434033  -0.763455  0.765573
C    -3.478416  -1.290306  2.595133
C    -4.950635  -0.946380  2.277575
C    -5.410846  -1.269707  0.844993
C    -6.822714  -0.808681  0.487717
N    -7.929747  -1.618702  1.160468
H    -3.330642  -1.145731  3.676103
H    -3.289250  -2.355728  2.393340
H    -5.133204  0.118506  2.489100
H    -5.548115  -1.507553  3.013173
H    -5.298830  -2.344983  0.628787
H    -4.770923  -0.745185  0.119877
H    -7.004763  -0.908999  -0.588592
H    -7.001001  0.237092  0.768360
H    -8.858569  -1.288056  0.857601
H    -7.904877  -1.546271  2.186724
H    -7.870606  -2.618054  0.916449
N    -2.561380  1.885921  2.791632
C    -2.010683  1.605622  4.114216
H    -2.843383  2.847738  2.605001
H    -2.295940  2.425238  4.781430
H    -0.912404  1.555104  4.106543
H    -2.428097  0.688677  4.547868
Pb    3.260081  -1.400140  2.542105
