35
Energy: -608357.402931 eV PBE+vdW (tier 2 basis)
C    -0.066594  1.222452  -0.723810
C    -0.017848  0.420609  0.522550
O    1.093385  0.265369  1.139818
H    0.692511  0.806214  -1.407278
H    0.247432  2.259701  -0.535953
H    -1.038680  1.201573  -1.223844
N    -1.118303  -0.187812  1.027150
C    -2.392674  0.504521  1.251960
C    -2.122483  1.549914  2.372744
O    -1.058778  1.453943  3.091542
H    -0.897330  -0.862360  1.762620
H    -2.671711  1.038818  0.332091
C    -3.492216  -0.513110  1.650661
C    -3.818142  -1.567540  0.566948
C    -4.862239  -1.150225  -0.495600
C    -6.324466  -1.487144  -0.185181
N    -6.675750  -2.940576  -0.492223
H    -4.395663  0.041642  1.940555
H    -3.158741  -1.022452  2.568367
H    -4.146900  -2.478395  1.090550
H    -2.889495  -1.862027  0.058053
H    -4.596013  -1.579560  -1.473787
H    -4.832045  -0.062656  -0.661816
H    -7.008148  -0.891554  -0.801507
H    -6.588072  -1.329174  0.868450
H    -7.663737  -3.137215  -0.267981
H    -6.106182  -3.611650  0.042649
H    -6.546779  -3.156197  -1.492612
N    -2.963090  2.536120  2.610780
C    -4.216004  2.884312  1.934507
H    -2.695799  3.142690  3.390481
H    -4.249975  3.972380  1.808105
H    -5.073763  2.576428  2.546586
H    -4.273032  2.417835  0.947332
Pb    1.175838  0.974648  3.298565
