35
Energy: -608356.782886 eV PBE+vdW (tier 2 basis)
C    -0.684386  1.385098  0.100154
C    -0.473333  1.145651  1.549715
O    0.716095  1.275216  2.015608
H    -0.464537  2.440203  -0.122199
H    -1.696693  1.146203  -0.240776
H    0.050470  0.797538  -0.468666
N    -1.508097  0.812976  2.332262
C    -1.512266  0.336999  3.738303
C    -0.856246  1.325425  4.717319
O    -1.541788  1.589893  5.818521
H    -2.418125  0.829462  1.878480
H    -2.572802  0.298983  4.017160
C    -0.898714  -1.077019  3.928545
C    -1.664797  -2.256699  3.277465
C    -1.168312  -2.672294  1.880035
C    -1.896507  -3.857976  1.240983
N    -1.530317  -5.208707  1.850788
H    -0.872291  -1.243288  5.015103
H    0.152338  -1.067935  3.603788
H    -2.743028  -2.033830  3.239283
H    -1.567863  -3.105591  3.971765
H    -0.083829  -2.869992  1.899177
H    -1.298196  -1.845228  1.166499
H    -1.642968  -3.944736  0.177909
H    -2.987610  -3.776298  1.326402
H    -0.522087  -5.405288  1.764245
H    -2.028261  -5.972579  1.367721
H    -1.776513  -5.274819  2.848112
N    0.315071  1.803945  4.454716
C    0.959218  2.711498  5.361332
H    0.708524  1.444962  3.081413
H    1.936356  3.035798  4.979484
H    1.174110  2.232193  6.347780
H    0.373276  3.656534  5.491579
Pb    -1.190489  2.879059  7.519587
