35
Energy: -608357.519391 eV PBE+vdW (tier 2 basis)
C    0.308657  -0.230147  0.610113
C    0.029427  -0.065220  2.057367
O    0.989892  -0.117622  2.902390
H    0.985409  0.558170  0.248974
H    -0.590126  -0.274645  -0.010802
H    0.868888  -1.172875  0.492737
N    -1.227824  0.115985  2.528554
C    -2.149718  1.128306  1.998487
C    -1.510820  2.510043  2.321578
O    -0.560850  2.587165  3.187538
H    -1.289598  0.016021  3.543962
H    -2.210699  1.017314  0.906443
C    -3.545969  0.979759  2.651495
C    -4.310542  -0.327908  2.343566
C    -5.034729  -0.352972  0.985055
C    -5.796083  -1.641337  0.657545
N    -7.111892  -1.794629  1.415903
H    -4.158558  1.846566  2.367022
H    -3.414003  1.066722  3.741513
H    -5.035940  -0.449632  3.162817
H    -3.629170  -1.189912  2.419035
H    -5.713188  0.511186  0.891708
H    -4.310731  -0.243609  0.162592
H    -5.211879  -2.542378  0.883529
H    -6.070872  -1.670824  -0.403344
H    -7.591591  -2.664572  1.135798
H    -7.760638  -1.018401  1.217100
H    -6.983468  -1.840146  2.436347
N    -1.925565  3.612848  1.732962
C    -2.963855  3.800354  0.714730
H    -1.453555  4.465010  2.046620
H    -2.588529  4.504633  -0.036312
H    -3.867103  4.224541  1.172499
H    -3.205282  2.856395  0.219007
Pb    1.312470  1.730564  4.189155
