35
Energy: -608356.153614 eV PBE+vdW (tier 2 basis)
C    0.043844  0.546896  0.023813
C    -0.093217  0.157205  1.463181
O    0.821764  -0.350700  2.128088
H    -0.875181  0.944459  -0.420138
H    0.368984  -0.333071  -0.548007
H    0.840906  1.296505  -0.076390
N    -1.317940  0.387085  2.055498
C    -1.523643  0.078817  3.464264
C    -2.885469  -0.598098  3.658188
O    -2.901155  -1.832603  4.116655
H    -1.995776  0.926903  1.527083
H    -0.772405  -0.693245  3.678376
C    -1.319468  1.254313  4.473536
C    -0.034233  2.100432  4.278729
C    1.163042  1.829873  5.210456
C    2.036532  0.592679  5.017325
N    2.818347  0.607075  3.716417
H    -1.347091  0.828061  5.488573
H    -2.178885  1.933330  4.418032
H    -0.325201  3.141564  4.471949
H    0.268593  2.098853  3.221873
H    0.809964  1.791283  6.252370
H    1.815507  2.717676  5.180761
H    2.773134  0.535852  5.827420
H    1.469529  -0.346001  5.008226
H    3.240795  1.528047  3.537517
H    2.186249  0.341307  2.919810
H    3.587608  -0.075726  3.739352
N    -4.042304  -0.028354  3.417881
C    -4.369636  1.306864  2.895366
H    -4.863542  -0.608222  3.606714
H    -5.060208  1.794401  3.595480
H    -3.479469  1.927286  2.785684
H    -4.875283  1.191764  1.927081
Pb    -3.138523  -3.882368  4.695200
