35
Energy: -608357.598875 eV PBE+vdW (tier 2 basis)
C    0.358892  -0.405297  0.670382
C    0.091015  -0.248370  2.120840
O    1.048111  -0.378979  2.962631
H    1.067859  0.358320  0.317671
H    -0.542371  -0.399899  0.051612
H    0.877114  -1.369529  0.538196
N    -1.150468  0.004658  2.597456
C    -2.009859  1.073839  2.079205
C    -1.320595  2.419446  2.477427
O    -0.317763  2.428626  3.277092
H    -1.221949  -0.112702  3.610540
H    -2.022343  1.014873  0.980779
C    -3.442113  0.958181  2.654519
C    -4.244553  -0.301367  2.256668
C    -4.881479  -0.252016  0.855723
C    -5.696031  -1.483929  0.448596
N    -7.069416  -1.564457  1.109782
H    -4.004364  1.860068  2.370974
H    -3.367960  1.000626  3.752639
H    -5.024740  -0.412919  3.025416
H    -3.609304  -1.196469  2.346908
H    -5.500812  0.653342  0.742983
H    -4.102265  -0.166893  0.082500
H    -5.187281  -2.424274  0.695682
H    -5.896300  -1.477827  -0.629225
H    -7.582083  -2.397076  0.779378
H    -7.651631  -0.744864  0.881362
H    -7.017085  -1.633665  2.135604
N    -1.787178  3.545965  1.982854
C    -1.255324  4.887804  2.271144
H    -2.569562  3.495108  1.333194
H    -2.005946  5.624741  1.973121
H    -0.334485  5.062112  1.699903
H    -1.051668  4.985018  3.342017
Pb    1.503345  1.430827  4.254798
