35
Energy: -608356.787997 eV PBE+vdW (tier 2 basis)
C    -0.212807  0.568851  -0.742901
C    -0.408419  0.127883  0.666730
O    0.628582  -0.271055  1.377982
H    -1.147514  0.882583  -1.219048
H    0.208039  -0.257812  -1.335421
H    0.493819  1.411389  -0.777815
N    -1.602202  0.129329  1.204763
C    -2.046404  -0.314294  2.534004
C    -3.499742  -0.796578  2.290538
O    -4.179576  -0.155730  1.458382
H    -2.410554  0.397846  0.620810
H    -1.385525  -1.129292  2.854389
C    -2.026655  0.822360  3.612046
C    -3.292064  1.681023  3.763488
C    -3.562513  2.754555  2.687486
C    -5.033947  3.160476  2.604404
N    -5.844811  2.165313  1.772370
H    -1.143382  1.453769  3.433827
H    -1.849109  0.316651  4.571302
H    -3.215432  2.188969  4.735674
H    -4.160014  1.011786  3.874374
H    -3.220879  2.444854  1.687932
H    -2.989767  3.662133  2.923074
H    -5.169558  4.140479  2.134651
H    -5.498025  3.197747  3.597314
H    -5.413507  1.211388  1.777535
H    -6.817866  2.099811  2.098871
H    -5.884315  2.460248  0.788280
N    -3.932935  -1.822833  3.014691
C    -5.290566  -2.374315  2.945146
H    -3.287369  -2.266695  3.662913
H    -5.232237  -3.467730  2.958437
H    -5.762199  -2.048734  2.014282
H    -5.885197  -2.040839  3.805335
Pb    2.725990  -0.731799  1.466329
