35
Energy: -608358.188063 eV PBE+vdW (tier 2 basis)
C    0.493973  -0.371180  -0.027030
C    -0.056473  0.288628  1.190544
O    0.205288  -0.211406  2.337466
H    0.203626  0.115997  -0.963753
H    0.157484  -1.418557  -0.042504
H    1.591141  -0.400403  0.040551
N    -0.821979  1.379102  1.036979
C    -1.572433  2.179491  2.036800
C    -0.617428  2.914353  3.001403
O    -0.003468  2.300978  3.943425
H    -0.920668  1.688778  0.072951
H    -2.067517  2.953812  1.434635
C    -2.661885  1.384998  2.794404
C    -3.842049  0.866071  1.939481
C    -5.027733  1.843634  1.778644
C    -6.204968  1.143604  1.092628
N    -7.443825  2.024804  1.007481
H    -3.036379  2.027832  3.605553
H    -2.195048  0.522262  3.287174
H    -4.213517  -0.044815  2.430215
H    -3.483495  0.538346  0.951205
H    -5.340681  2.194854  2.775078
H    -4.734064  2.733753  1.199136
H    -6.516273  0.246260  1.642278
H    -5.972532  0.849231  0.061593
H    -8.222122  1.522306  0.552374
H    -7.277830  2.881912  0.459773
H    -7.776926  2.313957  1.939445
N    -0.478562  4.217754  2.859303
C    0.358986  5.090151  3.693033
H    -0.979868  4.668720  2.096128
H    -0.175298  6.031729  3.858492
H    1.303796  5.302209  3.175132
H    0.559380  4.603140  4.649861
Pb    0.827349  0.274694  4.421125
