35
Energy: -608356.749488 eV PBE+vdW (tier 2 basis)
C    -0.591779  0.083446  -0.044273
C    -0.470256  0.366670  1.419766
O    0.626907  0.331172  2.030806
H    -0.248187  -0.940847  -0.248004
H    0.084975  0.752020  -0.593695
H    -1.608344  0.192085  -0.436488
N    -1.608866  0.679290  2.096977
C    -1.711828  0.813166  3.555234
C    -1.186226  2.187300  4.005874
O    -1.937532  2.969808  4.741222
H    -2.478400  0.707460  1.571597
H    -2.785483  0.793533  3.778620
C    -1.006654  -0.305540  4.390455
C    -1.187471  -1.726417  3.833140
C    -0.191449  -2.758269  4.398009
C    1.302364  -2.500324  4.203147
N    1.711259  -2.333615  2.744759
H    -1.415562  -0.251016  5.410156
H    0.058936  -0.063026  4.471172
H    -1.119145  -1.716205  2.735558
H    -2.201717  -2.089729  4.048622
H    -0.446005  -3.743841  3.979007
H    -0.330557  -2.867636  5.484289
H    1.880068  -3.347012  4.592396
H    1.658736  -1.596515  4.711893
H    2.736883  -2.347705  2.652556
H    1.374960  -1.425696  2.352255
H    1.349969  -3.103432  2.164335
N    0.021739  2.536704  3.656242
C    0.701555  3.794562  3.967694
H    0.515504  1.812768  3.082693
H    1.695001  3.770674  3.511929
H    0.815096  3.913493  5.053467
H    0.147315  4.645509  3.549134
Pb    -3.067906  4.411218  5.839321
