35
Energy: -608357.345535 eV PBE+vdW (tier 2 basis)
C    -0.605844  -0.014916  0.240546
C    -0.316121  -0.015998  1.698716
O    0.875411  0.228501  2.101346
H    0.153433  0.590607  -0.268596
H    -1.605288  0.362480  0.006867
H    -0.517214  -1.038701  -0.162622
N    -1.261755  -0.264340  2.636754
C    -2.197205  -1.409229  2.611553
C    -1.314941  -2.697433  2.537830
O    -0.056626  -2.633553  2.785217
H    -0.929513  -0.046168  3.576684
H    -2.636984  -1.420594  3.622048
C    -3.353476  -1.335661  1.590295
C    -4.286664  -0.105878  1.678244
C    -5.224288  -0.077932  2.907491
C    -6.609996  0.535708  2.690450
N    -6.619062  2.052234  2.516217
H    -3.979956  -2.230058  1.733535
H    -2.958056  -1.415096  0.569894
H    -4.894362  -0.139821  0.760980
H    -3.691816  0.818461  1.617319
H    -4.740980  0.390707  3.779239
H    -5.448527  -1.110283  3.220604
H    -7.257013  0.340542  3.554051
H    -7.102226  0.129693  1.797496
H    -7.585595  2.394089  2.394697
H    -6.087681  2.361693  1.690642
H    -6.232823  2.536288  3.339987
N    -1.869910  -3.859177  2.269719
C    -1.159779  -5.148644  2.250435
H    -2.867345  -3.880098  2.071372
H    -0.647519  -5.309093  3.205835
H    -0.430125  -5.167611  1.431909
H    -1.896011  -5.941176  2.094417
Pb    1.929540  -1.533371  3.071799
