35
Energy: -608357.200916 eV PBE+vdW (tier 2 basis)
C    1.130549  -0.964003  0.931924
C    0.588284  -0.581130  2.258041
O    1.387954  -0.557789  3.263224
H    1.979060  -0.283773  0.742714
H    0.415885  -0.852344  0.116191
H    1.562599  -1.973550  0.957510
N    -0.680053  -0.158070  2.457233
C    -1.954193  -0.827975  2.128618
C    -2.111989  -1.965635  3.173598
O    -1.103498  -2.358373  3.868553
H    -0.759176  0.368495  3.329858
H    -2.713896  -0.071784  2.379103
C    -2.228525  -1.198597  0.640192
C    -1.878169  -2.600644  0.106347
C    -2.229024  -2.699929  -1.396885
C    -1.977660  -4.095414  -1.970729
N    -2.344839  -4.173595  -3.447181
H    -1.744090  -0.415378  0.039186
H    -3.303619  -1.036174  0.483399
H    -2.442668  -3.366081  0.661766
H    -0.814648  -2.838111  0.251867
H    -1.638737  -1.957669  -1.958311
H    -3.288319  -2.430124  -1.537779
H    -2.579345  -4.865102  -1.471291
H    -0.922373  -4.389145  -1.908276
H    -2.172260  -5.118671  -3.824226
H    -1.794799  -3.515134  -4.019373
H    -3.340759  -3.960997  -3.610300
N    -3.290175  -2.520426  3.386285
C    -4.590805  -2.189001  2.791480
H    -3.290249  -3.261222  4.091104
H    -4.760226  -2.764832  1.872863
H    -4.666442  -1.116719  2.582181
H    -5.369605  -2.451790  3.514375
Pb    0.817906  -1.842380  5.033463
