35
Energy: -608356.230184 eV PBE+vdW (tier 2 basis)
C    1.157454  -0.333437  0.206431
C    0.648910  0.554781  1.303328
O    1.297263  1.506313  1.757434
H    1.980143  -0.946175  0.604252
H    1.581569  0.288233  -0.591734
H    0.402292  -1.005212  -0.216318
N    -0.611867  0.259694  1.780087
C    -1.271665  0.747876  2.989324
C    -2.503319  1.622503  2.700037
O    -3.542079  1.460391  3.497053
H    -1.041094  -0.564059  1.366512
H    -1.716867  -0.148239  3.448005
C    -0.360418  1.358273  4.105292
C    0.004581  2.851471  4.053242
C    1.241015  3.199266  4.929639
C    2.449989  3.769565  4.189750
N    3.209991  2.735928  3.373696
H    0.540569  0.730680  4.101266
H    -0.855533  1.144903  5.064007
H    -0.849410  3.450853  4.399761
H    0.201645  3.158860  3.020837
H    1.551038  2.333204  5.536244
H    0.967147  3.967470  5.664901
H    2.162867  4.562694  3.488135
H    3.172519  4.192619  4.897804
H    3.978327  3.179479  2.851451
H    2.590994  2.243683  2.685729
H    3.637973  2.026751  3.983643
N    -2.615036  2.497798  1.733990
C    -1.643579  2.929042  0.716913
H    -3.528115  2.953801  1.666984
H    -1.828633  3.990418  0.518601
H    -1.808707  2.362528  -0.209280
H    -0.619203  2.794303  1.067205
Pb    -5.285235  1.010655  4.651944
