35
Energy: -608355.811226 eV PBE+vdW (tier 2 basis)
C    0.077190  -0.214027  0.533404
C    0.051872  0.578791  1.802279
O    1.001526  0.614350  2.586780
H    -0.705795  0.064109  -0.179449
H    0.012662  -1.288683  0.759598
H    1.057975  -0.061903  0.063248
N    -1.076977  1.350013  2.112466
C    -2.435281  0.831164  2.044864
C    -3.426990  1.754695  1.316362
O    -4.349714  1.174607  0.581043
H    -0.889789  1.883530  2.962150
H    -2.425092  -0.082181  1.434045
C    -2.922738  0.465630  3.478609
C    -2.105379  -0.719572  4.064260
C    -1.642723  -0.572921  5.527326
C    -0.506190  0.397530  5.854123
N    0.848043  -0.017232  5.301686
H    -3.993180  0.217702  3.468731
H    -2.832488  1.366518  4.106390
H    -1.238199  -0.936328  3.423130
H    -2.725390  -1.623572  4.008974
H    -1.370122  -1.571773  5.903261
H    -2.492084  -0.266129  6.156545
H    -0.390065  0.463821  6.942379
H    -0.679711  1.417568  5.485878
H    1.603135  0.502062  5.771819
H    0.938616  0.187553  4.270576
H    1.034424  -1.016603  5.463325
N    -3.428252  3.063054  1.382531
C    -2.556061  3.976378  2.143401
H    -4.141040  3.527081  0.816035
H    -2.465236  3.648670  3.183414
H    -3.029550  4.962600  2.134641
H    -1.571119  4.046045  1.666501
Pb    -5.894490  0.387623  -0.688520
