35
Energy: -608356.753758 eV PBE+vdW (tier 2 basis)
C    1.032664  0.973424  1.021211
C    0.254866  -0.163318  1.580960
O    0.909658  -1.191125  2.094428
H    1.784671  0.592892  0.315639
H    1.569639  1.485873  1.835005
H    0.413919  1.708291  0.500275
N    -1.053913  -0.211823  1.604302
C    -2.015442  0.838959  1.207692
C    -3.269543  0.533559  2.060367
O    -3.533717  -0.670302  2.285085
H    -1.536024  -1.027354  2.018105
H    -1.578325  1.806340  1.478640
C    -2.368311  0.849540  -0.320278
C    -3.599162  0.050350  -0.775874
C    -3.450580  -1.483472  -0.779155
C    -4.764383  -2.255350  -0.718358
N    -5.492358  -2.032015  0.613662
H    -1.475700  0.536018  -0.882136
H    -2.530177  1.903518  -0.584192
H    -3.841217  0.383613  -1.795193
H    -4.462241  0.370174  -0.169811
H    -2.814679  -1.830007  0.048549
H    -2.943532  -1.803297  -1.700945
H    -4.588005  -3.333258  -0.798522
H    -5.461685  -1.967372  -1.513923
H    -5.922958  -2.901829  0.953218
H    -6.253913  -1.349417  0.517596
H    -4.839385  -1.669926  1.348189
N    -4.025322  1.550638  2.469027
C    -3.796756  2.991872  2.290557
H    -4.826418  1.277817  3.038191
H    -4.692593  3.519281  2.630416
H    -3.643558  3.246516  1.235663
H    -2.949986  3.341235  2.895308
Pb    2.582779  -2.276061  2.855018
