35
Energy: -608356.323252 eV PBE+vdW (tier 2 basis)
C    0.823601  -0.409203  0.525480
C    0.103726  0.157367  1.692257
O    0.760505  0.998054  2.472045
H    0.250813  -1.157250  -0.021479
H    1.762643  -0.863149  0.874481
H    1.089941  0.402264  -0.168895
N    -1.138262  -0.103266  2.050592
C    -2.294523  -0.857713  1.472741
C    -2.783705  -2.039399  2.372064
O    -4.010523  -2.144436  2.501249
H    -1.412732  0.390712  2.904397
H    -3.111624  -0.131930  1.589310
C    -2.253690  -1.241493  -0.019410
C    -3.667267  -1.581860  -0.558029
C    -4.042362  -3.080891  -0.574708
C    -5.550074  -3.327790  -0.541317
N    -6.099349  -3.249579  0.883148
H    -1.574481  -2.084633  -0.208304
H    -1.872084  -0.376309  -0.579139
H    -3.732239  -1.203580  -1.586471
H    -4.409747  -0.998526  0.008280
H    -3.564402  -3.639693  0.244596
H    -3.660797  -3.539879  -1.496913
H    -5.813787  -4.320211  -0.922065
H    -6.096671  -2.584968  -1.134564
H    -7.071998  -2.916181  0.902366
H    -5.511759  -2.635309  1.487932
H    -6.094000  -4.177098  1.326716
N    -1.925420  -2.909846  2.929360
C    -0.480897  -3.053796  2.767709
H    -2.390225  -3.609425  3.507820
H    -0.208831  -4.074965  3.052701
H    0.078546  -2.368051  3.418888
H    -0.178835  -2.921729  1.722755
Pb    2.223870  2.403890  3.162288
