35
Energy: -608357.571287 eV PBE+vdW (tier 2 basis)
C    -0.685331  0.201538  -1.409149
C    0.038715  -0.083601  -0.141812
O    1.317530  -0.179148  -0.149159
H    0.020696  0.614613  -2.138035
H    -1.083440  -0.735176  -1.836277
H    -1.521515  0.892797  -1.264706
N    -0.601985  -0.267907  1.033673
C    -1.794442  -1.118786  1.208782
C    -1.401881  -2.526284  0.670479
O    -0.168436  -2.842583  0.519535
H    0.025824  -0.259430  1.837876
H    -1.870489  -1.246749  2.300990
C    -3.134501  -0.491807  0.726967
C    -4.328197  -0.741120  1.675382
C    -5.578804  0.069138  1.270300
C    -6.720954  -0.122382  2.271272
N    -7.943984  0.708830  1.908222
H    -3.372181  -0.811991  -0.298149
H    -2.961107  0.591854  0.678836
H    -4.032108  -0.460374  2.698406
H    -4.590374  -1.811526  1.720728
H    -5.909840  -0.230184  0.263102
H    -5.311637  1.136840  1.216668
H    -6.437415  0.188899  3.284543
H    -7.067030  -1.162647  2.315386
H    -8.703467  0.568137  2.592641
H    -8.322093  0.459914  0.981925
H    -7.734709  1.718377  1.893386
N    -2.341049  -3.413467  0.417105
C    -2.093632  -4.799859  -0.011372
H    -3.308868  -3.131260  0.546941
H    -3.052899  -5.321451  -0.056248
H    -1.438247  -5.303492  0.708214
H    -1.628745  -4.813533  -1.004384
Pb    2.056207  -2.269031  0.315659
