35
Energy: -608357.237539 eV PBE+vdW (tier 2 basis)
C    0.553621  0.184948  1.024157
C    0.057736  -0.507927  2.242314
O    0.246457  -1.773898  2.344400
H    -0.183663  0.096285  0.208942
H    1.453434  -0.343395  0.681050
H    0.782492  1.240126  1.183960
N    -0.547129  0.119773  3.280001
C    -1.707493  1.031698  3.196046
C    -2.913827  0.151381  2.745770
O    -2.705264  -1.011065  2.235615
H    -0.605555  -0.495130  4.094418
H    -1.901820  1.338183  4.235332
C    -1.528936  2.301902  2.333342
C    -0.459475  3.316405  2.803089
C    -0.856926  4.159786  4.035469
C    -0.258483  5.566855  4.118134
N    1.230125  5.612559  4.452878
H    -2.500474  2.813420  2.300118
H    -1.330647  2.016240  1.293434
H    -0.298509  3.989174  1.946644
H    0.499198  2.802728  2.976146
H    -0.672529  3.620605  4.978290
H    -1.942531  4.345307  4.010937
H    -0.749217  6.147337  4.908496
H    -0.369651  6.115414  3.174065
H    1.553648  6.590788  4.518629
H    1.813178  5.153715  3.739442
H    1.434319  5.169178  5.360571
N    -4.156871  0.567934  2.884959
C    -4.682770  1.797275  3.487563
H    -4.859805  -0.080639  2.521402
H    -4.947516  2.523180  2.707464
H    -3.961102  2.234576  4.183217
H    -5.590242  1.540914  4.045741
Pb    -1.618976  -3.031278  2.141615
