35
Energy: -608356.735272 eV PBE+vdW (tier 2 basis)
C    0.515750  2.897487  0.370665
C    0.035238  3.667856  1.548943
O    0.788638  4.574137  2.115747
H    -0.234802  2.885904  -0.432134
H    0.704325  1.848501  0.651514
H    1.444458  3.320833  -0.020963
N    -1.167517  3.464190  2.066624
C    -2.157870  2.472942  1.606726
C    -2.951380  2.906768  0.323295
O    -3.370307  1.998977  -0.386303
H    -1.411638  4.035363  2.879474
H    -1.606951  1.577286  1.293279
C    -3.122191  2.103539  2.759547
C    -3.967616  0.846195  2.470351
C    -4.922194  0.517186  3.632199
C    -5.608917  -0.844981  3.561796
N    -6.679687  -0.938685  2.476911
H    -3.779312  2.961594  2.976380
H    -2.518770  1.920702  3.662770
H    -3.288914  -0.004922  2.301362
H    -4.519766  0.990981  1.530125
H    -5.676227  1.311219  3.759475
H    -4.361313  0.496933  4.579566
H    -6.126864  -1.069783  4.501588
H    -4.902217  -1.658931  3.356204
H    -6.295618  -0.797063  1.532447
H    -7.424894  -0.241570  2.619929
H    -7.128187  -1.867322  2.485899
N    -3.135550  4.219723  0.091527
C    -3.936723  4.710067  -1.036995
H    -2.865245  4.891067  0.802480
H    -3.581201  5.705659  -1.319538
H    -5.000252  4.768171  -0.771700
H    -3.819033  4.023650  -1.880897
Pb    2.574991  5.719673  2.514800
