35
Energy: -608357.089421 eV PBE+vdW (tier 2 basis)
C    -0.374178  -1.674417  1.505450
C    0.278560  -0.378334  1.826965
O    1.557418  -0.397119  2.183065
H    0.131373  -2.138029  0.645156
H    -1.436754  -1.569009  1.271592
H    -0.266105  -2.362394  2.356026
N    -0.309989  0.781871  1.785284
C    -1.622065  1.166157  1.237840
C    -1.324852  2.637280  0.792256
O    -0.326113  3.184428  1.287345
H    0.212862  1.695870  1.926845
H    -1.844630  0.536386  0.365784
C    -2.805245  1.075851  2.236873
C    -2.834252  2.115555  3.370029
C    -4.155841  2.047462  4.164091
C    -4.227301  3.130662  5.239121
N    -5.556322  3.099526  5.984118
H    -2.835034  0.055617  2.649439
H    -3.717491  1.173371  1.628516
H    -2.719893  3.126235  2.949494
H    -1.982209  1.966603  4.050799
H    -4.263978  1.053784  4.627936
H    -5.001019  2.167583  3.466642
H    -4.144573  4.139705  4.816176
H    -3.449936  3.013007  6.004225
H    -5.597668  3.834324  6.706583
H    -5.710734  2.197229  6.457668
H    -6.354210  3.251975  5.349514
N    -2.178452  3.202788  -0.062409
C    -2.025920  4.565230  -0.582723
H    -2.927941  2.636259  -0.450580
H    -2.978040  5.100542  -0.495329
H    -1.728945  4.535590  -1.638539
H    -1.255499  5.079677  -0.003140
Pb    3.625477  -0.786268  2.353767
