35
Energy: -608355.860167 eV PBE+vdW (tier 2 basis)
C    -0.254771  2.318477  0.391583
C    -0.629057  1.536158  1.631649
O    -0.648536  2.363451  2.784279
H    -1.054452  3.034225  0.162003
H    -0.148949  1.643145  -0.463827
H    0.688723  2.858037  0.536596
N    -1.792691  0.709162  1.497065
C    -1.611001  -0.612247  2.101402
C    -0.107502  -0.627018  2.232118
O    0.437313  0.517446  1.886704
H    -2.670252  1.177578  1.708620
H    -2.024148  -0.687562  3.127513
C    -2.258565  -1.742800  1.254522
C    -1.706489  -1.896515  -0.170192
C    -2.277795  -3.087803  -0.973500
C    -3.726020  -2.909326  -1.430018
N    -4.159363  -4.056076  -2.335673
H    -3.333714  -1.508725  1.241043
H    -2.171793  -2.688326  1.808725
H    -0.616886  -2.051063  -0.128896
H    -1.856692  -0.962766  -0.731656
H    -2.185930  -4.013968  -0.383119
H    -1.640106  -3.218417  -1.861722
H    -3.862357  -1.994032  -2.019834
H    -4.443502  -2.899050  -0.600643
H    -5.135633  -3.942567  -2.648195
H    -4.096635  -4.967815  -1.858572
H    -3.573428  -4.114925  -3.182288
N    0.676222  -1.583110  2.645607
C    0.294263  -2.915576  3.135265
H    1.676033  -1.365966  2.645626
H    0.295186  -3.641019  2.312523
H    -0.688127  -2.880790  3.614935
H    1.035770  -3.225247  3.878444
Pb    -0.257891  4.121623  3.815903
