35
Energy: -608356.002632 eV PBE+vdW (tier 2 basis)
C    -0.170208  1.226961  1.616608
C    -0.861109  1.208442  2.947512
O    -1.197539  2.224342  3.539198
H    -0.569291  2.028036  0.985191
H    -0.194622  0.275480  1.074625
H    0.886182  1.480624  1.805923
N    -1.039858  -0.042073  3.605122
C    -1.814623  -1.148585  3.023526
C    -0.875922  -2.244040  2.489096
O    -1.365584  -3.302266  1.904411
H    -1.291129  0.133807  4.579089
H    -2.312386  -1.643856  3.876838
C    -2.933883  -0.709035  2.040551
C    -3.900496  0.330808  2.682127
C    -4.075254  1.600723  1.826016
C    -4.740046  2.797524  2.502400
N    -3.885724  3.413758  3.614007
H    -3.494329  -1.598797  1.727997
H    -2.481477  -0.298123  1.127411
H    -3.531069  0.598827  3.682706
H    -4.880594  -0.135409  2.847536
H    -4.698341  1.370397  0.949127
H    -3.109345  1.928386  1.412608
H    -5.709564  2.552907  2.952766
H    -4.901421  3.595055  1.768600
H    -4.071895  4.422672  3.700675
H    -2.867455  3.282498  3.450016
H    -4.088784  2.999051  4.531915
N    0.407573  -2.110937  2.691175
C    1.466063  -3.052686  2.336060
H    0.638653  -1.247133  3.203229
H    2.433964  -2.571589  2.505776
H    1.398284  -3.324764  1.274140
H    1.414070  -3.948809  2.971830
Pb    -1.630133  -5.299288  1.154732
