35
Energy: -608356.373439 eV PBE+vdW (tier 2 basis)
C    1.051520  -0.684526  1.935275
C    -0.187693  -1.360186  2.389848
O    -0.114036  -2.648367  2.678366
H    0.918977  0.382634  1.764819
H    1.386162  -1.135791  0.991750
H    1.833626  -0.841892  2.694004
N    -1.352908  -0.790648  2.639806
C    -1.914492  0.488417  2.164879
C    -2.013780  0.365141  0.604200
O    -1.103594  -0.206568  0.006178
H    -2.050989  -1.431998  3.019196
H    -2.920256  0.490532  2.598315
C    -1.182113  1.785267  2.659998
C    -0.424817  2.663057  1.630492
C    -1.225854  3.843730  1.037659
C    -1.370088  5.092998  1.910604
N    -0.145346  6.002854  1.846377
H    -0.498268  1.479926  3.462427
H    -1.947231  2.389206  3.167271
H    -0.069419  2.050548  0.790411
H    0.491221  3.036771  2.115427
H    -2.246947  3.520344  0.794383
H    -0.794048  4.131419  0.065973
H    -1.521191  4.866269  2.973792
H    -2.206415  5.717223  1.574982
H    -0.269301  6.835149  2.442987
H    0.018865  6.341097  0.886282
H    0.715337  5.531549  2.157433
N    -3.078855  0.930652  0.009206
C    -4.301954  1.452830  0.623767
H    -3.088401  0.807558  -1.003067
H    -4.838786  2.039669  -0.128048
H    -4.081570  2.119929  1.466247
H    -4.967874  0.646952  0.961615
Pb    0.597210  -4.650622  2.733591
