35
Energy: -608356.597000 eV PBE+vdW (tier 2 basis)
C    -0.969898  1.227419  -0.070193
C    -0.686261  0.847211  1.348074
O    0.483075  0.761450  1.804043
H    -0.462498  2.175347  -0.294756
H    -2.036015  1.320562  -0.301880
H    -0.534927  0.472550  -0.741171
N    -1.748962  0.612499  2.160869
C    -1.715053  0.042675  3.518921
C    -1.199560  1.047031  4.555879
O    -1.841273  1.167911  5.695189
H    -2.674152  0.731346  1.756425
H    -2.771018  -0.111610  3.771810
C    -1.034274  -1.370074  3.620585
C    0.473921  -1.480901  3.934902
C    1.168408  -2.684393  3.266707
C    1.348270  -2.634424  1.751181
N    2.239572  -1.487372  1.294327
H    -1.280787  -1.850057  2.662698
H    -1.593726  -1.940144  4.374359
H    0.610947  -1.589627  5.019545
H    1.006469  -0.563605  3.659763
H    0.611575  -3.610200  3.476671
H    2.151680  -2.833440  3.739346
H    0.404517  -2.512991  1.204289
H    1.820690  -3.557733  1.395830
H    2.481836  -1.587830  0.298693
H    3.127553  -1.471115  1.815066
H    1.758964  -0.566718  1.414516
N    -0.130603  1.748952  4.304870
C    0.483814  2.755672  5.170847
H    0.309163  1.520857  3.378452
H    -0.219767  3.576633  5.364292
H    1.357468  3.164856  4.656535
H    0.809063  2.305503  6.118089
Pb    -2.897528  1.630514  7.491565
