35
Energy: -608356.789306 eV PBE+vdW (tier 2 basis)
C    0.083200  1.004090  -0.335538
C    -0.011453  0.522732  1.066597
O    1.101584  0.273104  1.731858
H    0.735168  0.330991  -0.910038
H    0.544488  2.003775  -0.350397
H    -0.884068  1.059872  -0.841009
N    -1.143076  0.329310  1.703361
C    -2.534221  0.525376  1.223831
C    -3.317285  0.953219  2.488134
O    -3.322258  0.150990  3.445171
H    -1.096255  -0.038651  2.662090
H    -2.531225  1.306706  0.457283
C    -3.085600  -0.807797  0.663412
C    -4.548126  -0.792965  0.177264
C    -5.689183  -0.820971  1.216294
C    -5.696091  -2.032267  2.169212
N    -5.511269  -1.617147  3.618533
H    -2.930358  -1.583794  1.428353
H    -2.446966  -1.086282  -0.187655
H    -4.661875  -1.673071  -0.472693
H    -4.713498  0.068131  -0.487710
H    -6.630470  -0.824329  0.651826
H    -5.722700  0.112703  1.797553
H    -4.890324  -2.743892  1.952740
H    -6.640821  -2.584480  2.123582
H    -6.332109  -1.100009  3.961148
H    -4.671270  -0.994363  3.719891
H    -5.399140  -2.434781  4.233326
N    -3.947912  2.129239  2.498575
C    -4.018022  3.151587  1.444701
H    -4.419267  2.342036  3.377857
H    -4.670611  3.954432  1.799233
H    -4.454345  2.749643  0.522540
H    -3.032440  3.588667  1.240942
Pb    3.182639  0.120581  2.185745
