35
Energy: -608358.269971 eV PBE+vdW (tier 2 basis)
C    0.396146  2.798609  2.026414
C    0.268097  1.636581  2.946314
O    0.669431  1.743387  4.156171
H    -0.168375  3.642905  2.451351
H    0.032419  2.597181  1.013404
H    1.446625  3.119016  1.982255
N    -0.291724  0.503817  2.497339
C    -0.638453  -0.682850  3.302481
C    0.646875  -1.501524  3.570536
O    1.390728  -1.186039  4.563813
H    -0.575633  0.500086  1.518959
H    -0.954580  -0.318322  4.292063
C    -1.840075  -1.416604  2.665151
C    -2.421908  -2.539513  3.550115
C    -3.888267  -2.938005  3.261322
C    -4.108201  -3.737487  1.976109
N    -5.549694  -4.221514  1.876003
H    -1.579412  -1.786052  1.658262
H    -2.608796  -0.643826  2.508099
H    -2.406054  -2.202837  4.597338
H    -1.783275  -3.435379  3.518172
H    -4.519231  -2.034866  3.253856
H    -4.224759  -3.545182  4.116104
H    -3.487367  -4.641893  1.941467
H    -3.926121  -3.153710  1.065329
H    -5.707600  -4.763538  1.012463
H    -6.221251  -3.438867  1.870634
H    -5.802529  -4.832720  2.667758
N    0.979803  -2.496606  2.775330
C    2.199973  -3.309182  2.885639
H    0.358534  -2.703649  1.996393
H    1.963433  -4.338013  2.596522
H    2.561554  -3.287449  3.916408
H    2.972943  -2.916367  2.211895
Pb    1.790745  0.687410  5.771533
