35
Energy: -608355.818284 eV PBE+vdW (tier 2 basis)
C    0.191898  -0.598414  -0.035322
C    0.029219  -0.418210  1.446969
O    0.972029  -0.534354  2.229775
H    0.588893  0.347064  -0.438337
H    -0.719566  -0.845200  -0.589899
H    0.951564  -1.360786  -0.236390
N    -1.206292  -0.018910  1.973568
C    -2.481857  -0.603412  1.575135
C    -3.581945  0.481655  1.581159
O    -4.702658  0.279087  2.234041
H    -1.117809  0.161976  2.975268
H    -2.392011  -0.895040  0.515234
C    -2.839498  -1.871697  2.390007
C    -1.676870  -2.897969  2.484481
C    -0.872368  -2.794709  3.796443
C    0.375173  -3.667961  3.927226
N    1.538567  -3.200079  3.054497
H    -3.707048  -2.350446  1.914478
H    -3.147383  -1.582936  3.407209
H    -1.027221  -2.801129  1.599546
H    -2.103358  -3.907501  2.412376
H    -1.524744  -3.097316  4.629636
H    -0.583729  -1.755722  4.014655
H    0.190929  -4.719278  3.674788
H    0.740266  -3.629745  4.959557
H    2.440816  -3.435347  3.490779
H    1.512018  -2.167104  2.887775
H    1.534054  -3.654262  2.133169
N    -3.435322  1.620304  0.945879
C    -2.324956  2.075723  0.094079
H    -4.201199  2.287936  1.051019
H    -2.683926  2.933269  -0.482612
H    -2.021169  1.284245  -0.597668
H    -1.473799  2.381681  0.714187
Pb    -6.691680  0.091932  3.018087
