35
Energy: -608356.397849 eV PBE+vdW (tier 2 basis)
C    0.936210  -0.466658  0.265331
C    0.617267  -0.334777  1.722498
O    1.481209  -0.227678  2.603460
H    1.530868  -1.379733  0.120413
H    1.569818  0.372597  -0.049979
H    0.054277  -0.510827  -0.383020
N    -0.721126  -0.355876  2.073460
C    -1.100403  -0.133790  3.454131
C    -2.223383  -1.044239  3.911938
O    -3.216817  -1.344467  3.101929
H    -1.393152  -0.187930  1.331831
H    -0.203189  -0.413661  4.028727
C    -1.451116  1.352926  3.792009
C    -0.248519  2.298096  3.621885
C    0.814352  2.217958  4.736220
C    2.174986  2.804384  4.342180
N    3.091701  1.760453  3.716690
H    -1.840078  1.417449  4.820264
H    -2.268841  1.676287  3.130623
H    -0.645258  3.323006  3.589756
H    0.201571  2.133763  2.632197
H    0.962220  1.183483  5.087349
H    0.459586  2.777288  5.612714
H    2.712691  3.205678  5.207982
H    2.071018  3.614944  3.610745
H    2.569471  1.073937  3.117500
H    3.834519  2.200794  3.157609
H    3.561633  1.206332  4.444718
N    -2.255579  -1.499257  5.142084
C    -1.242628  -1.320557  6.197424
H    -3.083153  -2.032114  5.413814
H    -1.214836  -0.276450  6.532899
H    -0.256349  -1.633070  5.834987
H    -1.525576  -1.955251  7.041835
Pb    -4.911348  -2.148627  2.064387
