35
Energy: -608356.694903 eV PBE+vdW (tier 2 basis)
C    -0.787151  1.731426  -0.112813
C    -0.578173  0.737236  0.977798
O    0.611927  0.198031  1.155235
H    -0.111144  2.588262  0.027764
H    -1.814522  2.108783  -0.149573
H    -0.561773  1.268285  -1.085747
N    -1.573063  0.394434  1.757231
C    -1.644848  -0.581463  2.857475
C    -3.109777  -1.069518  2.821824
O    -3.985035  -0.212501  2.564349
H    -2.498966  0.811051  1.573871
H    -0.928065  -1.385868  2.657749
C    -1.340453  0.056749  4.245904
C    -2.153593  1.319639  4.639081
C    -3.042388  1.210377  5.893813
C    -4.287283  0.328112  5.851931
N    -5.318741  0.797214  4.836951
H    -0.267298  0.288878  4.263430
H    -1.472944  -0.745531  4.987390
H    -2.749486  1.684551  3.790176
H    -1.440302  2.127630  4.845237
H    -3.343704  2.227697  6.190015
H    -2.441769  0.842442  6.739710
H    -4.781669  0.337536  6.830465
H    -4.072534  -0.717710  5.597653
H    -4.998977  0.561426  3.868407
H    -5.484075  1.810788  4.906266
H    -6.225610  0.335548  4.990888
N    -3.382352  -2.341483  3.115786
C    -2.449078  -3.441798  3.386666
H    -4.369536  -2.586625  3.037036
H    -3.015286  -4.265286  3.831948
H    -1.677749  -3.144977  4.106168
H    -1.985323  -3.809978  2.462002
Pb    2.636015  0.043403  0.435816
