35
Energy: -608356.275575 eV PBE+vdW (tier 2 basis)
C    0.261059  0.470209  0.382584
C    -0.391311  0.694012  1.696612
O    0.135819  1.600426  2.497333
H    1.251865  0.019110  0.548169
H    0.420363  1.438168  -0.111885
H    -0.309364  -0.173103  -0.285961
N    -1.455280  0.069376  2.166864
C    -2.375618  -1.018451  1.725664
C    -2.299668  -2.254594  2.701636
O    -3.374886  -2.636158  3.153078
H    -1.719011  0.403432  3.098235
H    -3.360826  -0.604774  1.974593
C    -2.389053  -1.439919  0.247414
C    -3.383117  -2.580930  -0.075750
C    -4.881337  -2.301925  0.157182
C    -5.701111  -3.501349  -0.320300
N    -7.193271  -3.313019  -0.083535
H    -1.404183  -1.809615  -0.064930
H    -2.622418  -0.557715  -0.368452
H    -3.092869  -3.482952  0.483077
H    -3.222856  -2.821653  -1.136880
H    -5.187286  -1.396507  -0.391649
H    -5.074200  -2.133985  1.228195
H    -5.427509  -4.420401  0.213071
H    -5.587189  -3.679822  -1.396937
H    -7.727022  -4.132213  -0.411918
H    -7.561120  -2.490593  -0.583620
H    -7.409252  -3.189819  0.916541
N    -1.123618  -2.859418  2.967347
C    0.206472  -2.620455  2.419037
H    -1.222867  -3.648371  3.605726
H    0.801487  -3.528579  2.558383
H    0.726756  -1.801234  2.936932
H    0.174626  -2.422902  1.341360
Pb    1.305010  3.250002  3.211888
