35
Energy: -608355.965952 eV PBE+vdW (tier 2 basis)
C    0.109477  1.946061  2.489403
C    -0.886313  1.557068  3.517600
O    -1.081782  2.310895  4.533902
H    -0.169741  2.898382  2.014833
H    0.282068  1.179009  1.729640
H    1.058071  2.147816  3.014123
N    -1.591796  0.403836  3.431136
C    -2.323858  -0.002732  2.225200
C    -3.444816  1.056633  2.018918
O    -3.761246  1.847624  2.984550
H    -2.089368  0.175826  4.294492
H    -1.641582  0.037482  1.364059
C    -2.908916  -1.425130  2.404042
C    -1.884552  -2.573884  2.546211
C    -1.278709  -3.072794  1.221603
C    -0.259497  -4.210335  1.339774
N    -0.881720  -5.574241  1.627678
H    -3.587736  -1.631480  1.564865
H    -3.553053  -1.410095  3.297354
H    -2.421815  -3.392140  3.050159
H    -1.078912  -2.277603  3.236300
H    -0.728377  -2.260484  0.721632
H    -2.074987  -3.361730  0.515643
H    0.290066  -4.338002  0.399784
H    0.470504  -4.037563  2.140708
H    -0.152233  -6.303383  1.667039
H    -1.545488  -5.855095  0.890468
H    -1.382686  -5.604581  2.526532
N    -4.087773  1.161287  0.874180
C    -3.917226  0.405353  -0.370371
H    -4.823569  1.872513  0.863269
H    -3.965905  1.106944  -1.210797
H    -4.726989  -0.328091  -0.478983
H    -2.949248  -0.102263  -0.394471
Pb    -3.190313  3.121889  4.800802
