35
Energy: -608356.571197 eV PBE+vdW (tier 2 basis)
C    -0.058699  -1.536048  -0.249243
C    0.328616  -0.673392  0.891549
O    1.579662  -0.263176  0.977977
H    0.572682  -2.437972  -0.235050
H    -1.096168  -1.875916  -0.196344
H    0.138299  -1.003826  -1.192064
N    -0.468762  -0.264023  1.864567
C    -1.917389  -0.487526  2.136879
C    -2.180027  -2.014257  2.375583
O    -2.283507  -2.748922  1.394892
H    0.007085  0.301945  2.569357
H    -2.078428  0.066079  3.069099
C    -2.834670  0.076630  1.031266
C    -4.349983  -0.097542  1.275969
C    -4.961369  0.790839  2.372834
C    -6.455133  0.581412  2.627480
N    -7.347050  1.102187  1.503472
H    -2.603341  -0.429256  0.086709
H    -2.592205  1.141673  0.897426
H    -4.570908  -1.156688  1.479322
H    -4.824781  0.120768  0.306050
H    -4.763741  1.856656  2.170929
H    -4.487640  0.588022  3.345893
H    -6.779957  1.117114  3.527133
H    -6.712925  -0.478722  2.746184
H    -8.342773  0.967153  1.736318
H    -7.178698  0.617957  0.610828
H    -7.208156  2.110733  1.343696
N    -2.296973  -2.437180  3.648176
C    -2.163177  -1.682028  4.894466
H    -2.487005  -3.435732  3.726913
H    -2.247473  -2.387874  5.726162
H    -2.960111  -0.935743  5.016384
H    -1.182475  -1.195830  4.980261
Pb    3.636127  -0.141325  0.392850
