35
Energy: -608357.880419 eV PBE+vdW (tier 2 basis)
C    -0.940844  2.087587  1.964525
C    -1.220623  0.651648  1.679834
O    -0.499498  0.034244  0.825082
H    -0.961547  2.648375  1.018804
H    0.081912  2.184088  2.357966
H    -1.640249  2.542657  2.673699
N    -2.237781  0.057109  2.321982
C    -2.763841  -1.323367  2.197584
C    -1.721542  -2.353000  2.677576
O    -0.743603  -2.715468  1.926196
H    -2.711599  0.646634  3.002586
H    -3.589790  -1.357171  2.917895
C    -3.339484  -1.690333  0.798516
C    -4.868337  -1.519732  0.637241
C    -5.383937  -0.078363  0.481561
C    -6.907371  0.079049  0.428530
N    -7.544373  -0.412588  -0.868379
H    -3.114335  -2.750106  0.615248
H    -2.808801  -1.125289  0.019164
H    -5.375235  -2.007656  1.485644
H    -5.141907  -2.113255  -0.249414
H    -4.927364  0.405677  -0.397500
H    -5.077334  0.535885  1.342664
H    -7.191237  1.135061  0.507100
H    -7.410309  -0.469660  1.234976
H    -7.170747  0.081774  -1.692239
H    -8.562944  -0.245118  -0.855843
H    -7.411284  -1.421933  -1.022032
N    -1.840453  -2.921110  3.861132
C    -2.851805  -2.727501  4.911120
H    -1.122485  -3.623446  4.059224
H    -3.748017  -3.325271  4.700840
H    -3.110540  -1.670119  5.025511
H    -2.420711  -3.072006  5.856335
Pb    0.639968  -1.842219  0.403238
