35
Energy: -608355.801553 eV PBE+vdW (tier 2 basis)
C    -0.206323  -0.402488  -0.245077
C    -0.184717  -0.057343  1.207127
O    0.763743  -0.047316  1.939957
H    -1.062191  0.004925  -0.798124
H    -0.240352  -1.501570  -0.340460
H    0.732552  -0.077096  -0.709447
N    -1.551839  0.278155  1.779996
C    -1.660780  0.269326  3.282946
C    -3.138239  0.509355  3.591791
O    -3.757901  1.439143  2.937306
H    -2.184445  -0.440489  1.395907
H    -1.342908  -0.718838  3.647892
C    -0.811962  1.395613  3.955330
C    -0.321920  1.051981  5.380312
C    0.877113  0.078096  5.460605
C    2.275675  0.687950  5.319989
N    2.821191  1.236151  6.636766
H    -1.420993  2.312961  4.011929
H    0.045108  1.615614  3.309884
H    -1.155962  0.639100  5.967645
H    -0.086741  2.002481  5.883388
H    0.805455  -0.685148  4.672891
H    0.824800  -0.490075  6.402219
H    2.316912  1.518265  4.604141
H    3.003199  -0.067289  5.001122
H    3.762785  1.638562  6.508039
H    2.908798  0.492055  7.345726
H    2.229450  1.975920  7.040681
N    -3.750827  -0.171667  4.530669
C    -5.141268  0.011391  4.974019
H    -3.224841  -0.916694  4.987732
H    -5.148041  0.165325  6.059842
H    -5.712225  -0.896448  4.739994
H    -5.580607  0.873495  4.468715
Pb    -2.903399  2.336753  1.095207
