35
Energy: -608356.571894 eV PBE+vdW (tier 2 basis)
C    0.086733  -0.518858  0.457533
C    -0.382982  -0.567336  1.862206
O    0.509718  -0.595975  2.833021
H    0.781630  -1.354880  0.287911
H    0.644312  0.415775  0.292234
H    -0.727609  -0.614201  -0.266621
N    -1.646995  -0.590594  2.246912
C    -2.921396  -0.526869  1.470837
C    -3.040847  -1.793555  0.556724
O    -2.565820  -1.746376  -0.577639
H    -1.771104  -0.647376  3.259411
H    -3.689622  -0.563314  2.253324
C    -3.070953  0.789121  0.683221
C    -4.497112  1.135342  0.193818
C    -5.012539  0.347051  -1.030050
C    -5.976919  1.101764  -1.941808
N    -7.343431  1.380536  -1.316622
H    -2.392890  0.780040  -0.180149
H    -2.745245  1.601195  1.348775
H    -4.452983  2.204292  -0.068238
H    -5.202288  1.063929  1.038189
H    -5.452958  -0.619632  -0.739090
H    -4.166376  0.085220  -1.682693
H    -6.185621  0.527517  -2.852289
H    -5.581512  2.081939  -2.237706
H    -7.827411  0.509402  -1.056047
H    -7.954268  1.877822  -1.982547
H    -7.276290  1.967067  -0.473529
N    -3.668148  -2.871075  1.064622
C    -4.250738  -3.059540  2.394110
H    -3.707572  -3.660736  0.421355
H    -4.648035  -4.077523  2.446570
H    -5.085125  -2.371149  2.582659
H    -3.501358  -2.962562  3.191370
Pb    2.453623  -0.626249  3.727989
