35
Energy: -608356.728969 eV PBE+vdW (tier 2 basis)
C    1.270661  -0.138759  1.001040
C    0.051856  -0.702776  1.696873
O    0.405214  -1.663245  2.678425
H    0.969163  0.514651  0.175845
H    1.903783  -0.941795  0.605523
H    1.847128  0.463283  1.715401
N    -0.888129  0.277880  2.154793
C    -2.268111  -0.156044  1.942894
C    -2.035229  -1.165308  0.842797
O    -0.767047  -1.451946  0.683750
H    -0.677867  0.673277  3.068238
H    -2.688070  -0.721592  2.799854
C    -3.239674  1.015512  1.645559
C    -2.866149  1.894926  0.441163
C    -3.492209  3.307363  0.430999
C    -4.999807  3.339585  0.181531
N    -5.503320  4.773398  0.062196
H    -3.256314  1.620096  2.565883
H    -4.257539  0.602126  1.559879
H    -3.104520  1.381727  -0.503992
H    -1.776876  2.040383  0.444260
H    -2.988329  3.882968  -0.361223
H    -3.261564  3.814256  1.382015
H    -5.582039  2.886826  0.993533
H    -5.273343  2.847949  -0.760777
H    -5.046070  5.273007  -0.715508
H    -5.322468  5.316169  0.919829
H    -6.519528  4.805324  -0.110616
N    -2.941951  -1.743700  0.108569
C    -2.712839  -2.763121  -0.928482
H    -3.910542  -1.485430  0.293493
H    -3.137245  -3.718187  -0.595388
H    -1.641525  -2.870595  -1.109725
H    -3.214846  -2.448523  -1.850246
Pb    1.755782  -2.887194  3.671488
