35
Energy: -608357.684333 eV PBE+vdW (tier 2 basis)
C    -0.263340  -0.188450  0.243043
C    -0.389681  -0.117439  1.719153
O    0.637710  -0.323346  2.457667
H    0.231307  -1.144260  0.004099
H    0.415373  0.593208  -0.129858
H    -1.220088  -0.142112  -0.284093
N    -1.572863  0.134751  2.326021
C    -2.443967  1.253692  1.953570
C    -1.702145  2.552022  2.411763
O    -0.626922  2.481272  3.108113
H    -1.552242  -0.042073  3.332578
H    -2.519821  1.285430  0.856007
C    -3.851065  1.106772  2.575147
C    -4.680151  -0.075286  2.032017
C    -6.019183  -0.203915  2.787859
C    -6.868944  -1.441963  2.493281
N    -7.702706  -1.342020  1.217936
H    -4.400206  2.045554  2.410628
H    -3.744905  1.019507  3.669459
H    -4.110445  -1.010928  2.142999
H    -4.843461  0.067051  0.950999
H    -6.628681  0.706544  2.664643
H    -5.811442  -0.259469  3.867496
H    -7.597879  -1.603909  3.296102
H    -6.267935  -2.354420  2.392144
H    -8.352705  -0.542592  1.252955
H    -8.277720  -2.189918  1.093228
H    -7.128502  -1.241079  0.370129
N    -2.192786  3.722587  2.065153
C    -1.606577  5.027238  2.412021
H    -3.033547  3.737951  1.490736
H    -2.365430  5.797603  2.250679
H    -0.740727  5.236331  1.770620
H    -1.299196  5.029846  3.462333
Pb    1.260421  1.384435  3.815061
