35
Energy: -608356.158007 eV PBE+vdW (tier 2 basis)
C    1.804196  3.956418  1.253890
C    1.134231  2.789273  1.917328
O    1.713412  1.733400  2.162852
H    2.804029  4.092629  1.682712
H    1.243944  4.895453  1.325309
H    1.948159  3.711507  0.190103
N    -0.211634  2.983631  2.249937
C    -1.185829  1.921838  2.530757
C    -2.410282  2.547340  3.201902
O    -3.579762  1.986656  3.054947
H    -0.605023  3.775940  1.741707
H    -1.557145  1.497195  1.580887
C    -0.701119  0.696889  3.378335
C    -0.284653  0.888662  4.851095
C    1.080340  1.511301  5.221010
C    2.303939  0.597140  5.325363
N    2.818635  0.042711  4.003053
H    0.079633  0.217298  2.779118
H    -1.550414  -0.003566  3.364697
H    -0.351821  -0.105387  5.320717
H    -1.060103  1.473772  5.370670
H    0.981759  1.909819  6.241993
H    1.319950  2.382372  4.597991
H    2.118838  -0.264282  5.978936
H    3.137968  1.164872  5.753894
H    2.341788  -0.827047  3.737322
H    3.821369  -0.179348  4.065071
H    2.664636  0.726924  3.227294
N    -2.274646  3.614200  3.946298
C    -3.321628  4.321410  4.692416
H    -1.316456  3.974778  3.994068
H    -2.845608  5.087837  5.310094
H    -3.863779  3.624829  5.343021
H    -4.016345  4.813499  3.998728
Pb    -5.514097  1.206655  2.550145
