35
Energy: -608355.527058 eV PBE+vdW (tier 2 basis)
C    0.192804  1.771697  -0.735827
C    0.440275  1.037278  0.548572
O    1.535976  1.002652  1.092271
H    -0.857561  2.014300  -0.931119
H    0.546668  1.121146  -1.553365
H    0.801496  2.681112  -0.782164
N    -0.612896  0.259724  1.104088
C    -1.886035  0.866679  1.514138
C    -2.972567  0.594187  0.456436
O    -4.168258  1.094208  0.595247
H    -0.229252  -0.366138  1.813801
H    -2.245053  0.271030  2.373966
C    -1.763668  2.339606  1.999133
C    -1.375267  2.499413  3.488832
C    -0.088351  1.852023  4.068688
C    1.165683  2.701616  4.288877
N    1.981219  3.011927  3.039517
H    -2.733245  2.840381  1.871246
H    -1.072533  2.873511  1.332188
H    -2.217153  2.108037  4.078787
H    -1.369354  3.579029  3.703311
H    0.195008  0.925019  3.551052
H    -0.338925  1.522144  5.087334
H    1.850555  2.158130  4.950445
H    0.938275  3.664791  4.762402
H    1.583170  3.789720  2.499676
H    2.042963  2.188681  2.400304
H    2.938823  3.292516  3.295610
N    -2.683559  -0.211589  -0.530839
C    -3.584536  -0.680682  -1.579176
H    -1.714861  -0.560618  -0.488683
H    -4.375381  -1.316451  -1.152764
H    -3.013488  -1.286518  -2.289355
H    -4.016980  0.169588  -2.125158
Pb    -6.298182  1.335287  0.372861
