35
Energy: -608358.037514 eV PBE+vdW (tier 2 basis)
C    0.144774  -0.271296  0.000778
C    -0.103963  -0.292286  1.470280
O    0.877359  -0.501838  2.261676
H    0.616809  -1.221022  -0.291184
H    0.873025  0.519204  -0.232183
H    -0.758124  -0.114955  -0.598721
N    -1.357490  -0.104089  1.909732
C    -1.913168  -0.149523  3.284727
C    -1.364689  0.996912  4.161372
O    -0.171422  0.984045  4.627007
H    -2.033757  0.091598  1.175351
H    -2.983007  0.055569  3.142742
C    -1.769271  -1.523498  3.983656
C    -2.651645  -2.675295  3.447921
C    -4.152477  -2.569750  3.806574
C    -4.890401  -3.889916  4.044622
N    -5.146297  -4.718014  2.787901
H    -1.989697  -1.373755  5.051940
H    -0.720399  -1.844748  3.931371
H    -2.239904  -3.591769  3.897680
H    -2.508082  -2.784800  2.361487
H    -4.708698  -1.961932  3.075238
H    -4.259669  -2.040105  4.766632
H    -5.882074  -3.704036  4.474243
H    -4.340821  -4.548243  4.729443
H    -5.716210  -4.205842  2.098655
H    -5.665851  -5.578372  3.024042
H    -4.277381  -5.013399  2.321619
N    -2.184318  1.982951  4.468262
C    -1.864015  3.137148  5.318689
H    -3.123871  1.960227  4.075834
H    -2.736460  3.363199  5.941032
H    -1.638222  4.009169  4.690613
H    -1.006029  2.901400  5.952087
Pb    1.866615  0.194973  4.135950
