35
Energy: -608358.114517 eV PBE+vdW (tier 2 basis)
C    -0.399959  0.064314  0.337543
C    -0.098990  -0.037501  1.793600
O    1.085504  -0.354967  2.164180
H    0.246522  0.830006  -0.115479
H    -1.446062  0.302246  0.118250
H    -0.134628  -0.888005  -0.144838
N    -1.084988  0.193023  2.668013
C    -1.127265  0.060873  4.145363
C    -0.204555  1.068806  4.858268
O    1.074290  0.980479  4.828441
H    -1.972077  0.453661  2.241796
H    -2.153427  0.366154  4.392887
C    -0.972447  -1.390110  4.671492
C    -2.136565  -2.293352  4.203462
C    -2.462314  -3.527526  5.076980
C    -1.511845  -4.714707  4.922702
N    -2.051392  -5.938511  5.654569
H    -0.970901  -1.319435  5.770534
H    0.003339  -1.803547  4.380541
H    -1.979737  -2.608885  3.161086
H    -3.058900  -1.692964  4.195274
H    -3.474804  -3.852729  4.790132
H    -2.522354  -3.228076  6.135481
H    -0.514785  -4.530732  5.341209
H    -1.400863  -5.019885  3.874383
H    -2.171806  -5.764354  6.663828
H    -1.419299  -6.747916  5.558036
H    -2.970792  -6.226693  5.285454
N    -0.784073  2.019547  5.564427
C    -0.099868  3.049576  6.355323
H    -1.802222  2.061070  5.560781
H    -0.641948  3.181131  7.298181
H    -0.105624  4.000964  5.806766
H    0.927911  2.740061  6.556171
Pb    2.737920  0.306984  3.498164
