35
Energy: -608356.666154 eV PBE+vdW (tier 2 basis)
C    0.423001  0.331069  0.520994
C    0.201034  -0.833773  1.416510
O    1.231578  -1.480325  1.909897
H    1.189879  0.985662  0.956933
H    -0.478830  0.924992  0.347710
H    0.803052  -0.022166  -0.450987
N    -0.998662  -1.270599  1.754155
C    -2.305516  -0.740957  1.317789
C    -2.752544  0.575811  2.048424
O    -3.189253  1.455138  1.308227
H    -1.017888  -2.064402  2.399308
H    -2.188575  -0.414496  0.279846
C    -3.374161  -1.857012  1.389443
C    -4.839507  -1.403085  1.238437
C    -5.252991  -0.848742  -0.140039
C    -6.758236  -0.581276  -0.154648
N    -7.234868  -0.030510  -1.491742
H    -3.297183  -2.367241  2.362163
H    -3.130109  -2.609614  0.624465
H    -5.079202  -0.662921  2.016946
H    -5.453984  -2.286208  1.467458
H    -4.996455  -1.577365  -0.926181
H    -4.710449  0.085482  -0.353038
H    -7.050274  0.162833  0.596970
H    -7.341754  -1.494200  0.019063
H    -8.251865  0.140684  -1.481007
H    -7.045207  -0.684329  -2.265263
H    -6.777730  0.863567  -1.722695
N    -2.691878  0.690178  3.388895
C    -2.282517  -0.280929  4.399206
H    -3.015677  1.596406  3.724989
H    -1.189136  -0.359446  4.483084
H    -2.720318  -1.270718  4.220477
H    -2.660245  0.059267  5.368592
Pb    3.288668  -2.045796  2.178275
