35
Energy: -608357.513299 eV PBE+vdW (tier 2 basis)
C    0.178181  2.272122  -0.351528
C    0.092006  1.149181  0.613099
O    1.160736  0.568095  1.015467
H    0.778055  1.920046  -1.207312
H    -0.793670  2.612835  -0.718914
H    0.744368  3.113172  0.075374
N    -1.096167  0.689878  1.073070
C    -2.131253  1.562209  1.639569
C    -1.549144  2.116846  2.971377
O    -0.504174  1.571257  3.491805
H    -1.015028  -0.202334  1.564682
H    -2.287988  2.409552  0.955794
C    -3.460026  0.794281  1.831042
C    -4.154123  0.430221  0.504736
C    -5.487267  -0.317984  0.721300
C    -6.167652  -0.636905  -0.611546
N    -7.496804  -1.354187  -0.417893
H    -4.131121  1.412464  2.443224
H    -3.262802  -0.110438  2.429492
H    -3.482533  -0.186128  -0.112369
H    -4.344290  1.352453  -0.067210
H    -6.158575  0.298444  1.340668
H    -5.303442  -1.251149  1.277456
H    -5.558184  -1.296857  -1.241573
H    -6.397297  0.269683  -1.185438
H    -7.941532  -1.562099  -1.325485
H    -8.166239  -0.787256  0.123795
H    -7.384428  -2.251717  0.076745
N    -2.100119  3.145345  3.582207
C    -3.257806  3.958569  3.194752
H    -1.646222  3.410777  4.460130
H    -3.013525  5.012390  3.371009
H    -4.127079  3.692840  3.810426
H    -3.497127  3.827714  2.136000
Pb    1.544928  0.578843  3.256206
