35
Energy: -608358.067108 eV PBE+vdW (tier 2 basis)
C    -0.248829  1.444167  0.685675
C    -0.481219  0.059589  1.185312
O    0.234580  -0.895551  0.725296
H    -0.347888  1.445181  -0.409917
H    0.788509  1.738630  0.901979
H    -0.929897  2.188393  1.111535
N    -1.446684  -0.138538  2.092880
C    -1.976465  -1.388400  2.690707
C    -0.921923  -2.100720  3.554894
O    0.050458  -2.760306  3.034476
H    -1.931579  0.708777  2.380630
H    -2.751860  -1.031400  3.379313
C    -2.673899  -2.345589  1.690277
C    -3.902763  -1.692405  1.027053
C    -4.719116  -2.582322  0.059190
C    -5.700354  -3.530434  0.752386
N    -6.630342  -4.197863  -0.253662
H    -2.960437  -3.241038  2.263588
H    -1.963480  -2.681537  0.921374
H    -4.575639  -1.293912  1.803625
H    -3.570072  -0.821108  0.446007
H    -4.043747  -3.149574  -0.600646
H    -5.290199  -1.903305  -0.592709
H    -6.356454  -2.996608  1.451608
H    -5.208507  -4.347971  1.293438
H    -7.186759  -3.503715  -0.776052
H    -7.298121  -4.830277  0.213884
H    -6.115160  -4.759154  -0.948118
N    -1.031544  -2.083658  4.868987
C    -2.035698  -1.428822  5.723590
H    -0.307149  -2.617654  5.355801
H    -1.679333  -1.486159  6.756215
H    -3.000764  -1.947326  5.663940
H    -2.148128  -0.370390  5.463481
Pb    1.460461  -2.662004  1.300967
