35
Energy: -608356.922913 eV PBE+vdW (tier 2 basis)
C    0.084048  -0.129280  -0.012707
C    -0.090942  0.049913  1.452398
O    0.985137  0.174382  2.209719
H    -0.855260  -0.286925  -0.548187
H    0.735792  -0.995225  -0.199490
H    0.581101  0.757765  -0.434355
N    -1.255143  0.097986  2.051931
C    -2.606752  0.062354  1.448815
C    -3.487971  0.841418  2.453472
O    -3.279455  0.660789  3.672955
H    -1.294456  0.223570  3.075260
H    -2.560400  0.577466  0.481458
C    -3.130081  -1.388104  1.236864
C    -3.539531  -2.169301  2.499949
C    -5.029656  -2.024145  2.889985
C    -5.315248  -2.265898  4.370613
N    -5.090340  -0.997947  5.193891
H    -2.347849  -1.936527  0.692838
H    -3.977523  -1.320341  0.538470
H    -2.889028  -1.889074  3.342521
H    -3.338594  -3.233821  2.321755
H    -5.620835  -2.753031  2.319174
H    -5.438533  -1.043557  2.597340
H    -4.662824  -3.039330  4.793257
H    -6.352820  -2.568586  4.548838
H    -4.331911  -0.399786  4.787938
H    -5.942684  -0.423091  5.206944
H    -4.866048  -1.213588  6.174081
N    -4.434893  1.623286  1.937241
C    -5.386782  2.406717  2.728687
H    -4.501205  1.701940  0.925310
H    -5.483462  3.405236  2.289102
H    -5.010724  2.500407  3.751237
H    -6.375939  1.929537  2.728144
Pb    3.053123  0.414622  2.679044
