35
Energy: -608355.752628 eV PBE+vdW (tier 2 basis)
C    -2.003788  -0.494273  -0.462179
C    -2.361744  -0.180095  0.946620
O    -3.496075  -0.545827  1.407539
H    -2.042895  -1.585479  -0.600222
H    -1.012933  -0.129990  -0.752937
H    -2.762122  -0.068924  -1.135086
N    -1.478913  0.469214  1.721921
C    -1.646698  0.738348  3.158096
C    -2.741529  1.819430  3.360744
O    -3.916121  1.415624  3.694441
H    -0.589510  0.718044  1.292717
H    -2.094781  -0.162872  3.603106
C    -0.274581  0.953284  3.837992
C    -0.373456  1.197086  5.355359
C    0.966995  1.465871  6.079916
C    1.834656  0.224511  6.299849
N    3.035972  0.542947  7.181415
H    0.267738  1.780648  3.359080
H    0.303761  0.040050  3.629323
H    -0.886928  0.351504  5.839684
H    -1.007230  2.076307  5.544608
H    0.718092  1.899769  7.060707
H    1.540335  2.233696  5.536129
H    2.247912  -0.187122  5.371031
H    1.286517  -0.571691  6.819376
H    3.620903  -0.292708  7.336418
H    2.747613  0.886797  8.110274
H    3.642812  1.265081  6.764853
N    -2.549270  3.113182  3.193202
C    -1.351319  3.858056  2.787656
H    -3.384197  3.677714  3.369966
H    -1.680677  4.810287  2.360225
H    -0.790597  3.318000  2.019444
H    -0.711274  4.072108  3.652684
Pb    -5.211494  -0.213879  2.811127
