35
Energy: -608356.940079 eV PBE+vdW (tier 2 basis)
C    -0.610506  1.178569  1.145103
C    -0.407139  -0.251560  1.522281
O    0.834942  -0.713876  1.530397
H    -1.655757  1.492582  1.208645
H    -0.281559  1.299608  0.100668
H    -0.014035  1.838999  1.783554
N    -1.380446  -1.180100  1.407478
C    -2.630987  -0.928339  2.124981
C    -2.140088  -0.380384  3.527531
O    -0.954316  0.013444  3.584436
H    -1.037381  -2.139014  1.495677
H    -3.164521  -0.093151  1.644185
C    -3.517384  -2.182103  2.156492
C    -4.145365  -2.619505  0.811335
C    -5.531845  -2.011238  0.510762
C    -6.133057  -2.642431  -0.746458
N    -7.557866  -2.171340  -1.008392
H    -4.323554  -2.028124  2.888558
H    -2.921002  -3.013123  2.563578
H    -4.249392  -3.713343  0.844312
H    -3.453583  -2.408458  -0.018526
H    -5.465613  -0.918279  0.386700
H    -6.198165  -2.200952  1.368151
H    -6.192123  -3.734983  -0.662604
H    -5.562465  -2.398127  -1.651016
H    -7.944156  -2.612560  -1.857144
H    -7.610923  -1.151519  -1.145507
H    -8.189381  -2.410542  -0.229533
N    -2.996781  -0.312979  4.535094
C    -2.672865  0.232596  5.859982
H    -3.931486  -0.686103  4.404049
H    -1.884783  0.983605  5.758579
H    -2.334820  -0.566074  6.532183
H    -3.571082  0.698159  6.277119
Pb    2.837035  -0.505110  2.165449
