35
Energy: -608358.047367 eV PBE+vdW (tier 2 basis)
C    0.003055  0.208906  0.123531
C    -0.036969  -0.258707  1.535299
O    1.056799  -0.533851  2.139926
H    0.517768  -0.538117  -0.497253
H    0.613581  1.123862  0.077147
H    -0.986099  0.415183  -0.298528
N    -1.219774  -0.356758  2.157968
C    -1.455240  -0.653988  3.585232
C    -1.274863  -2.175530  3.817034
O    -0.095350  -2.644876  3.991177
H    -2.040502  -0.136769  1.595185
H    -0.642535  -0.177324  4.155242
C    -2.809334  -0.043328  4.009596
C    -3.102498  -0.056386  5.531052
C    -2.619125  1.189120  6.309347
C    -3.541678  2.413466  6.294589
N    -4.660695  2.331637  7.329724
H    -3.625970  -0.545299  3.464980
H    -2.819594  0.991274  3.633189
H    -2.656978  -0.948808  5.993806
H    -4.186408  -0.192281  5.664009
H    -1.652228  1.533731  5.912872
H    -2.403321  0.913492  7.353247
H    -4.036235  2.571860  5.327729
H    -2.988244  3.326088  6.544650
H    -5.257383  3.173103  7.293585
H    -4.284240  2.272675  8.288210
H    -5.278203  1.519163  7.191460
N    -2.319094  -2.976178  3.819521
C    -2.282003  -4.437595  3.973548
H    -3.235741  -2.556232  3.678899
H    -3.154121  -4.749163  4.557300
H    -1.364553  -4.729318  4.489946
H    -2.322897  -4.917128  2.986500
Pb    2.019033  -2.085737  3.421158
