35
Energy: -608356.757519 eV PBE+vdW (tier 2 basis)
C    -0.220924  -0.246562  0.035412
C    0.002381  0.098319  1.459758
O    1.234699  0.302753  1.884431
H    0.376884  -1.134346  -0.218923
H    0.135127  0.580020  -0.597869
H    -1.269697  -0.453004  -0.196686
N    -0.954593  0.210889  2.358516
C    -2.440898  0.138149  2.218261
C    -2.931293  -1.213289  1.595631
O    -3.417399  -1.217391  0.451345
H    -0.629998  0.448130  3.298338
H    -2.788767  0.170440  3.260519
C    -3.034793  1.333178  1.458816
C    -4.560412  1.417571  1.689282
C    -5.365189  2.084916  0.560272
C    -5.329531  1.423176  -0.815798
N    -5.726209  -0.043392  -0.775820
H    -2.799080  1.221173  0.392065
H    -2.554400  2.258821  1.803893
H    -4.752930  1.980751  2.612572
H    -4.969770  0.413222  1.883227
H    -5.025194  3.120435  0.408780
H    -6.411105  2.172435  0.891911
H    -4.335651  1.443143  -1.278929
H    -6.025827  1.925494  -1.497413
H    -5.842857  -0.419503  -1.726534
H    -4.983785  -0.604203  -0.298207
H    -6.620935  -0.180689  -0.285952
N    -2.827509  -2.318408  2.344023
C    -2.361203  -2.452936  3.725770
H    -3.182834  -3.160327  1.890767
H    -2.545103  -3.482418  4.046437
H    -2.913656  -1.792438  4.406883
H    -1.282596  -2.266771  3.814042
Pb    3.356343  0.572311  1.958613
