35
Energy: -608357.773706 eV PBE+vdW (tier 2 basis)
C    -0.686926  3.371414  0.825191
C    -0.597130  2.014288  1.415928
O    0.539613  1.429783  1.506811
H    -0.188237  3.331880  -0.157578
H    -0.108156  4.095795  1.417200
H    -1.712413  3.724185  0.685988
N    -1.693918  1.347204  1.847421
C    -2.685638  1.932474  2.756672
C    -1.962448  2.123410  4.120997
O    -0.834482  1.539081  4.337078
H    -1.509975  0.360719  2.040660
H    -2.966584  2.925796  2.376464
C    -3.943548  1.038313  2.856732
C    -4.775226  1.000655  1.560441
C    -6.046720  0.136189  1.701702
C    -6.864598  0.132994  0.408579
N    -8.134980  -0.696535  0.538962
H    -4.564187  1.408532  3.684340
H    -3.633567  0.021794  3.150299
H    -4.160098  0.617442  0.731970
H    -5.062767  2.027937  1.285371
H    -6.664088  0.523214  2.528331
H    -5.766150  -0.895982  1.966134
H    -6.308512  -0.298797  -0.432970
H    -7.192420  1.140681  0.123776
H    -8.674155  -0.690206  -0.340815
H    -8.757567  -0.336114  1.277509
H    -7.932316  -1.682354  0.762548
N    -2.476847  2.880978  5.067683
C    -3.711484  3.672869  5.070176
H    -1.925876  2.915864  5.929316
H    -3.499662  4.639110  5.541772
H    -4.486893  3.160899  5.654838
H    -4.069049  3.852277  4.052621
Pb    1.210432  0.827768  3.593661
