35
Energy: -608356.960524 eV PBE+vdW (tier 2 basis)
C    -0.364582  0.032225  -0.419647
C    -0.116572  0.691162  0.889884
O    1.120956  1.078381  1.170410
H    -0.147497  0.738973  -1.234971
H    -1.392450  -0.322556  -0.530882
H    0.317358  -0.821737  -0.537675
N    -1.031414  0.919892  1.789193
C    -2.497632  0.818459  1.690178
C    -2.935473  1.945609  2.681647
O    -2.103080  2.301246  3.530855
H    -0.837110  1.466914  2.673865
H    -2.799234  1.065030  0.663525
C    -3.092362  -0.566634  2.065262
C    -3.227501  -0.907886  3.562216
C    -3.978745  -2.244786  3.739726
C    -4.614216  -2.511986  5.101900
N    -3.615849  -2.885768  6.195539
H    -2.515330  -1.345622  1.543627
H    -4.094935  -0.592029  1.611993
H    -3.791270  -0.106959  4.065370
H    -2.235304  -0.938485  4.039907
H    -3.347774  -3.098070  3.442402
H    -4.829123  -2.267838  3.040013
H    -5.307539  -3.359612  5.044814
H    -5.166419  -1.644095  5.484000
H    -4.103324  -3.082806  7.082975
H    -2.938418  -2.134428  6.382071
H    -3.086113  -3.734013  5.947507
N    -4.177134  2.418401  2.557899
C    -4.731329  3.485118  3.397897
H    -4.749960  2.087181  1.786009
H    -5.700264  3.171082  3.802606
H    -4.872644  4.396397  2.803650
H    -4.034369  3.688069  4.214666
Pb    3.091218  1.831615  1.010623
