35
Energy: -608356.906222 eV PBE+vdW (tier 2 basis)
C    -2.559745  2.648841  2.015243
C    -1.795852  1.694889  2.855730
O    -0.510577  1.744917  2.807181
H    -2.174424  2.603538  0.986648
H    -2.363377  3.672359  2.368628
H    -3.638380  2.463751  2.014419
N    -2.440000  0.826250  3.642160
C    -1.912299  -0.348073  4.381977
C    -0.828348  0.023049  5.404987
O    -1.001858  -0.457602  6.627918
H    -3.453146  0.918410  3.648783
H    -2.765036  -0.710075  4.970357
C    -1.447952  -1.495955  3.441433
C    -2.601412  -2.058588  2.589650
C    -2.314509  -3.371874  1.825917
C    -1.456704  -3.210186  0.570857
N    -1.419857  -4.503719  -0.235027
H    -1.044265  -2.290031  4.089007
H    -0.611713  -1.141626  2.820554
H    -2.955648  -1.297915  1.876928
H    -3.454025  -2.270493  3.252124
H    -3.291616  -3.786741  1.532371
H    -1.855709  -4.108383  2.504511
H    -0.410580  -2.962088  0.787585
H    -1.861615  -2.449329  -0.108448
H    -1.028095  -5.286685  0.309177
H    -0.844414  -4.404174  -1.085054
H    -2.363825  -4.787897  -0.538474
N    0.181103  0.741587  5.040390
C    1.198149  1.107574  5.984451
H    -0.065357  1.290232  3.663873
H    1.973458  1.731163  5.520200
H    1.737723  0.215106  6.385721
H    0.786531  1.734585  6.816396
Pb    0.067693  -0.217987  8.489694
