35
Energy: -608358.042150 eV PBE+vdW (tier 2 basis)
C    -2.249541  -4.447474  -0.201044
C    -1.461792  -3.604706  0.739130
O    -0.186256  -3.620858  0.683306
H    -1.967519  -5.501909  -0.067824
H    -1.972789  -4.180888  -1.231832
H    -3.332784  -4.345015  -0.077905
N    -2.106798  -2.825013  1.621696
C    -1.467302  -1.885992  2.555908
C    -0.727095  -2.672471  3.671979
O    0.539190  -2.855243  3.526724
H    -3.123393  -2.877766  1.623250
H    -0.648388  -1.398696  2.005846
C    -2.432631  -0.781263  3.038172
C    -2.662782  0.367882  2.031401
C    -3.480803  1.503859  2.683614
C    -3.562858  2.833467  1.928893
N    -4.640342  2.882672  0.848072
H    -2.002825  -0.356282  3.957984
H    -3.397184  -1.219351  3.333698
H    -3.160353  -0.014809  1.125573
H    -1.687647  0.767434  1.710850
H    -3.010096  1.761798  3.644724
H    -4.493431  1.158691  2.949666
H    -2.621156  3.097116  1.431284
H    -3.818924  3.646429  2.618491
H    -4.665505  3.814354  0.404538
H    -5.578313  2.714093  1.241303
H    -4.487832  2.196580  0.096826
N    -1.304546  -3.163193  4.749604
C    -2.705448  -3.145915  5.188409
H    -0.651596  -3.631937  5.383291
H    -2.853843  -4.000602  5.855942
H    -3.386872  -3.254814  4.339882
H    -2.928820  -2.227470  5.745285
Pb    1.779504  -3.524287  1.774366
