35
Energy: -608358.121850 eV PBE+vdW (tier 2 basis)
C    0.840197  1.626563  1.250324
C    -0.083611  0.884569  2.149852
O    -0.116742  1.173708  3.396558
H    0.588479  2.697269  1.300844
H    0.795935  1.296675  0.207083
H    1.870515  1.532896  1.621564
N    -0.885060  -0.055329  1.631510
C    -1.972573  -0.787539  2.314537
C    -1.347962  -1.891518  3.203130
O    -0.917817  -1.586538  4.371097
H    -0.780199  -0.228209  0.632396
H    -2.449652  -0.084528  3.014530
C    -2.991773  -1.242220  1.246009
C    -4.345487  -1.810478  1.737981
C    -5.406432  -0.735311  2.045648
C    -6.785964  -1.251025  2.467991
N    -7.643406  -1.749610  1.307468
H    -2.512730  -1.975710  0.576332
H    -3.184395  -0.367525  0.605815
H    -4.204286  -2.457133  2.618365
H    -4.705587  -2.476357  0.939001
H    -5.515707  -0.049526  1.189305
H    -5.073613  -0.099605  2.880065
H    -7.372365  -0.449352  2.931936
H    -6.726735  -2.084452  3.179410
H    -8.568291  -2.057814  1.646830
H    -7.225749  -2.549989  0.812721
H    -7.812838  -1.007334  0.612031
N    -1.245462  -3.124886  2.755868
C    -0.618160  -4.246833  3.468752
H    -1.601728  -3.319025  1.822134
H    -1.162527  -5.164224  3.223734
H    -0.657453  -4.066342  4.545660
H    0.426443  -4.355252  3.147711
Pb    -0.095751  0.241361  5.418359
