35
Energy: -608356.623287 eV PBE+vdW (tier 2 basis)
C    1.209911  -1.935245  0.806983
C    0.741542  -1.787855  2.215601
O    1.428761  -2.353207  3.194107
H    0.563274  -1.413345  0.093932
H    1.226978  -3.000821  0.530245
H    2.229029  -1.532810  0.707008
N    -0.340896  -1.110252  2.478012
C    -1.086319  -0.875339  3.722110
C    -2.541932  -0.761757  3.176531
O    -2.664685  -0.385889  2.001780
H    -0.940689  -0.749664  1.694160
H    -0.952943  -1.729803  4.396637
C    -0.639006  0.431594  4.443619
C    -0.741038  1.746302  3.635426
C    -2.048342  2.570193  3.748008
C    -2.027058  3.541822  4.928535
N    -3.210129  4.502641  4.887852
H    0.404825  0.280412  4.751937
H    -1.214198  0.491727  5.379267
H    -0.573390  1.544091  2.569593
H    0.102024  2.386552  3.932202
H    -2.928679  1.912971  3.809239
H    -2.159509  3.146460  2.816857
H    -1.132563  4.177254  4.912717
H    -2.076338  3.042391  5.904221
H    -4.113770  4.009753  4.929694
H    -3.209694  5.063753  4.022572
H    -3.185009  5.163858  5.678887
N    -3.575008  -1.020674  3.990978
C    -3.551682  -1.623319  5.324900
H    -4.481050  -0.964453  3.525069
H    -2.761155  -1.190002  5.947690
H    -3.423998  -2.713516  5.274212
H    -4.508984  -1.417708  5.813699
Pb    3.040387  -3.702863  3.626118
