35
Energy: -608356.392275 eV PBE+vdW (tier 2 basis)
C    0.023728  0.814230  0.172076
C    -0.305963  -0.420226  0.938874
O    0.448150  -1.486072  0.825552
H    -0.699300  1.622070  0.329886
H    0.057477  0.588642  -0.904453
H    1.014793  1.185436  0.475846
N    -1.356343  -0.441462  1.737977
C    -1.823718  -1.519017  2.621631
C    -3.001817  -2.388345  2.090753
O    -3.048190  -3.542733  2.546467
H    -1.875061  0.436761  1.776973
H    -0.988782  -2.220506  2.725877
C    -2.211646  -0.953073  4.018213
C    -2.119222  -2.012412  5.151464
C    -3.361539  -2.162912  6.046959
C    -4.613441  -2.786053  5.436450
N    -4.385937  -4.211657  4.958202
H    -3.220150  -0.515388  3.960551
H    -1.531992  -0.121697  4.249045
H    -1.283912  -1.736029  5.807242
H    -1.838911  -2.988312  4.729456
H    -3.666172  -1.180763  6.439061
H    -3.075985  -2.742848  6.938807
H    -4.990727  -2.238594  4.562975
H    -5.418337  -2.824810  6.179651
H    -5.278673  -4.680486  4.753136
H    -3.905067  -4.777332  5.671124
H    -3.819279  -4.205086  4.080524
N    -3.939370  -1.909394  1.257138
C    -4.174005  -0.558070  0.742908
H    -4.632620  -2.612349  1.001715
H    -5.193314  -0.524388  0.345238
H    -3.495323  -0.300190  -0.080675
H    -4.125306  0.196137  1.539869
Pb    2.194620  -2.412100  -0.047685
