35
Energy: -608356.827129 eV PBE+vdW (tier 2 basis)
C    -0.252127  0.202171  -1.116323
C    0.091479  0.156588  0.328523
O    1.357221  0.007503  0.676631
H    -1.325243  0.283096  -1.305768
H    0.116650  -0.710489  -1.607246
H    0.252326  1.058733  -1.588457
N    -0.787837  0.256000  1.295453
C    -2.243669  0.506184  1.202489
C    -2.598128  1.213401  2.525780
O    -2.049883  0.789808  3.569383
H    -0.467720  0.207812  2.274772
H    -2.425507  1.157217  0.340385
C    -3.082631  -0.794241  1.051271
C    -2.893333  -1.891586  2.131235
C    -4.146014  -2.268651  2.946164
C    -4.727862  -1.245840  3.917827
N    -3.773328  -0.889039  5.047908
H    -2.862752  -1.209194  0.057984
H    -4.133317  -0.471161  0.994717
H    -2.068291  -1.634678  2.811277
H    -2.569518  -2.811309  1.627845
H    -3.935380  -3.198883  3.497369
H    -4.965264  -2.532251  2.259856
H    -5.633930  -1.648022  4.386129
H    -4.994599  -0.294111  3.440569
H    -2.998679  -0.280504  4.688030
H    -3.372236  -1.732272  5.480531
H    -4.260168  -0.373711  5.793798
N    -3.502462  2.194002  2.507150
C    -4.174461  2.801713  1.348994
H    -3.665977  2.630892  3.414193
H    -4.647103  2.043174  0.714484
H    -3.480013  3.412543  0.757651
H    -4.964922  3.458247  1.723960
Pb    3.480780  -0.101711  0.489316
