35
Energy: -608356.630975 eV PBE+vdW (tier 2 basis)
C    -0.792636  1.611840  0.472752
C    -0.874433  0.246919  1.065928
O    -0.287842  -0.763363  0.477371
H    0.259162  1.935894  0.435441
H    -1.353400  2.361475  1.041969
H    -1.183859  1.598692  -0.555735
N    -1.535501  0.054810  2.195172
C    -1.681701  -1.165228  3.004995
C    -3.057318  -1.885851  2.845285
O    -3.121951  -3.053278  3.252705
H    -1.906170  0.909565  2.616733
H    -0.939810  -1.888615  2.645288
C    -1.379971  -0.791861  4.483313
C    -1.419309  -1.968278  5.481572
C    -2.732112  -2.100906  6.283113
C    -2.962572  -3.500939  6.845264
N    -3.551770  -4.427374  5.781690
H    -2.076732  -0.000170  4.805237
H    -0.376783  -0.343952  4.491356
H    -0.596680  -1.829119  6.195560
H    -1.186693  -2.902278  4.948945
H    -3.609547  -1.798882  5.689621
H    -2.708579  -1.407176  7.134800
H    -3.667113  -3.502974  7.683912
H    -2.028914  -3.963359  7.187521
H    -3.307835  -5.411977  5.950975
H    -3.239848  -4.151415  4.827383
H    -4.578272  -4.369629  5.780013
N    -4.086323  -1.223245  2.303859
C    -5.427853  -1.801089  2.154748
H    -3.966762  -0.256303  2.022649
H    -5.934533  -1.307664  1.320034
H    -6.020872  -1.652951  3.066598
H    -5.340473  -2.871540  1.946261
Pb    0.961401  -1.450076  -1.152787
