35
Energy: -608357.959261 eV PBE+vdW (tier 2 basis)
C    0.422096  -0.821438  0.237660
C    -0.010257  -0.411738  1.599666
O    0.840860  0.078759  2.415973
H    1.246802  -1.543741  0.318457
H    0.828846  0.058193  -0.283827
H    -0.384698  -1.254034  -0.363151
N    -1.297880  -0.550623  1.962018
C    -1.809386  -0.060485  3.244686
C    -1.201826  -0.873628  4.418712
O    -0.388042  -0.241178  5.192280
H    -1.945025  -0.908158  1.263331
H    -1.342379  0.924503  3.391185
C    -3.322564  0.280692  3.266290
C    -4.424570  -0.778148  3.078078
C    -5.809325  -0.091211  3.006611
C    -6.951600  -1.100049  2.874179
N    -8.308494  -0.411157  2.813973
H    -3.439105  1.060191  2.496370
H    -3.486823  0.796197  4.224832
H    -4.421749  -1.488993  3.915986
H    -4.270120  -1.363445  2.157201
H    -5.827829  0.603596  2.151767
H    -5.956874  0.515407  3.914623
H    -7.001851  -1.785820  3.729202
H    -6.877119  -1.696825  1.956412
H    -9.071497  -1.100407  2.726407
H    -8.383567  0.226844  2.007377
H    -8.498384  0.143664  3.662219
N    -1.421294  -2.151109  4.657848
C    -2.188563  -3.157118  3.923497
H    -0.922459  -2.501527  5.480686
H    -1.538798  -4.022173  3.741611
H    -2.533858  -2.768135  2.965228
H    -3.044102  -3.489210  4.524213
Pb    1.506413  0.760409  4.467624
