35
Energy: -608356.440688 eV PBE+vdW (tier 2 basis)
C    -1.320580  0.334371  0.017065
C    -0.571515  0.585389  1.272113
O    0.469837  1.394148  1.242254
H    -1.560072  1.290776  -0.466896
H    -2.243481  -0.228023  0.175001
H    -0.679313  -0.234431  -0.674713
N    -0.852495  0.027951  2.431772
C    -1.961395  -0.878928  2.860936
C    -2.279221  -2.038371  1.870727
O    -3.434017  -2.220725  1.464365
H    -0.234376  0.310947  3.196289
H    -1.533627  -1.373246  3.747853
C    -3.190937  -0.098470  3.384543
C    -3.943851  0.918764  2.505468
C    -5.036030  0.458589  1.518366
C    -6.200472  -0.332033  2.143571
N    -6.160873  -1.797818  1.748943
H    -2.840996  0.439130  4.278144
H    -3.870005  -0.867353  3.782503
H    -3.230382  1.552462  1.954286
H    -4.420296  1.616678  3.210213
H    -4.611564  -0.116116  0.683204
H    -5.457139  1.365906  1.065891
H    -7.174735  0.051045  1.822578
H    -6.184615  -0.303936  3.239927
H    -6.504819  -1.930633  0.788653
H    -6.751267  -2.376501  2.360999
H    -5.173069  -2.142433  1.772359
N    -1.252413  -2.836899  1.541026
C    -1.415500  -4.044271  0.722008
H    -0.368252  -2.727235  2.029295
H    -0.434834  -4.349644  0.346153
H    -2.083442  -3.831305  -0.118341
H    -1.842936  -4.862375  1.316747
Pb    2.040353  2.741171  0.688253
