35
Energy: -608356.436694 eV PBE+vdW (tier 2 basis)
C    0.438710  0.070087  0.105760
C    -0.041896  -0.636034  1.327217
O    0.483380  -1.786412  1.670818
H    1.509477  0.304039  0.210291
H    -0.092079  1.009891  -0.082002
H    0.312868  -0.577122  -0.775391
N    -0.994344  -0.100781  2.067184
C    -1.572928  -0.579351  3.331163
C    -2.953755  -1.296116  3.222261
O    -3.144575  -2.200495  4.050923
H    -1.328519  0.804210  1.733663
H    -0.905744  -1.362034  3.708349
C    -1.618183  0.588368  4.354449
C    -2.097217  0.167325  5.759791
C    -3.605386  0.357682  6.034750
C    -4.136556  -0.533098  7.155355
N    -4.453045  -1.939804  6.644165
H    -2.244817  1.407079  3.966282
H    -0.596245  0.985799  4.424068
H    -1.539597  0.762715  6.494703
H    -1.793509  -0.875063  5.942607
H    -4.216749  0.207416  5.130660
H    -3.789757  1.399112  6.332139
H    -5.064393  -0.145462  7.589460
H    -3.407309  -0.646086  7.966448
H    -3.862053  -2.192915  5.822331
H    -5.430181  -1.999649  6.330215
H    -4.333855  -2.650189  7.378142
N    -3.890213  -0.919711  2.336728
C    -3.917347  0.193183  1.385385
H    -4.726962  -1.501053  2.371466
H    -3.567561  1.127630  1.843131
H    -4.959136  0.362000  1.094617
H    -3.355068  -0.028635  0.468293
Pb    1.937274  -3.324149  1.237926
