35
Energy: -608357.853538 eV PBE+vdW (tier 2 basis)
C    0.493203  -1.985653  0.076702
C    -0.960753  -2.037836  0.384760
O    -1.620737  -3.104982  0.140777
H    0.648856  -2.202572  -0.989895
H    0.999342  -2.788554  0.633958
H    0.958953  -1.026330  0.325406
N    -1.556100  -0.967248  0.932659
C    -2.949334  -0.903106  1.403577
C    -3.911956  -0.928618  0.186387
O    -4.459902  -2.055665  -0.108201
H    -0.964116  -0.156036  1.104378
H    -3.161258  -1.853527  1.916492
C    -3.105043  0.249457  2.422571
C    -4.515716  0.407403  3.041072
C    -4.773987  -0.398499  4.334957
C    -4.286203  0.229950  5.645439
N    -5.260322  1.258131  6.214936
H    -2.803866  1.194751  1.954864
H    -2.362023  0.059486  3.212994
H    -5.285245  0.135494  2.303568
H    -4.680872  1.480262  3.222196
H    -4.288151  -1.383745  4.273131
H    -5.847314  -0.627752  4.422796
H    -3.324580  0.749121  5.544468
H    -4.180390  -0.527786  6.430456
H    -4.901292  1.655281  7.097395
H    -6.175500  0.833074  6.428391
H    -5.429686  2.048314  5.576644
N    -4.189954  0.115872  -0.568549
C    -3.704855  1.501524  -0.516785
H    -4.849038  -0.091491  -1.323346
H    -3.838143  1.935575  -1.512653
H    -2.639882  1.539673  -0.270200
H    -4.288129  2.094935  0.198239
Pb    -3.542621  -4.097078  -0.432988
