35
Energy: -608357.953088 eV PBE+vdW (tier 2 basis)
C    0.090686  1.843275  0.461127
C    -0.410765  0.474256  0.763396
O    0.295960  -0.536888  0.423398
H    0.237813  1.928749  -0.626422
H    1.080473  1.979747  0.919686
H    -0.578663  2.642546  0.796085
N    -1.598500  0.342697  1.367601
C    -2.396484  -0.874160  1.662693
C    -1.660980  -1.757930  2.689405
O    -0.750848  -2.588752  2.328428
H    -2.064954  1.221627  1.583410
H    -3.286013  -0.475776  2.165719
C    -2.879330  -1.621821  0.394559
C    -4.250699  -2.315788  0.557426
C    -4.762350  -2.864161  -0.792902
C    -6.257197  -3.172474  -0.906039
N    -6.686695  -4.500036  -0.285422
H    -2.123129  -2.344130  0.055925
H    -2.962541  -0.866885  -0.400365
H    -4.972815  -1.575592  0.938463
H    -4.186648  -3.116095  1.312599
H    -4.170940  -3.735781  -1.116853
H    -4.588965  -2.100717  -1.567259
H    -6.549601  -3.245709  -1.960311
H    -6.881791  -2.402732  -0.435341
H    -6.522088  -4.540996  0.729289
H    -6.195416  -5.297230  -0.716129
H    -7.696333  -4.656581  -0.432680
N    -1.977680  -1.680753  3.967794
C    -2.963113  -0.814135  4.635364
H    -1.435932  -2.300201  4.575148
H    -3.976319  -1.002390  4.261238
H    -2.700280  0.244033  4.517091
H    -2.945017  -1.052068  5.702682
Pb    1.056150  -2.541150  0.983199
