35
Energy: -608358.037667 eV PBE+vdW (tier 2 basis)
C    0.035988  1.668336  0.338666
C    -0.534403  0.326083  0.640427
O    0.109803  -0.718079  0.277103
H    0.165353  1.756719  -0.750686
H    1.040865  1.744241  0.778035
H    -0.580202  2.500150  0.695532
N    -1.713333  0.256919  1.271526
C    -2.575726  -0.908823  1.585729
C    -1.869166  -1.871004  2.559947
O    -1.031164  -2.751853  2.144626
H    -2.122437  1.160530  1.501217
H    -3.413131  -0.463910  2.137117
C    -3.173719  -1.590167  0.331920
C    -4.429101  -2.430854  0.641769
C    -5.179611  -2.873037  -0.633811
C    -6.456261  -3.644378  -0.290404
N    -7.251926  -4.019700  -1.533368
H    -2.416823  -2.199110  -0.182525
H    -3.437327  -0.776767  -0.359880
H    -5.114308  -1.832355  1.263505
H    -4.159554  -3.317506  1.237010
H    -4.522911  -3.498851  -1.258784
H    -5.435976  -1.981346  -1.228284
H    -7.139237  -3.053281  0.332624
H    -6.245717  -4.587776  0.228698
H    -7.559217  -3.188720  -2.060785
H    -8.101445  -4.549581  -1.283155
H    -6.707561  -4.609834  -2.179875
N    -2.147788  -1.820199  3.847964
C    -3.060127  -0.919336  4.572298
H    -1.645051  -2.506396  4.416021
H    -2.807511  0.130916  4.386715
H    -2.937475  -1.113345  5.641674
H    -4.105506  -1.117693  4.305823
Pb    0.751704  -2.778996  0.775610
