35
Energy: -608356.618313 eV PBE+vdW (tier 2 basis)
C    0.451989  0.452382  -0.483149
C    0.490535  0.834778  0.947904
O    1.525403  1.524837  1.388834
H    1.348395  -0.145027  -0.710106
H    0.487597  1.360855  -1.103146
H    -0.411276  -0.166724  -0.736495
N    -0.426228  0.548626  1.856927
C    -1.707950  -0.207542  1.791030
C    -1.407524  -1.705610  1.433946
O    -1.178551  -1.983874  0.257795
H    -0.191236  0.887977  2.791417
H    -2.091536  -0.135578  2.815808
C    -2.746614  0.392009  0.824680
C    -4.121376  -0.301430  0.921803
C    -5.089134  0.238153  -0.149164
C    -6.397565  -0.526667  -0.339378
N    -7.437927  -0.253368  0.744809
H    -2.383971  0.295923  -0.206755
H    -2.847185  1.465102  1.044721
H    -4.531531  -0.162219  1.936039
H    -3.994328  -1.384798  0.771243
H    -4.593282  0.185250  -1.130463
H    -5.298432  1.308785  0.009913
H    -6.251056  -1.614092  -0.350836
H    -6.881796  -0.238228  -1.279853
H    -8.309578  -0.770560  0.553506
H    -7.683512  0.746524  0.788055
H    -7.117284  -0.536582  1.680356
N    -1.426225  -2.605900  2.432743
C    -1.689956  -2.407439  3.859114
H    -1.248291  -3.560027  2.120525
H    -1.521179  -3.361452  4.367484
H    -2.729504  -2.109452  4.050701
H    -1.003795  -1.676808  4.306476
Pb    3.440159  2.472861  1.271159
