35
Energy: -608356.649050 eV PBE+vdW (tier 2 basis)
C    0.694881  0.590374  0.448752
C    0.264701  -0.022708  1.739360
O    1.103038  -0.057530  2.759258
H    1.562004  0.043622  0.046787
H    0.986775  1.638680  0.612422
H    -0.094531  0.570676  -0.310027
N    -0.935423  -0.523813  1.854764
C    -1.629247  -1.239310  2.936635
C    -2.442787  -2.293964  2.120662
O    -2.911625  -1.905744  1.044820
H    -1.553042  -0.552119  1.015664
H    -0.898932  -1.686284  3.622991
C    -2.578304  -0.252903  3.681651
C    -3.587537  -0.907131  4.654127
C    -4.952459  -1.299762  4.041395
C    -5.997097  -0.186998  3.936211
N    -6.732549  0.058529  5.252250
H    -3.109270  0.337539  2.919641
H    -1.940292  0.452006  4.231873
H    -3.733039  -0.210678  5.494916
H    -3.140147  -1.797896  5.117800
H    -5.382966  -2.145976  4.599502
H    -4.820296  -1.679675  3.019075
H    -6.780069  -0.444701  3.213621
H    -5.570083  0.780615  3.643557
H    -7.246837  -0.782178  5.555052
H    -7.424524  0.817265  5.156366
H    -6.096871  0.321489  6.018184
N    -2.593747  -3.512971  2.652475
C    -3.321776  -4.598269  1.985895
H    -2.105432  -3.733233  3.515295
H    -2.622763  -5.373358  1.648075
H    -3.848042  -4.187202  1.120355
H    -4.038917  -5.045702  2.683649
Pb    3.145579  0.329015  3.307659
