35
Energy: -608356.870183 eV PBE+vdW (tier 2 basis)
C    -0.138228  -0.929546  0.985382
C    -0.195860  0.079303  2.074674
O    0.902539  0.292302  2.787143
H    0.592051  -0.611030  0.226597
H    -1.104991  -1.082602  0.498582
H    0.210644  -1.889844  1.390750
N    -1.249016  0.778628  2.386421
C    -2.575426  0.880104  1.747916
C    -2.957031  2.347571  2.134326
O    -2.490311  2.758832  3.208113
H    -1.236678  1.509209  3.145921
H    -2.478552  0.729874  0.666346
C    -3.556452  -0.149146  2.375274
C    -4.986844  -0.118211  1.804227
C    -5.861192  -1.294897  2.295658
C    -6.538667  -1.151798  3.660804
N    -7.888240  -0.441622  3.572917
H    -3.562344  0.015990  3.463628
H    -3.130913  -1.151112  2.209441
H    -4.941595  -0.180957  0.707882
H    -5.464992  0.848773  2.029604
H    -5.248971  -2.207187  2.345875
H    -6.625726  -1.524931  1.536769
H    -5.944224  -0.582589  4.386282
H    -6.761902  -2.131821  4.098091
H    -8.328220  -0.359089  4.502061
H    -8.544471  -0.964274  2.973200
H    -7.810272  0.509051  3.186459
N    -3.751474  3.079687  1.344578
C    -4.268694  2.809448  0.004380
H    -3.926101  4.014198  1.717033
H    -5.363038  2.728401  0.017166
H    -3.852063  1.884338  -0.402697
H    -3.990777  3.631506  -0.665975
Pb    2.841148  0.544063  3.585260
