35
Energy: -608357.966198 eV PBE+vdW (tier 2 basis)
C    -1.083751  0.178436  0.041034
C    -0.907384  -0.072108  1.499759
O    0.134916  -0.693747  1.901135
H    -2.031385  0.664711  -0.213051
H    -1.006858  -0.778540  -0.495299
H    -0.252978  0.801898  -0.321281
N    -1.861764  0.349708  2.342307
C    -1.976819  0.191509  3.812870
C    -0.875257  0.981722  4.551885
O    0.340659  0.578441  4.587682
H    -2.617333  0.867616  1.899408
H    -2.927844  0.684404  4.057188
C    -2.060417  -1.278949  4.306196
C    -3.468933  -1.910092  4.396826
C    -4.181788  -2.220419  3.065713
C    -5.227235  -3.339015  3.119655
N    -6.482108  -3.005017  3.922191
H    -1.636734  -1.306964  5.320593
H    -1.413033  -1.914284  3.685125
H    -4.099361  -1.276602  5.042333
H    -3.327722  -2.851906  4.950065
H    -3.447162  -2.584014  2.329947
H    -4.626078  -1.316389  2.618468
H    -4.820498  -4.252626  3.571835
H    -5.583667  -3.587245  2.112839
H    -6.281817  -2.819688  4.915070
H    -7.146211  -3.795090  3.895087
H    -6.978639  -2.185824  3.542235
N    -1.230514  2.073434  5.199272
C    -0.343230  2.936738  5.989559
H    -2.206697  2.360286  5.149786
H    -0.111316  3.846661  5.420319
H    0.577514  2.400097  6.227436
H    -0.861684  3.216982  6.913075
Pb    1.790127  -0.645121  3.400733
