35
Energy: -608356.615437 eV PBE+vdW (tier 2 basis)
C    -0.038757  0.247576  -0.671825
C    0.021737  0.024454  0.795659
O    1.195354  0.008422  1.388819
H    -1.003289  -0.025782  -1.107053
H    0.158961  1.308985  -0.891452
H    0.750308  -0.339027  -1.161650
N    -1.031765  -0.188966  1.567105
C    -2.497560  -0.109739  1.291747
C    -3.120763  -1.330404  0.540181
O    -4.351233  -1.341315  0.426438
H    -0.798516  -0.356195  2.548383
H    -2.934133  -0.195388  2.296875
C    -2.882905  1.287821  0.722735
C    -4.371017  1.551727  0.443213
C    -5.330004  1.486489  1.649297
C    -6.776825  1.232077  1.232843
N    -6.992881  -0.243112  0.901809
H    -2.344950  1.467991  -0.216396
H    -2.507710  2.025738  1.448349
H    -4.702637  0.880861  -0.359711
H    -4.424208  2.562737  0.012744
H    -5.309170  2.437422  2.198756
H    -5.033712  0.718231  2.381206
H    -7.047585  1.801458  0.335444
H    -7.491113  1.485105  2.023662
H    -7.760054  -0.378072  0.230339
H    -7.236961  -0.775155  1.747155
H    -6.122275  -0.671052  0.522156
N    -2.335851  -2.315497  0.085865
C    -2.884675  -3.515919  -0.562857
H    -1.355414  -2.328280  0.337463
H    -2.059809  -4.078540  -1.008224
H    -3.587397  -3.221564  -1.348779
H    -3.406284  -4.148301  0.166449
Pb    3.294423  0.260428  1.787244
