35
Energy: -608357.927973 eV PBE+vdW (tier 2 basis)
C    -1.711276  1.763608  0.106121
C    -1.425119  1.267922  1.480905
O    -0.214364  1.235173  1.890284
H    -2.774274  1.749350  -0.156264
H    -1.153328  1.144826  -0.612818
H    -1.323954  2.787283  0.000545
N    -2.449653  0.859470  2.242935
C    -2.449452  0.215177  3.579646
C    -1.860555  1.175175  4.636331
O    -0.596889  1.243159  4.846825
H    -3.363310  0.934018  1.800238
H    -3.515525  0.105215  3.812441
C    -1.803788  -1.190048  3.577249
C    -2.209801  -2.118189  4.747736
C    -3.591156  -2.782751  4.580980
C    -4.023752  -3.735506  5.700552
N    -3.377511  -5.116221  5.623766
H    -0.710347  -1.094355  3.565047
H    -2.072276  -1.662861  2.621414
H    -2.168261  -1.575431  5.706090
H    -1.426086  -2.888138  4.815155
H    -3.652623  -3.300951  3.609748
H    -4.382683  -2.018389  4.544830
H    -5.102864  -3.923001  5.653561
H    -3.788972  -3.347560  6.699856
H    -3.722593  -5.720802  6.385994
H    -2.352104  -5.085280  5.708344
H    -3.603550  -5.593925  4.738368
N    -2.667078  1.929502  5.358679
C    -4.133572  2.041441  5.305461
H    -2.191306  2.527994  6.038163
H    -4.472725  2.313795  4.299295
H    -4.431251  2.840210  5.990852
H    -4.614266  1.112681  5.636532
Pb    1.234417  1.481559  3.554178
