35
Energy: -608356.021814 eV PBE+vdW (tier 2 basis)
C    -0.998785  0.740351  -0.390206
C    -0.650396  0.445813  1.037697
O    0.350893  -0.195775  1.381318
H    -0.178416  1.309272  -0.848661
H    -1.931932  1.300055  -0.515532
H    -1.069361  -0.209761  -0.937001
N    -1.504331  0.932886  2.002134
C    -1.286818  0.617345  3.420228
C    -2.511956  1.035482  4.224621
O    -3.171625  0.104976  4.883519
H    -2.377639  1.344174  1.688791
H    -1.223342  -0.476854  3.519738
C    0.038013  1.233977  4.011410
C    0.843695  0.290781  4.923290
C    1.488303  -0.972852  4.314144
C    2.878077  -0.864541  3.683804
N    2.924396  -0.124758  2.351372
H    -0.191762  2.139710  4.588217
H    0.624627  1.577103  3.151678
H    0.190978  -0.033397  5.749781
H    1.618272  0.896359  5.418769
H    0.811730  -1.474621  3.606907
H    1.636284  -1.690019  5.134953
H    3.255007  -1.872390  3.475855
H    3.598175  -0.369813  4.347097
H    3.702132  -0.467792  1.771746
H    3.079625  0.882019  2.479321
H    2.027551  -0.240049  1.818758
N    -2.938024  2.273245  4.320594
C    -2.401529  3.508123  3.725244
H    -3.761311  2.413700  4.911282
H    -2.042642  4.161460  4.531951
H    -3.218085  4.019705  3.199460
H    -1.590352  3.290559  3.029318
Pb    -4.423149  -1.330703  5.869255
