35
Energy: -608356.498155 eV PBE+vdW (tier 2 basis)
C    0.900519  -0.171143  0.303196
C    0.552305  0.034065  1.749048
O    1.406540  0.130168  2.641796
H    1.710803  0.515944  0.029977
H    0.060009  -0.036013  -0.386502
H    1.289914  -1.191818  0.172424
N    -0.796343  0.109542  2.032067
C    -1.473696  0.112952  3.327469
C    -2.156562  1.464819  3.617537
O    -3.418522  1.435079  3.997864
H    -1.406710  -0.024933  1.230391
H    -2.315161  -0.590958  3.232037
C    -0.651952  -0.330774  4.571202
C    -0.134995  -1.777415  4.464782
C    0.935238  -2.152698  5.508474
C    2.264784  -1.398331  5.495985
N    3.026013  -1.531418  4.188974
H    -1.321290  -0.249129  5.442047
H    0.168038  0.374911  4.737062
H    0.245362  -1.970597  3.452850
H    -0.976061  -2.473673  4.594619
H    1.133575  -3.232067  5.418701
H    0.532508  -2.023685  6.524721
H    2.918354  -1.788974  6.284809
H    2.152485  -0.320089  5.661369
H    3.115536  -2.514922  3.899947
H    3.980830  -1.158921  4.283838
H    2.545765  -0.987711  3.431504
N    -1.574847  2.632928  3.523674
C    -0.190154  2.970403  3.165409
H    -2.171990  3.439014  3.723334
H    0.128110  3.794233  3.814551
H    -0.160886  3.313435  2.122174
H    0.475844  2.115156  3.297997
Pb    -5.485646  1.436171  4.545289
