35
Energy: -608358.002447 eV PBE+vdW (tier 2 basis)
C    -0.061682  -0.470516  0.032828
C    -0.138300  -0.243981  1.500419
O    0.936834  -0.065999  2.169151
H    0.424547  0.401399  -0.431114
H    -1.038267  -0.628401  -0.436694
H    0.587849  -1.333555  -0.171386
N    -1.337961  -0.209976  2.099995
C    -1.584586  0.137898  3.509570
C    -1.073205  -1.006027  4.423036
O    0.074087  -0.847526  4.983248
H    -2.150487  -0.341924  1.499683
H    -0.920485  0.980298  3.755828
C    -3.042738  0.620083  3.675208
C    -3.444023  1.109258  5.081019
C    -4.931764  1.523564  5.097243
C    -5.533999  1.923988  6.447495
N    -5.321996  3.390220  6.816542
H    -3.740278  -0.164583  3.350333
H    -3.163507  1.448416  2.959511
H    -2.793073  1.947604  5.377770
H    -3.286431  0.312432  5.825647
H    -5.537149  0.669681  4.757189
H    -5.121968  2.314308  4.352821
H    -5.132320  1.338731  7.284152
H    -6.622214  1.791996  6.434959
H    -5.772504  3.606103  7.719834
H    -5.741326  4.020276  6.116190
H    -4.328813  3.643060  6.907907
N    -1.726571  -2.130325  4.643597
C    -3.010899  -2.612289  4.119484
H    -1.235631  -2.771946  5.271364
H    -3.132691  -2.348145  3.065029
H    -3.848357  -2.223943  4.712212
H    -3.012404  -3.703984  4.197533
Pb    2.065120  -0.242965  4.090365
