35
Energy: -608356.314854 eV PBE+vdW (tier 2 basis)
C    0.275544  0.133640  0.203080
C    -0.006904  0.045440  1.656711
O    1.024552  -0.021624  2.480381
H    -0.617735  0.112070  -0.419968
H    0.930020  -0.703155  -0.082089
H    0.823902  1.064803  -0.005953
N    -1.195592  0.012086  2.226886
C    -2.616916  0.160588  1.780650
C    -3.489234  -1.106028  2.070154
O    -4.600077  -0.888906  2.572447
H    -1.139320  -0.069265  3.246088
H    -3.007882  0.875476  2.518281
C    -2.894387  0.763773  0.389151
C    -4.366328  1.229344  0.244447
C    -5.329551  0.163829  -0.321394
C    -6.800808  0.350045  0.035009
N    -7.059819  0.163351  1.533433
H    -2.657846  0.058056  -0.419531
H    -2.242852  1.640472  0.267395
H    -4.376327  2.101727  -0.421752
H    -4.708332  1.607271  1.220388
H    -5.028976  -0.853048  -0.029525
H    -5.277654  0.174751  -1.419635
H    -7.413940  -0.396931  -0.480660
H    -7.181933  1.342432  -0.233236
H    -6.292933  -0.385575  1.982396
H    -7.954009  -0.316655  1.698925
H    -7.113395  1.062094  2.027889
N    -3.073084  -2.340752  1.744753
C    -1.883391  -2.779357  1.019613
H    -3.737836  -3.067166  2.011337
H    -2.084578  -3.773414  0.607886
H    -1.007090  -2.863490  1.677199
H    -1.664120  -2.119998  0.172547
Pb    3.021773  0.129177  3.244367
