35
Energy: -608357.769672 eV PBE+vdW (tier 2 basis)
C    0.204045  -1.026398  -0.068816
C    -0.021479  -0.528303  1.313701
O    0.967433  -0.123599  2.012439
H    0.941685  -1.841083  -0.048346
H    0.650503  -0.217416  -0.666775
H    -0.710390  -1.373682  -0.560918
N    -1.268801  -0.495811  1.817443
C    -1.570068  0.098397  3.122448
C    -0.948169  -0.748748  4.264763
O    0.023873  -0.208308  4.914693
H    -2.027361  -0.791845  1.208354
H    -0.963013  1.014208  3.172192
C    -3.009183  0.651472  3.295148
C    -4.282108  -0.219217  3.291520
C    -5.507264  0.698424  3.522025
C    -6.861016  0.025713  3.775619
N    -7.668751  -0.261632  2.512050
H    -3.103796  1.424137  2.515399
H    -2.980531  1.208688  4.244498
H    -4.247152  -0.958995  4.102832
H    -4.382913  -0.777845  2.345908
H    -5.599265  1.437973  2.709618
H    -5.315532  1.299202  4.423850
H    -7.504682  0.680179  4.374906
H    -6.771223  -0.931424  4.304237
H    -8.579608  -0.684027  2.752052
H    -7.196536  -0.910981  1.868827
H    -7.870674  0.603886  1.989195
N    -1.309763  -1.973621  4.590777
C    -2.283516  -2.885300  3.991495
H    -0.774602  -2.361984  5.372828
H    -1.778266  -3.832198  3.763657
H    -2.692740  -2.472529  3.068826
H    -3.092628  -3.089211  4.703581
Pb    1.937235  0.523556  3.953605
