35
Energy: -608357.788217 eV PBE+vdW (tier 2 basis)
C    1.129992  -0.090710  0.588666
C    0.628960  -0.012177  1.988331
O    1.428508  0.317074  2.927465
H    1.589287  0.871630  0.319647
H    0.353251  -0.341390  -0.141413
H    1.932087  -0.841388  0.533263
N    -0.664453  -0.273596  2.239049
C    -1.309538  -0.195118  3.559544
C    -0.779075  -1.336686  4.471934
O    0.155243  -1.042382  5.308690
H    -1.235699  -0.561856  1.447654
H    -0.931267  0.715488  4.047427
C    -2.849711  -0.094821  3.481252
C    -3.479047  1.297243  3.233901
C    -3.470602  1.816741  1.779642
C    -4.670055  2.680119  1.376723
N    -4.740550  4.040390  2.065121
H    -3.231130  -0.446308  4.450768
H    -3.240677  -0.805566  2.738198
H    -3.025074  2.031238  3.918363
H    -4.525033  1.191432  3.561894
H    -3.529504  0.965179  1.082952
H    -2.531111  2.336826  1.535122
H    -5.620986  2.182384  1.606140
H    -4.650468  2.897718  0.302146
H    -5.565690  4.566570  1.736291
H    -3.914859  4.621541  1.859919
H    -4.825825  3.962969  3.088345
N    -1.220798  -2.577413  4.448101
C    -2.244124  -3.227475  3.618931
H    -0.770741  -3.182104  5.140685
H    -3.238138  -3.118679  4.070490
H    -2.000730  -4.293520  3.568138
H    -2.240973  -2.828316  2.600863
Pb    2.098776  0.051764  5.064242
