35
Energy: -608356.917008 eV PBE+vdW (tier 2 basis)
C    0.286135  -0.525509  -0.794303
C    0.195919  0.193473  0.502515
O    1.317380  0.712884  0.993232
H    0.988960  -1.366012  -0.700155
H    0.691062  0.148243  -1.563063
H    -0.680197  -0.908010  -1.131237
N    -0.885041  0.356372  1.205999
C    -2.310543  0.155201  0.889090
C    -2.916340  1.404817  1.623940
O    -2.197585  1.924309  2.499379
H    -0.914175  1.020219  2.049699
H    -2.466367  0.202728  -0.196209
C    -2.921076  -1.137674  1.486356
C    -2.500045  -2.451212  0.807101
C    -3.423339  -3.658431  1.093968
C    -3.393798  -4.168167  2.534135
N    -4.256260  -5.416112  2.684926
H    -4.011908  -1.022066  1.397956
H    -2.702573  -1.149156  2.564780
H    -1.461875  -2.709341  1.068401
H    -2.519855  -2.318183  -0.284934
H    -3.117598  -4.473895  0.419911
H    -4.456466  -3.393863  0.815881
H    -3.789350  -3.444402  3.257100
H    -2.384634  -4.460733  2.850649
H    -4.241450  -5.772399  3.652529
H    -3.931016  -6.180020  2.073304
H    -5.241480  -5.232729  2.442654
N    -4.137750  1.840236  1.318980
C    -5.076214  1.358180  0.308400
H    -4.440379  2.634430  1.884533
H    -5.526419  2.218920  -0.198728
H    -5.880833  0.767735  0.767341
H    -4.567405  0.753776  -0.449047
Pb    3.049777  1.814401  1.472458
