35
Energy: -608356.997074 eV PBE+vdW (tier 2 basis)
C    -0.368780  -1.389781  0.607075
C    -0.084304  -0.209818  1.464448
O    1.162502  -0.039080  1.889991
H    -0.062907  -2.307467  1.129456
H    -1.424984  -1.472838  0.337735
H    0.227444  -1.327365  -0.315381
N    -0.963226  0.674273  1.834560
C    -2.352227  0.894646  1.392376
C    -2.460950  2.442757  1.592353
O    -1.610319  2.966393  2.334239
H    -0.704872  1.564805  2.362755
H    -2.441592  0.624801  0.332477
C    -3.417293  0.115644  2.211274
C    -3.555533  0.536465  3.683932
C    -4.590744  -0.265854  4.505395
C    -6.044504  0.108222  4.214970
N    -6.995554  -0.585128  5.183531
H    -3.181326  -0.957795  2.143664
H    -4.366624  0.247840  1.671841
H    -3.789858  1.609784  3.754660
H    -2.587968  0.415237  4.191311
H    -4.383506  -0.071481  5.569258
H    -4.442820  -1.346491  4.348573
H    -6.376414  -0.185519  3.211754
H    -6.223110  1.183632  4.341217
H    -6.795543  -0.325961  6.161379
H    -6.928142  -1.611749  5.120703
H    -7.977413  -0.331466  4.996188
N    -3.443012  3.124946  0.999417
C    -4.461185  2.663691  0.057831
H    -3.429930  4.122954  1.211905
H    -4.601325  3.428750  -0.713559
H    -5.424985  2.500263  0.558726
H    -4.151223  1.741436  -0.443929
Pb    3.248116  0.155753  2.137435
