35
Energy: -608357.608838 eV PBE+vdW (tier 2 basis)
C    0.340138  0.155034  0.247182
C    0.057478  0.007795  1.694140
O    1.017066  -0.200853  2.518033
H    1.047356  0.976396  0.063453
H    -0.556873  0.266412  -0.368021
H    0.867398  -0.761704  -0.069926
N    -1.202663  0.056599  2.187555
C    -2.156419  1.134678  1.891323
C    -1.505668  2.426245  2.456003
O    -0.659343  2.332632  3.424122
H    -1.272968  -0.290278  3.146194
H    -2.267853  1.223240  0.802390
C    -3.519129  0.756002  2.534896
C    -4.757414  1.560216  2.102254
C    -6.053105  0.926373  2.658790
C    -7.300527  1.684719  2.201546
N    -8.578460  1.040816  2.722525
H    -3.414075  0.792981  3.631431
H    -3.671583  -0.300880  2.267718
H    -4.816946  1.587090  1.003102
H    -4.685513  2.602005  2.448630
H    -6.011904  0.908201  3.759586
H    -6.115215  -0.120763  2.321625
H    -7.397559  1.700727  1.108681
H    -7.315930  2.719680  2.565435
H    -9.411904  1.561122  2.407136
H    -8.608379  1.017752  3.752852
H    -8.684928  0.070333  2.390674
N    -1.778334  3.621205  1.969586
C    -2.624416  4.019560  0.840316
H    -1.289873  4.386458  2.442444
H    -3.493350  4.580832  1.204806
H    -2.961686  3.150365  0.271845
H    -2.039929  4.672030  0.180643
Pb    1.214273  1.271297  4.235774
