35
Energy: -608357.154808 eV PBE+vdW (tier 2 basis)
C    0.317316  -0.438009  1.227520
C    -1.122073  -0.753120  1.396027
O    -1.633826  -1.682595  0.672851
H    0.706046  0.239681  1.987882
H    0.524241  -0.065951  0.214258
H    0.854336  -1.398271  1.305958
N    -1.910452  -0.182565  2.334836
C    -2.188178  1.247619  2.576939
C    -3.108719  1.700127  1.408171
O    -3.217223  0.979396  0.349086
H    -2.744712  -0.748556  2.504660
H    -2.820885  1.235322  3.477650
C    -0.996261  2.190262  2.934013
C    -0.286916  2.975900  1.815599
C    0.600517  4.141238  2.319424
C    1.881882  3.716555  3.041014
N    2.745308  4.924048  3.385391
H    -0.295914  1.578498  3.520657
H    -1.403103  2.915343  3.652771
H    -1.036903  3.435475  1.154978
H    0.310136  2.318197  1.169002
H    0.005377  4.794850  2.977827
H    0.871532  4.746327  1.440424
H    2.511372  3.068881  2.417467
H    1.693032  3.206847  3.993838
H    3.025587  5.448692  2.542452
H    2.255417  5.585919  4.006436
H    3.612379  4.641552  3.868464
N    -3.818182  2.808785  1.500766
C    -3.927741  3.751042  2.620594
H    -4.387606  3.017931  0.677415
H    -4.914637  4.221989  2.570415
H    -3.164342  4.536027  2.546437
H    -3.845395  3.232053  3.581401
Pb    -3.367637  -1.090189  -0.651696
