35
Energy: -608355.989433 eV PBE+vdW (tier 2 basis)
C    -0.052322  -0.604733  -0.444097
C    -0.095172  0.295884  0.761340
O    0.237830  1.465204  0.723102
H    -0.596381  -0.136204  -1.273272
H    -0.436405  -1.617604  -0.282977
H    0.996526  -0.672492  -0.768780
N    -0.452810  -0.242075  2.027812
C    -1.537917  -1.181725  2.301420
C    -0.994891  -2.625135  2.336937
O    -1.802473  -3.631362  2.482305
H    -0.328067  0.471932  2.746438
H    -1.817853  -1.011063  3.357631
C    -2.836594  -1.010326  1.472234
C    -3.641158  0.280158  1.758565
C    -3.163128  1.582428  1.079542
C    -4.197768  2.694251  1.264717
N    -3.756687  3.996595  0.609597
H    -3.489731  -1.858229  1.719132
H    -2.617469  -1.098346  0.399115
H    -3.716394  0.434149  2.846908
H    -4.667432  0.075544  1.418943
H    -3.010239  1.400861  0.003261
H    -2.197495  1.915794  1.486581
H    -4.366259  2.931810  2.322722
H    -5.164689  2.441496  0.811732
H    -4.457365  4.740042  0.752785
H    -3.629909  3.891646  -0.407848
H    -2.864533  4.340140  0.995238
N    0.302429  -2.797976  2.288037
C    1.009141  -4.066219  2.401427
H    0.827054  -1.916297  2.203350
H    0.715259  -4.749389  1.590117
H    0.831521  -4.523779  3.388804
H    2.085237  -3.885651  2.313436
Pb    -2.243911  -5.709184  2.928948
