35
Energy: -608356.646008 eV PBE+vdW (tier 2 basis)
C    0.174821  1.452962  1.284253
C    0.142171  0.280777  2.201371
O    1.286684  -0.082221  2.757729
H    -0.782055  1.636786  0.794616
H    0.936316  1.308208  0.510678
H    0.439012  2.340983  1.881633
N    -0.957022  -0.231147  2.765968
C    -2.160723  -0.556818  1.991935
C    -1.595870  -1.324265  0.738332
O    -0.420582  -1.096048  0.405017
H    -0.760294  -0.881538  3.527013
H    -2.705729  -1.269516  2.620669
C    -3.114691  0.658458  1.704490
C    -3.535817  0.906034  0.244879
C    -4.377856  2.184582  0.023234
C    -5.821990  2.077731  0.515878
N    -6.638532  3.295116  0.098734
H    -2.626283  1.559262  2.100786
H    -4.001033  0.509525  2.335753
H    -4.090685  0.044827  -0.153761
H    -2.644251  0.998937  -0.392880
H    -4.387335  2.383319  -1.059820
H    -3.884179  3.048346  0.497195
H    -5.905153  2.024320  1.608001
H    -6.339089  1.210969  0.084992
H    -6.667441  3.400108  -0.926711
H    -6.251034  4.169281  0.483501
H    -7.614371  3.224399  0.425038
N    -2.379147  -2.196627  0.100702
C    -3.714946  -2.682925  0.445705
H    -1.924411  -2.654096  -0.689930
H    -3.664459  -3.727849  0.777986
H    -4.365668  -2.630021  -0.435401
H    -4.161918  -2.084098  1.244211
Pb    3.351453  -0.509984  2.886312
