35
Energy: -608356.851489 eV PBE+vdW (tier 2 basis)
C    0.665994  -0.223835  0.673326
C    0.101728  0.196395  1.983737
O    0.958837  0.424477  2.966568
H    1.287934  0.604123  0.294838
H    1.297051  -1.110540  0.799021
H    -0.097908  -0.446800  -0.071250
N    -1.136408  0.652131  2.190718
C    -2.336257  -0.010937  1.666612
C    -2.119055  -1.530089  2.028624
O    -0.958048  -1.929091  2.193355
H    -1.264532  1.076539  3.109863
H    -3.166013  0.402129  2.257001
C    -2.642804  0.235203  0.161818
C    -4.147494  0.209964  -0.167811
C    -4.431368  0.575955  -1.639701
C    -5.930929  0.561293  -1.936626
N    -6.227780  0.929016  -3.384625
H    -2.123369  -0.505551  -0.461445
H    -2.233958  1.223003  -0.095354
H    -4.678074  0.915968  0.490719
H    -4.561702  -0.790295  0.033607
H    -3.913413  -0.134473  -2.303946
H    -4.021371  1.576281  -1.853010
H    -6.481245  1.286444  -1.324195
H    -6.375861  -0.429632  -1.781823
H    -7.242072  0.915492  -3.571809
H    -5.787618  0.272548  -4.046273
H    -5.888477  1.873864  -3.618129
N    -3.208100  -2.296249  2.109022
C    -3.161432  -3.731893  2.413596
H    -4.120230  -1.852743  2.079556
H    -3.165419  -3.899209  3.498236
H    -2.251845  -4.161926  1.985228
H    -4.037856  -4.215675  1.972265
Pb    2.703963  0.096524  4.113338
