35
Energy: -608356.914820 eV PBE+vdW (tier 2 basis)
C    -0.447107  -0.952175  -0.383917
C    0.390755  -0.527701  0.764401
O    1.482898  -1.207911  1.046385
H    -1.429455  -0.472390  -0.396353
H    -0.588905  -2.040729  -0.352587
H    0.071803  -0.693034  -1.319594
N    0.091117  0.473975  1.563642
C    -0.912134  1.529522  1.325621
C    -0.650808  2.119884  -0.110230
O    0.477352  2.062093  -0.588635
H    0.772695  0.665036  2.300708
H    -1.912314  1.070003  1.370706
C    -0.756720  2.577327  2.453008
C    -1.827073  3.684777  2.502867
C    -1.698701  4.502266  3.804468
C    -2.790873  5.534403  4.083149
N    -2.615236  6.843420  3.316283
H    0.242625  3.033167  2.364754
H    -0.784365  2.032635  3.410916
H    -2.831393  3.232210  2.465869
H    -1.732401  4.330607  1.615983
H    -0.706534  4.978656  3.871368
H    -1.740960  3.811816  4.660607
H    -2.789280  5.822251  5.141068
H    -3.794246  5.167688  3.832158
H    -3.363768  7.511276  3.556819
H    -2.642471  6.712570  2.296320
H    -1.719759  7.297824  3.548449
N    -1.729100  2.664919  -0.703229
C    -1.679690  3.291524  -2.027965
H    -2.637496  2.563441  -0.261463
H    -2.278150  4.208727  -2.024999
H    -2.075441  2.612127  -2.793809
H    -0.639799  3.532350  -2.264180
Pb    3.082202  -2.581565  0.742035
