35
Energy: -608357.820950 eV PBE+vdW (tier 2 basis)
C    0.488967  -0.361610  0.507310
C    0.317227  0.243347  1.858473
O    1.004525  1.279853  2.173420
H    1.550970  -0.563425  0.313854
H    0.175998  0.385815  -0.239514
H    -0.092328  -1.276927  0.354128
N    -0.570197  -0.307731  2.695645
C    -1.189606  0.191570  3.940317
C    -0.222525  0.851876  4.921085
O    1.035079  0.581477  4.928160
H    -1.070590  -1.099575  2.295415
H    -1.924722  0.958330  3.644980
C    -1.995559  -0.969251  4.603115
C    -1.163348  -2.131103  5.176529
C    -1.953829  -3.429918  5.465044
C    -2.894112  -3.362555  6.669999
N    -3.510960  -4.725680  6.959707
H    -2.690036  -1.336189  3.829186
H    -2.637438  -0.521713  5.373874
H    -0.635848  -1.810070  6.088177
H    -0.373537  -2.407725  4.462859
H    -1.212647  -4.225295  5.639070
H    -2.520824  -3.723186  4.566713
H    -3.739858  -2.679845  6.522109
H    -2.367050  -3.072107  7.587761
H    -4.140804  -4.688441  7.776006
H    -2.790988  -5.435386  7.164693
H    -4.065827  -5.076260  6.164312
N    -0.705026  1.692501  5.822739
C    -2.069832  2.193012  6.033713
H    -0.010294  2.020389  6.496991
H    -2.002433  3.232518  6.372357
H    -2.579142  1.607676  6.809942
H    -2.651732  2.168065  5.107740
Pb    2.639571  1.561120  3.653487
