35
Energy: -608357.501162 eV PBE+vdW (tier 2 basis)
C    -0.799902  2.047536  0.449942
C    -0.658297  0.862348  1.331318
O    0.509145  0.435100  1.640778
H    -1.825851  2.231667  0.120130
H    -0.161402  1.879349  -0.432295
H    -0.393373  2.946371  0.937891
N    -1.733694  0.194708  1.811383
C    -2.862784  0.862092  2.468830
C    -2.298673  1.478197  3.790310
O    -1.124422  1.170058  4.205418
H    -1.489247  -0.698942  2.243808
H    -3.211277  1.686741  1.829324
C    -4.008192  -0.138666  2.750888
C    -4.736368  -0.756342  1.536588
C    -5.693800  0.194275  0.782613
C    -6.969726  -0.440150  0.223078
N    -6.748646  -1.386954  -0.953560
H    -4.748514  0.360409  3.393474
H    -3.598776  -0.955230  3.367342
H    -5.313467  -1.597904  1.950348
H    -4.002996  -1.203820  0.848049
H    -5.173795  0.751082  -0.012696
H    -6.073097  0.962073  1.475673
H    -7.654369  0.331079  -0.149755
H    -7.499919  -1.028297  0.983074
H    -6.309467  -0.910021  -1.754515
H    -7.650485  -1.762866  -1.286806
H    -6.161186  -2.195812  -0.707303
N    -3.050920  2.310875  4.477204
C    -2.673682  2.953880  5.746124
H    -3.967228  2.548053  4.101265
H    -3.586037  3.302095  6.238106
H    -2.018247  3.813578  5.555874
H    -2.162514  2.232337  6.390559
Pb    1.029580  0.469120  3.851461
