35
Energy: -608356.592503 eV PBE+vdW (tier 2 basis)
C    1.385889  -0.551174  0.815518
C    0.644209  0.357832  1.733977
O    1.255880  1.374805  2.287822
H    1.750439  0.018470  -0.053353
H    0.770310  -1.377139  0.442381
H    2.258736  -0.978013  1.331995
N    -0.635118  0.141645  1.992195
C    -1.572524  0.945978  2.789478
C    -2.106580  0.231715  4.071588
O    -3.041690  0.784383  4.664362
H    -1.048584  -0.635228  1.471851
H    -1.006719  1.810835  3.161276
C    -2.728845  1.473601  1.904710
C    -3.710071  0.466207  1.272767
C    -4.838539  -0.132123  2.139305
C    -5.827661  0.897687  2.722181
N    -5.801182  0.915284  4.238981
H    -3.262250  2.201695  2.531954
H    -2.268193  2.063936  1.099963
H    -3.171609  -0.373044  0.800701
H    -4.177750  0.984502  0.422725
H    -4.432664  -0.760678  2.945599
H    -5.402137  -0.823366  1.499845
H    -5.602469  1.922527  2.403206
H    -6.861210  0.684712  2.429457
H    -4.811624  0.970462  4.574977
H    -6.335100  1.709008  4.618572
H    -6.219668  0.059935  4.628239
N    -1.515089  -0.890864  4.493008
C    -1.911792  -1.597490  5.718843
H    -0.751857  -1.284154  3.953993
H    -2.217186  -0.869704  6.476496
H    -1.056108  -2.170189  6.088026
H    -2.741594  -2.287590  5.519428
Pb    3.018918  2.613279  2.489336
