35
Energy: -608357.003900 eV PBE+vdW (tier 2 basis)
C    0.908024  -0.726473  2.727124
C    0.281100  0.554140  2.310129
O    0.937841  1.680519  2.547772
H    1.124185  -0.696492  3.804701
H    0.277184  -1.594705  2.519288
H    1.867384  -0.854153  2.204285
N    -0.875999  0.656316  1.718914
C    -1.820003  -0.369628  1.235607
C    -2.505659  0.400619  0.063409
O    -2.617746  1.625247  0.191050
H    -1.263663  1.585382  1.423057
H    -1.267597  -1.251413  0.884211
C    -2.815392  -0.746149  2.368106
C    -3.957116  -1.722132  1.989590
C    -5.276062  -1.029376  1.599468
C    -6.426409  -1.953176  1.200317
N    -7.070853  -2.675432  2.381917
H    -3.237659  0.186217  2.771729
H    -2.220251  -1.191758  3.177286
H    -4.115787  -2.369737  2.865619
H    -3.635930  -2.399672  1.182441
H    -5.117706  -0.376251  0.729179
H    -5.606042  -0.354704  2.406508
H    -6.113918  -2.741004  0.503037
H    -7.239234  -1.384945  0.733052
H    -7.859629  -3.261131  2.067629
H    -7.446264  -2.008866  3.072573
H    -6.412642  -3.295532  2.873371
N    -2.941706  -0.320008  -0.978098
C    -3.578002  0.282500  -2.155238
H    -2.682638  -1.300479  -1.032718
H    -4.377393  -0.374663  -2.513625
H    -2.845877  0.423623  -2.960564
H    -3.991460  1.255173  -1.874930
Pb    2.309877  3.235611  2.953084
