35
Energy: -608356.726435 eV PBE+vdW (tier 2 basis)
C    0.526229  1.258115  1.577478
C    -0.216759  0.061821  2.130329
O    0.454573  -0.564198  3.151306
H    0.629633  2.006621  2.372612
H    1.516355  0.964623  1.209614
H    -0.021823  1.718274  0.748535
N    -1.602891  0.243266  2.448430
C    -2.444105  -0.149802  1.305925
C    -1.505000  -1.060491  0.518328
O    -0.270717  -0.982402  0.922686
H    -1.833727  -0.290328  3.286267
H    -3.297747  -0.737767  1.676454
C    -2.985726  1.029934  0.457807
C    -4.128272  1.806127  1.139572
C    -4.683144  2.904082  0.209779
C    -6.022427  3.528497  0.597191
N    -5.932343  4.530863  1.745656
H    -3.351628  0.632705  -0.500674
H    -2.158025  1.709203  0.209333
H    -3.763828  2.227754  2.089836
H    -4.938431  1.102749  1.392902
H    -4.863645  2.469686  -0.785873
H    -3.933571  3.694638  0.041419
H    -6.761440  2.779294  0.908318
H    -6.442731  4.093477  -0.243268
H    -6.857709  4.939919  1.946700
H    -5.300989  5.311761  1.514610
H    -5.594585  4.102068  2.617574
N    -1.810013  -1.860215  -0.468385
C    -3.138983  -2.141656  -1.025750
H    -1.027685  -2.361440  -0.896028
H    -3.242685  -3.226133  -1.143195
H    -3.240716  -1.666510  -2.009332
H    -3.922600  -1.784305  -0.352723
Pb    2.106730  -1.266477  4.200520
