35
Energy: -608355.898321 eV PBE+vdW (tier 2 basis)
C    0.440318  -0.119561  0.867639
C    -0.161888  -1.023199  1.904040
O    0.364102  -2.075573  2.261308
H    0.128840  0.926203  0.965151
H    0.194758  -0.476983  -0.143641
H    1.531039  -0.176167  0.963445
N    -1.363082  -0.650412  2.523904
C    -2.488606  -0.075470  1.804386
C    -3.127371  1.125162  2.525612
O    -3.473725  2.154939  1.786507
H    -1.608845  -1.341716  3.231508
H    -2.095474  0.352550  0.872868
C    -3.570630  -1.134028  1.419526
C    -2.992273  -2.283347  0.557414
C    -2.439136  -3.492444  1.347270
C    -1.390753  -4.297117  0.559749
N    -0.294707  -4.805535  1.477682
H    -4.365494  -0.621945  0.858444
H    -4.049676  -1.532977  2.326889
H    -2.208939  -1.875314  -0.101573
H    -3.785702  -2.628919  -0.118212
H    -3.266882  -4.147505  1.650528
H    -1.967262  -3.150443  2.277650
H    -0.876924  -3.677481  -0.185172
H    -1.814898  -5.165391  0.043371
H    0.424755  -5.325008  0.954197
H    -0.657209  -5.440670  2.202363
H    0.161156  -3.993062  1.944234
N    -3.364562  1.186208  3.812899
C    -3.125875  0.184592  4.865676
H    -3.767233  2.065267  4.143651
H    -3.411064  -0.815008  4.524620
H    -3.757934  0.447746  5.719403
H    -2.074781  0.208650  5.180246
Pb    -4.120107  3.914332  0.735802
