35
Energy: -608356.228041 eV PBE+vdW (tier 2 basis)
C    0.493602  0.129217  -0.013120
C    0.245485  0.354956  1.447905
O    1.022035  0.963861  2.195171
H    0.615259  1.097931  -0.515787
H    -0.297197  -0.438500  -0.514731
H    1.445962  -0.407490  -0.125640
N    -0.915669  -0.166964  1.977041
C    -1.212289  0.063320  3.395448
C    -2.170951  -1.031767  3.850042
O    -3.454344  -0.793067  4.014519
H    -1.620307  -0.532308  1.343423
H    -0.265112  -0.155410  3.918996
C    -1.580091  1.531971  3.751193
C    -0.557873  2.178036  4.718462
C    -0.306744  3.684089  4.523189
C    0.390960  4.129568  3.237786
N    1.775402  3.526483  3.064472
H    -2.588889  1.595784  4.182825
H    -1.633407  2.083174  2.803625
H    0.396118  1.636483  4.638561
H    -0.886452  2.031733  5.756504
H    0.269631  4.052697  5.385897
H    -1.254928  4.241798  4.560310
H    -0.160999  3.860617  2.328640
H    0.517088  5.218437  3.241074
H    2.301580  4.024450  2.333434
H    1.701421  2.525218  2.771927
H    2.331695  3.589633  3.928013
N    -1.727669  -2.245202  4.083181
C    -0.341029  -2.732766  3.975771
H    -2.420614  -2.937701  4.372816
H    -0.365360  -3.824453  4.037699
H    0.260963  -2.344447  4.808513
H    0.096838  -2.433866  3.017743
Pb    -5.533155  -0.549497  4.451307
