35
Energy: -608355.768180 eV PBE+vdW (tier 2 basis)
C    0.311410  0.292036  0.800414
C    0.016019  -0.415457  2.091840
O    0.821008  -1.175722  2.625171
H    -0.563446  0.542979  0.190303
H    1.012500  -0.298039  0.202448
H    0.826981  1.233529  1.048641
N    -1.183773  -0.146926  2.772578
C    -2.490234  -0.217895  2.124642
C    -3.409913  0.907847  2.662128
O    -4.602344  0.618326  3.127848
H    -1.157739  -0.592743  3.692507
H    -2.346695  0.027043  1.059871
C    -3.132341  -1.630465  2.238472
C    -2.154736  -2.824683  2.178610
C    -1.453150  -3.125835  0.840778
C    -0.417587  -4.253115  0.954184
N    0.958328  -3.775211  1.417132
H    -3.905379  -1.730361  1.461799
H    -3.642494  -1.705269  3.210355
H    -2.743447  -3.712474  2.452191
H    -1.413468  -2.720565  2.985442
H    -0.985573  -2.237278  0.388265
H    -2.198724  -3.458684  0.104444
H    -0.255615  -4.750078  -0.008339
H    -0.739240  -5.016841  1.672532
H    1.476272  -4.531406  1.886005
H    0.921367  -2.953660  2.061193
H    1.533159  -3.482538  0.615963
N    -3.039737  2.166548  2.677712
C    -1.801181  2.783517  2.179447
H    -3.709865  2.816339  3.092216
H    -0.955019  2.493979  2.812991
H    -1.934696  3.868177  2.218475
H    -1.615965  2.486644  1.141982
Pb    -6.623104  0.382616  3.807250
