35
Energy: -608356.146693 eV PBE+vdW (tier 2 basis)
C    -0.052005  -0.108504  0.545440
C    -0.281987  0.045343  2.003164
O    0.774214  0.173849  2.781835
H    0.583429  0.715267  0.190907
H    -0.968362  -0.120047  -0.042985
H    0.497311  -1.045467  0.367003
N    -1.450164  0.062990  2.618385
C    -2.888583  -0.072766  2.252439
C    -3.532415  -1.357916  2.901374
O    -4.568713  -1.163565  3.527717
H    -1.351722  0.186738  3.630011
H    -3.350696  0.724124  2.847712
C    -3.318722  0.113653  0.786507
C    -4.854202  0.037994  0.581116
C    -5.684545  1.128957  1.279955
C    -7.197453  0.918938  1.250769
N    -7.828858  1.118066  -0.125900
H    -2.883383  -0.663870  0.145890
H    -2.945132  1.086035  0.429993
H    -5.211911  -0.952157  0.900760
H    -5.001632  0.079105  -0.509296
H    -5.431760  2.129466  0.892673
H    -5.451577  1.151031  2.354754
H    -7.702391  1.637265  1.907073
H    -7.479156  -0.092561  1.569751
H    -8.852022  0.997437  -0.077187
H    -7.653560  2.065507  -0.491095
H    -7.479912  0.445173  -0.821939
N    -2.986802  -2.578528  2.722171
C    -1.855821  -2.995971  1.901936
H    -3.511362  -3.315877  3.192270
H    -1.953483  -4.068556  1.706897
H    -0.893687  -2.839520  2.411492
H    -1.850471  -2.494164  0.927333
Pb    2.769545  0.511778  3.492678
