35
Energy: -608356.512639 eV PBE+vdW (tier 2 basis)
C    -0.143909  0.514167  0.987950
C    -0.187630  -0.296982  2.227387
O    0.805711  -0.204516  3.089734
H    -0.146088  1.582525  1.252179
H    -0.968721  0.290967  0.304774
H    0.798439  0.306831  0.459274
N    -1.158056  -1.131557  2.551364
C    -2.441302  -1.464322  1.866965
C    -2.156442  -2.105605  0.462803
O    -2.191238  -1.382454  -0.534384
H    -1.010605  -1.621011  3.436050
H    -2.883196  -2.222285  2.526394
C    -3.407129  -0.267516  1.760074
C    -4.899069  -0.663189  1.689437
C    -5.407199  -1.407413  0.437622
C    -5.515695  -0.606046  -0.859553
N    -6.786121  0.240915  -0.911534
H    -3.118448  0.345384  0.895739
H    -3.279221  0.352260  2.658640
H    -5.477065  0.262475  1.844033
H    -5.143760  -1.281661  2.566060
H    -6.388028  -1.852867  0.669747
H    -4.769948  -2.272168  0.208290
H    -5.575059  -1.268053  -1.730926
H    -4.676181  0.081551  -1.016249
H    -7.630060  -0.349048  -0.858691
H    -6.844446  0.773850  -1.792057
H    -6.839922  0.919785  -0.139603
N    -1.899523  -3.425295  0.425192
C    -1.869541  -4.389396  1.527026
H    -1.726952  -3.784026  -0.513144
H    -2.844451  -4.478934  2.024226
H    -1.623471  -5.370295  1.109806
H    -1.093549  -4.146976  2.265508
Pb    2.656663  0.418621  3.962887
