35
Energy: -608356.637517 eV PBE+vdW (tier 2 basis)
C    0.213430  -0.185520  0.631013
C    -0.213839  -0.650080  1.972058
O    0.681714  -1.180648  2.783431
H    0.745367  -1.000320  0.118780
H    0.922566  0.648728  0.746171
H    -0.624168  0.134685  0.004508
N    -1.447695  -0.578261  2.430035
C    -2.673508  0.051490  1.844702
C    -3.083510  -0.625364  0.497189
O    -2.863174  -0.037972  -0.575603
H    -1.571723  -0.947175  3.375049
H    -3.447411  -0.184033  2.587936
C    -2.546371  1.582652  1.734169
C    -3.888753  2.344270  1.758852
C    -4.824969  2.231459  0.541557
C    -4.265281  2.862432  -0.746650
N    -4.423617  1.932543  -1.933551
H    -1.962336  1.831928  0.837330
H    -1.964874  1.929153  2.600224
H    -3.646021  3.405394  1.918855
H    -4.456252  2.047592  2.653725
H    -5.769089  2.727881  0.800283
H    -5.096994  1.180514  0.359136
H    -3.190534  3.066875  -0.681559
H    -4.770206  3.800177  -1.002804
H    -4.040431  2.345497  -2.795190
H    -3.914336  1.046613  -1.728275
H    -5.412620  1.714477  -2.116581
N    -3.687406  -1.819827  0.566280
C    -4.061307  -2.596948  1.751117
H    -3.930246  -2.217291  -0.340670
H    -4.599800  -3.487748  1.414985
H    -4.734197  -2.034534  2.411404
H    -3.180882  -2.937365  2.312091
Pb    2.542983  -1.831677  3.612786
