35
Energy: -608357.564899 eV PBE+vdW (tier 2 basis)
C    -1.372387  2.417249  -1.231433
C    -0.304224  1.802400  -0.406870
O    0.926438  2.046243  -0.670917
H    -1.131819  2.205096  -2.286349
H    -1.354325  3.513735  -1.142392
H    -2.372988  2.034497  -1.012862
N    -0.582091  0.957366  0.613180
C    -1.553335  1.259727  1.668854
C    -0.904253  2.383129  2.541103
O    0.306771  2.753091  2.337721
H    0.241139  0.455952  0.953228
H    -2.453847  1.683735  1.199046
C    -1.925532  -0.011904  2.468806
C    -2.635956  -1.090122  1.624734
C    -2.786875  -2.449267  2.350483
C    -4.018525  -2.652981  3.242041
N    -5.192058  -3.281205  2.493041
H    -2.550344  0.286633  3.323742
H    -1.004801  -0.430273  2.908366
H    -2.051214  -1.266294  0.710854
H    -3.612865  -0.710512  1.282024
H    -1.906667  -2.621517  2.986513
H    -2.743137  -3.261188  1.608080
H    -4.401792  -1.722187  3.678140
H    -3.803948  -3.346739  4.063003
H    -5.505294  -2.714389  1.692648
H    -6.005872  -3.408165  3.114662
H    -4.944911  -4.214363  2.129456
N    -1.622323  2.955078  3.484295
C    -1.154140  4.032055  4.371864
H    -2.588479  2.654978  3.597575
H    -1.853764  4.116132  5.207741
H    -1.126951  4.985657  3.829163
H    -0.155947  3.793557  4.752190
Pb    2.149122  2.996750  0.985255
