35
Energy: -608356.083148 eV PBE+vdW (tier 2 basis)
C    0.585185  -0.873733  1.538721
C    0.158430  -0.773100  2.975395
O    0.918345  -0.410007  3.864284
H    -0.227355  -1.030478  0.821923
H    1.278316  -1.727374  1.466069
H    1.165832  0.010208  1.250102
N    -1.134037  -1.214726  3.344383
C    -2.382242  -0.798602  2.694626
C    -2.865799  -1.881569  1.709227
O    -3.944752  -1.692102  1.001671
H    -1.203394  -1.259380  4.361815
H    -3.155572  -0.834455  3.484271
C    -2.386017  0.649376  2.133857
C    -2.524084  1.759074  3.203172
C    -1.406175  1.964353  4.247656
C    -0.122398  2.593568  3.695379
N    1.041705  2.351932  4.636465
H    -3.247678  0.752867  1.460165
H    -1.500905  0.800024  1.500981
H    -3.459627  1.592375  3.757974
H    -2.679503  2.703494  2.660156
H    -1.164432  1.018799  4.753195
H    -1.809195  2.622461  5.030929
H    0.188457  2.169776  2.732994
H    -0.222025  3.678057  3.568327
H    0.834165  2.665724  5.595435
H    1.890258  2.849964  4.331492
H    1.254893  1.333260  4.657391
N    -2.211908  -3.011288  1.656813
C    -2.544218  -4.193336  0.864865
H    -1.408094  -3.037830  2.299219
H    -1.730935  -4.918863  0.960944
H    -2.646210  -3.928813  -0.196249
H    -3.465702  -4.661820  1.240730
Pb    -5.733529  -2.001879  -0.151044
