35
Energy: -608356.627644 eV PBE+vdW (tier 2 basis)
C    0.675946  0.498566  0.785029
C    0.313825  -0.192839  2.049986
O    1.259653  -0.669815  2.829005
H    -0.097563  1.192453  0.441000
H    0.837791  -0.251308  -0.007693
H    1.612593  1.053251  0.914606
N    -0.934021  -0.370724  2.439561
C    -2.162398  -0.034942  1.683818
C    -2.683942  1.427238  1.832100
O    -3.172845  1.920221  0.804332
H    -1.058900  -0.857619  3.330279
H    -1.906940  -0.105413  0.620725
C    -3.265932  -1.082766  1.978593
C    -4.511827  -0.934046  1.076728
C    -5.602296  0.011526  1.623836
C    -6.533397  0.615313  0.578466
N    -5.796088  1.573765  -0.363331
H    -3.558474  -1.048324  3.039996
H    -2.820392  -2.072425  1.803230
H    -4.947439  -1.932688  0.942148
H    -4.177106  -0.627730  0.073269
H    -5.172589  0.830938  2.218804
H    -6.244472  -0.542414  2.323601
H    -7.321891  1.202022  1.062106
H    -7.014518  -0.141871  -0.051825
H    -6.384822  2.380725  -0.607127
H    -5.540560  1.118508  -1.247841
H    -4.910010  1.919685  0.067084
N    -2.653071  2.077380  3.005782
C    -2.247910  1.614890  4.332297
H    -3.010317  3.030684  2.945824
H    -2.697734  2.281581  5.074939
H    -1.158752  1.654084  4.469620
H    -2.626131  0.607088  4.543204
Pb    3.216387  -1.304578  3.450103
