35
Energy: -608356.757663 eV PBE+vdW (tier 2 basis)
C    -1.122152  -0.607883  -0.296854
C    -0.627685  0.270118  0.801208
O    0.639624  0.635343  0.828984
H    -0.574009  -1.562391  -0.284889
H    -0.951354  -0.123093  -1.269745
H    -2.190390  -0.831548  -0.208097
N    -1.443545  0.676083  1.740806
C    -1.199151  1.496444  2.938732
C    -2.278850  1.000950  3.931969
O    -3.388111  0.680430  3.447781
H    -2.424069  0.350865  1.718028
H    -0.180275  1.302242  3.292855
C    -1.373565  3.017638  2.645765
C    -2.801393  3.492934  2.308459
C    -3.644059  3.954870  3.521386
C    -5.153933  3.853137  3.307053
N    -5.674868  2.453108  3.632534
H    -0.694059  3.259136  1.816570
H    -0.983112  3.564062  3.516931
H    -3.332783  2.711461  1.743989
H    -2.719875  4.338635  1.612974
H    -3.416328  5.008223  3.733854
H    -3.370988  3.418127  4.443698
H    -5.434935  4.062971  2.268076
H    -5.709457  4.544601  3.949714
H    -4.955242  1.716987  3.446401
H    -5.918510  2.381480  4.629022
H    -6.529722  2.230859  3.105232
N    -2.004219  0.981003  5.235665
C    -0.737579  1.290911  5.909863
H    -2.755497  0.610955  5.817812
H    -0.308665  2.229736  5.542593
H    -0.014941  0.471764  5.798802
H    -0.943356  1.418398  6.976768
Pb    2.587889  0.465826  -0.066234
