35
Energy: -608356.591622 eV PBE+vdW (tier 2 basis)
C    -0.408375  0.120873  -0.183571
C    -0.497405  -0.340746  1.221235
O    0.300050  -1.278379  1.602287
H    -1.059214  0.972644  -0.403609
H    -0.651081  -0.715412  -0.855622
H    0.636712  0.389655  -0.398885
N    -1.377321  0.202516  2.069164
C    -1.411405  0.024882  3.540434
C    -1.842840  -1.420379  3.905519
O    -2.944685  -1.609130  4.609301
H    -2.039352  0.866088  1.672137
H    -0.367817  0.097281  3.889492
C    -2.262551  1.123412  4.193177
C    -1.710259  2.568099  4.153959
C    -0.483193  2.824957  5.055943
C    -0.343026  4.241757  5.616108
N    0.030364  5.300713  4.581344
H    -2.417985  0.838047  5.242947
H    -3.264711  1.112526  3.737230
H    -2.542161  3.206947  4.488012
H    -1.500487  2.873386  3.115946
H    0.456502  2.523722  4.566191
H    -0.555857  2.194832  5.956551
H    0.450601  4.283465  6.371606
H    -1.274174  4.593400  6.078459
H    0.129422  6.224827  5.030160
H    -0.680878  5.401770  3.844100
H    0.930536  5.091385  4.125680
N    -1.058685  -2.366010  3.499387
C    -1.357712  -3.735719  3.789130
H    -0.067815  -1.781786  2.453772
H    -2.331301  -4.063449  3.336435
H    -1.335318  -3.943571  4.890300
H    -0.608992  -4.416824  3.361834
Pb    -3.884819  -3.429323  5.336121
