35
Energy: -608357.422873 eV PBE+vdW (tier 2 basis)
C    -0.515678  0.371331  1.848557
C    -0.872385  -0.468729  3.022119
O    -0.540963  -0.079841  4.196973
H    -1.278866  0.348595  1.065343
H    0.439379  0.027782  1.414581
H    -0.356073  1.401610  2.187815
N    -1.540470  -1.641739  2.909628
C    -1.188696  -2.729492  1.972744
C    0.297104  -3.106822  2.273856
O    0.857602  -2.707800  3.357491
H    -1.864203  -1.984990  3.814407
H    -1.777579  -3.590392  2.327887
C    -1.533181  -2.496578  0.483453
C    -3.005642  -2.134888  0.176878
C    -3.991526  -3.317298  0.238963
C    -5.456805  -2.987740  -0.062783
N    -5.757680  -2.789772  -1.546225
H    -1.288746  -3.420807  -0.063492
H    -0.876006  -1.723947  0.065568
H    -3.001732  -1.695023  -0.832347
H    -3.343877  -1.335117  0.853802
H    -4.009699  -3.747163  1.252317
H    -3.654695  -4.137762  -0.416243
H    -5.793351  -2.071216  0.438127
H    -6.110463  -3.808532  0.254799
H    -6.762267  -2.600569  -1.689427
H    -5.530952  -3.631047  -2.097545
H    -5.243686  -1.998883  -1.958631
N    0.960612  -3.877278  1.439433
C    2.332361  -4.367123  1.653721
H    0.493684  -4.172727  0.585545
H    2.572915  -5.069803  0.851929
H    2.400970  -4.878674  2.620340
H    3.042288  -3.531609  1.626498
Pb    1.011265  -1.382737  5.220412
