35
Energy: -608356.507033 eV PBE+vdW (tier 2 basis)
C    0.093748  -0.438111  -0.217974
C    0.086705  -0.000794  1.201897
O    1.196470  0.471235  1.726833
H    -0.761194  -1.067438  -0.477694
H    1.018288  -0.994302  -0.423409
H    0.091231  0.446703  -0.874772
N    -0.962127  -0.069949  2.006114
C    -2.396871  -0.409451  1.748823
C    -2.716107  -1.929165  1.594326
O    -3.909702  -2.235246  1.501463
H    -0.772600  0.248749  2.958824
H    -2.878185  -0.142060  2.699813
C    -2.983146  0.498921  0.630208
C    -4.479450  0.412423  0.265152
C    -5.538712  0.908042  1.268962
C    -6.003094  -0.010832  2.398279
N    -6.524516  -1.337515  1.882090
H    -2.433476  0.314555  -0.301697
H    -2.754058  1.533513  0.929186
H    -4.715559  -0.590314  -0.113998
H    -4.572017  1.065506  -0.615357
H    -6.428134  1.198350  0.687854
H    -5.207239  1.843237  1.746146
H    -6.819381  0.462517  2.956557
H    -5.213288  -0.270904  3.112720
H    -6.999376  -1.869568  2.623677
H    -5.711452  -1.896933  1.549834
H    -7.198988  -1.213972  1.114600
N    -1.728436  -2.832355  1.588721
C    -1.989287  -4.277397  1.500213
H    -0.785794  -2.542172  1.817063
H    -2.718187  -4.469907  0.706948
H    -2.382721  -4.661129  2.450018
H    -1.051493  -4.786854  1.262241
Pb    3.188269  1.263563  1.925865
