35
Energy: -608356.558650 eV PBE+vdW (tier 2 basis)
C    0.544498  1.848415  1.090453
C    0.410664  0.717827  2.049176
O    1.398025  0.406956  2.852625
H    -0.397351  2.390537  0.944316
H    0.860815  1.462914  0.106486
H    1.306158  2.554249  1.436802
N    -0.684264  -0.020630  2.123355
C    -1.897876  0.142472  1.303096
C    -2.859494  1.286053  1.794396
O    -3.282152  2.026130  0.910926
H    -0.679826  -0.761331  2.827897
H    -1.572980  0.501682  0.320627
C    -2.637442  -1.200563  1.108766
C    -3.777340  -1.100494  0.073567
C    -4.448182  -2.463509  -0.176809
C    -5.387359  -2.535967  -1.379422
N    -6.711806  -1.803181  -1.175987
H    -3.031645  -1.565906  2.069548
H    -1.902393  -1.942805  0.760351
H    -3.366041  -0.715217  -0.872677
H    -4.513328  -0.355372  0.413117
H    -4.966975  -2.821517  0.727504
H    -3.675684  -3.220254  -0.383949
H    -5.661883  -3.575067  -1.595670
H    -4.941761  -2.103664  -2.284132
H    -7.319445  -1.912583  -2.002269
H    -6.584269  -0.792833  -1.027018
H    -7.230705  -2.177074  -0.368178
N    -3.213426  1.392693  3.091718
C    -2.840305  0.579586  4.244301
H    -3.836633  2.180087  3.267193
H    -3.570442  0.761610  5.039471
H    -1.849821  0.845811  4.640999
H    -2.879880  -0.494180  4.021958
Pb    3.395307  0.508408  3.655885
