35
Energy: -608357.841769 eV PBE+vdW (tier 2 basis)
C    0.791520  1.961223  1.774559
C    -0.143543  0.847255  2.108626
O    -0.383821  -0.042404  1.220313
H    0.896292  2.707531  2.568958
H    0.440140  2.453658  0.856237
H    1.782591  1.544975  1.541276
N    -0.698330  0.837780  3.326768
C    -1.718380  -0.005830  3.998364
C    -1.394938  -1.504844  4.059172
O    -1.129470  -2.227588  3.031393
H    -0.391485  1.614516  3.909672
H    -1.644188  0.333359  5.038672
C    -3.196022  0.308202  3.611099
C    -3.685108  0.030841  2.181798
C    -5.211600  0.220635  1.987093
C    -5.692773  1.673007  2.037989
N    -7.178818  1.772559  1.716320
H    -3.338623  1.369353  3.865419
H    -3.816954  -0.255193  4.326543
H    -3.475981  -1.015771  1.915605
H    -3.142180  0.656203  1.457462
H    -5.751709  -0.377514  2.738449
H    -5.471616  -0.203991  1.005153
H    -5.183551  2.303297  1.297868
H    -5.574266  2.133699  3.026113
H    -7.504403  2.751272  1.746980
H    -7.756404  1.240419  2.384762
H    -7.393758  1.411888  0.774206
N    -1.449331  -2.106325  5.233993
C    -1.717030  -1.548877  6.570111
H    -1.272203  -3.112820  5.193600
H    -0.974979  -0.784862  6.833760
H    -1.632189  -2.365706  7.292460
H    -2.732013  -1.138597  6.634325
Pb    -0.324215  -2.243903  0.950934
