35
Energy: -608356.208993 eV PBE+vdW (tier 2 basis)
C    -1.109569  1.486928  1.576134
C    -0.892626  0.321302  2.487156
O    0.209899  -0.000129  2.922408
H    -0.676776  1.275318  0.587088
H    -0.541225  2.337604  1.976971
H    -2.158800  1.778883  1.463565
N    -2.012172  -0.435449  2.910581
C    -2.983897  -0.983023  1.965590
C    -4.414345  -0.748318  2.480751
O    -5.435450  -1.179138  1.792513
H    -1.690312  -1.142532  3.576845
H    -2.926231  -0.416623  1.020637
C    -2.647089  -2.471297  1.684956
C    -1.310725  -2.616741  0.906576
C    -0.379031  -3.755972  1.363646
C    0.381338  -3.600720  2.681821
N    1.445952  -2.514997  2.658945
H    -3.458182  -2.948223  1.119644
H    -2.608722  -2.992582  2.655602
H    -0.758830  -1.665498  0.915027
H    -1.544841  -2.789439  -0.151856
H    0.347285  -3.953530  0.559615
H    -0.950607  -4.692289  1.453288
H    -0.265745  -3.367196  3.537883
H    0.900534  -4.537772  2.915187
H    2.089745  -2.623689  3.455569
H    1.030954  -1.551822  2.735560
H    2.020700  -2.564672  1.806272
N    -4.572528  -0.091497  3.598052
C    -5.828081  0.261967  4.258484
H    -3.680616  0.227499  4.002560
H    -6.331925  1.074649  3.715670
H    -5.602508  0.612236  5.270230
H    -6.481382  -0.616724  4.334204
Pb    -7.365953  -1.521920  0.914883
