35
Energy: -608356.024975 eV PBE+vdW (tier 2 basis)
C    0.432479  0.748910  0.924815
C    -0.398381  0.858109  2.168342
O    -0.074129  1.550693  3.122750
H    0.862758  1.721512  0.662449
H    -0.090532  0.326193  0.060418
H    1.282230  0.087025  1.161115
N    -1.561852  0.042217  2.283846
C    -2.700272  0.182371  1.360823
C    -2.729902  -0.982089  0.357905
O    -3.649254  -1.030394  -0.566814
H    -1.860876  0.035327  3.260521
H    -3.606125  0.009004  1.969837
C    -2.830102  1.600526  0.742644
C    -2.952379  2.679674  1.852960
C    -2.141633  3.964896  1.586825
C    -1.911587  4.818527  2.837941
N    -0.691557  4.364988  3.635238
H    -3.706055  1.632518  0.082520
H    -1.959228  1.798719  0.102385
H    -2.633352  2.249571  2.812646
H    -4.009605  2.943289  1.991864
H    -2.665597  4.595953  0.856150
H    -1.170367  3.730055  1.121311
H    -2.766283  4.780400  3.524459
H    -1.731406  5.869339  2.585674
H    -0.705652  4.749990  4.590297
H    0.177555  4.697030  3.195022
H    -0.606859  3.330050  3.699574
N    -1.854480  -1.940866  0.499060
C    -1.741639  -3.167574  -0.285689
H    -1.225975  -1.783433  1.300836
H    -2.566787  -3.854744  -0.047314
H    -0.801108  -3.663075  -0.026756
H    -1.725749  -2.937069  -1.359208
Pb    -5.067832  -1.725857  -2.021915
