35
Energy: -608357.454526 eV PBE+vdW (tier 2 basis)
C    0.234005  1.684798  1.022706
C    0.240546  0.465682  1.865027
O    1.236692  0.225037  2.635268
H    1.155722  1.659649  0.415950
H    0.315562  2.591634  1.639112
H    -0.623566  1.750604  0.347669
N    -0.768310  -0.437005  1.829605
C    -2.185087  -0.081121  1.968029
C    -2.338221  0.488058  3.410473
O    -1.454049  0.235836  4.305305
H    -0.529263  -1.324279  2.276925
H    -2.424497  0.716403  1.249231
C    -3.051513  -1.336621  1.671739
C    -4.557912  -1.100574  1.456365
C    -5.350707  -2.412114  1.232349
C    -5.325598  -3.034291  -0.171570
N    -6.523374  -2.623430  -1.025165
H    -2.912243  -2.063508  2.488555
H    -2.608805  -1.788334  0.770835
H    -4.714218  -0.398237  0.620652
H    -4.993882  -0.624417  2.346471
H    -6.395868  -2.255856  1.541053
H    -4.977538  -3.178343  1.926858
H    -5.378078  -4.127819  -0.121067
H    -4.435007  -2.767457  -0.753926
H    -6.479415  -3.058825  -1.959841
H    -6.584870  -1.605452  -1.166705
H    -7.410412  -2.927711  -0.595313
N    -3.387224  1.232206  3.696655
C    -3.679169  1.830802  5.008470
H    -4.034356  1.447563  2.940792
H    -4.758520  1.993052  5.081910
H    -3.166982  2.797058  5.105976
H    -3.354159  1.155240  5.804330
Pb    0.772165  -0.027522  4.840679
