35
Energy: -608357.443110 eV PBE+vdW (tier 2 basis)
C    -0.005739  1.252227  0.562259
C    -0.165391  0.036552  1.396322
O    0.783124  -0.825602  1.443611
H    0.767675  1.868986  1.055034
H    -0.909834  1.858260  0.475830
H    0.397896  1.002424  -0.426705
N    -1.269944  -0.193834  2.140980
C    -2.654331  -0.085144  1.635025
C    -2.702023  -0.914481  0.319363
O    -1.837134  -1.839160  0.112568
H    -1.137233  -0.938034  2.826507
H    -3.238995  -0.683333  2.353740
C    -3.271341  1.343845  1.638760
C    -4.751259  1.357289  2.083436
C    -5.449190  2.738026  2.096847
C    -5.103660  3.607729  3.308174
N    -5.987103  4.847682  3.365729
H    -3.160262  1.821658  0.653369
H    -2.665384  1.934889  2.338740
H    -4.834057  0.896913  3.080845
H    -5.352864  0.712301  1.424211
H    -6.533536  2.547470  2.100412
H    -5.232061  3.283775  1.164794
H    -4.070925  3.976848  3.298935
H    -5.274350  3.077078  4.253520
H    -5.759973  5.432576  4.184811
H    -6.986198  4.600998  3.438573
H    -5.880365  5.441270  2.529436
N    -3.661516  -0.705983  -0.556744
C    -3.860258  -1.487014  -1.788427
H    -4.328188  0.037306  -0.366092
H    -3.888149  -2.556544  -1.552819
H    -3.049758  -1.287356  -2.499975
H    -4.811965  -1.187411  -2.234446
Pb    0.212264  -2.810569  0.513621
