35
Energy: -608355.937456 eV PBE+vdW (tier 2 basis)
C    -0.465829  0.510584  -0.065893
C    -0.341810  0.187713  1.391376
O    0.728747  -0.093908  1.946231
H    0.011898  1.482654  -0.258872
H    -1.501035  0.555489  -0.421135
H    0.094102  -0.232782  -0.647255
N    -1.506086  0.212345  2.144613
C    -1.360641  0.117314  3.597505
C    -2.602313  -0.568459  4.158285
O    -2.758691  -1.842299  3.839463
H    -2.308013  0.701486  1.751797
H    -0.572995  -0.647647  3.725794
C    -0.811679  1.408898  4.256518
C    -0.009967  1.180340  5.550461
C    1.304266  0.377401  5.445307
C    2.574682  1.080756  4.966536
N    2.616012  1.404502  3.472237
H    -1.599645  2.148819  4.425929
H    -0.178301  1.865624  3.485225
H    -0.646694  0.666612  6.288923
H    0.198200  2.162617  6.000229
H    1.174493  -0.553316  4.869678
H    1.559583  0.040774  6.461142
H    3.435564  0.427969  5.149686
H    2.753711  2.024278  5.496439
H    3.585034  1.383064  3.125499
H    2.263166  2.349549  3.279455
H    2.048667  0.738420  2.898145
N    -3.522459  -0.051137  4.938011
C    -3.748711  1.321180  5.436935
H    -4.231739  -0.722416  5.240470
H    -4.743554  1.334535  5.891692
H    -3.728477  2.042217  4.614807
H    -3.009818  1.582024  6.203398
Pb    -3.043917  -3.832922  3.139509
