35
Energy: -608356.675165 eV PBE+vdW (tier 2 basis)
C    0.174912  -0.483132  0.421625
C    -0.294218  -0.557823  1.825848
O    0.468284  -1.170121  2.714704
H    -0.436336  0.171716  -0.203779
H    0.163666  -1.495055  -0.013490
H    1.214944  -0.130273  0.404237
N    -1.436137  -0.079638  2.272741
C    -2.565250  0.673793  1.635068
C    -2.832268  0.328896  0.136853
O    -2.563139  1.133135  -0.769650
H    -1.581873  -0.227059  3.275111
H    -3.438530  0.310437  2.198544
C    -2.476667  2.190204  1.891474
C    -1.273648  2.942646  1.292139
C    -1.574648  4.407896  0.913722
C    -2.682229  4.649760  -0.110337
N    -2.452304  3.905883  -1.414467
H    -2.531912  2.366640  2.975496
H    -3.426949  2.579531  1.497264
H    -0.890326  2.414074  0.409264
H    -0.448312  2.958702  2.017562
H    -0.643874  4.877860  0.561775
H    -1.865537  4.977611  1.809180
H    -2.748473  5.716223  -0.355505
H    -3.671391  4.331797  0.241069
H    -2.461562  2.870328  -1.253879
H    -1.554426  4.166995  -1.843428
H    -3.187817  4.129877  -2.098603
N    -3.394688  -0.867443  -0.084790
C    -3.802535  -1.334107  -1.413829
H    -3.702340  -1.418730  0.711927
H    -3.774683  -2.427981  -1.430664
H    -3.118844  -0.930856  -2.166179
H    -4.823386  -1.000132  -1.643081
Pb    2.004585  -2.288886  3.695648
