35
Energy: -608356.770918 eV PBE+vdW (tier 2 basis)
C    0.484742  -0.613028  0.164927
C    0.228887  -0.034121  1.515655
O    1.226628  0.494046  2.200724
H    1.200326  -1.445721  0.247380
H    0.916295  0.154432  -0.494977
H    -0.425067  -0.998049  -0.307469
N    -0.975656  -0.054070  2.020000
C    -1.520591  0.371379  3.318276
C    -2.610749  -0.717004  3.565066
O    -3.259677  -1.073255  2.574988
H    -1.737724  -0.520468  1.487512
H    -0.724892  0.374126  4.074266
C    -2.171006  1.777478  3.175692
C    -2.976633  2.253637  4.406516
C    -4.503349  1.999665  4.385850
C    -5.258248  3.040623  3.558319
N    -6.767269  2.858471  3.668476
H    -2.802194  1.760320  2.274911
H    -1.360173  2.489782  2.971418
H    -2.800196  3.331059  4.535162
H    -2.571755  1.797570  5.320830
H    -4.864018  2.044956  5.425057
H    -4.728727  0.988091  4.014248
H    -5.028116  2.989895  2.486899
H    -5.055987  4.061127  3.907308
H    -7.272644  3.571876  3.121454
H    -7.088128  2.941640  4.644904
H    -7.071743  1.936407  3.323478
N    -2.777149  -1.157173  4.818272
C    -3.746474  -2.193725  5.186832
H    -2.139360  -0.832981  5.539105
H    -3.225238  -3.113554  5.479372
H    -4.381970  -2.401967  4.322011
H    -4.357691  -1.849182  6.029051
Pb    3.354437  0.790714  2.218248
