35
Energy: -608356.339699 eV PBE+vdW (tier 2 basis)
C    0.359606  0.358694  0.834415
C    -0.199973  0.076036  2.179908
O    0.626214  -0.210572  3.165613
H    0.980802  1.266223  0.880550
H    -0.402774  0.495878  0.063817
H    1.012634  -0.471044  0.528387
N    -1.485172  0.098367  2.469611
C    -2.667933  0.292150  1.590349
C    -3.645456  1.294501  2.286321
O    -4.788822  0.933641  2.585434
H    -1.717182  -0.151340  3.435780
H    -2.319131  0.763731  0.662236
C    -3.244094  -1.117385  1.299614
C    -4.660095  -1.339315  0.724398
C    -5.113031  -0.630943  -0.565422
C    -5.697492  0.779262  -0.463209
N    -6.793786  0.871753  0.583356
H    -3.214689  -1.688410  2.240388
H    -2.510830  -1.597324  0.632404
H    -5.393374  -1.204641  1.528535
H    -4.685581  -2.417613  0.509958
H    -5.874227  -1.270704  -1.038034
H    -4.298086  -0.583311  -1.303823
H    -6.141272  1.075955  -1.420826
H    -4.964629  1.546085  -0.184725
H    -6.358646  0.835501  1.529613
H    -7.317653  1.753791  0.503811
H    -7.475205  0.104814  0.493973
N    -3.204980  2.548200  2.513441
C    -1.946912  3.186874  2.134103
H    -3.886246  3.132147  2.998960
H    -2.115368  4.266339  2.065059
H    -1.606603  2.848812  1.147776
H    -1.158477  3.017725  2.881035
Pb    2.397266  -0.751724  4.248795
