35
Energy: -608356.117254 eV PBE+vdW (tier 2 basis)
C    0.240878  0.484879  0.488190
C    -0.088974  0.158156  1.897692
O    0.908395  0.024931  2.749080
H    -0.630794  0.534907  -0.163341
H    0.935514  -0.273330  0.098528
H    0.760632  1.453950  0.453254
N    -1.297639  -0.018858  2.397936
C    -2.702316  0.024734  1.902141
C    -3.393594  -1.389686  1.944719
O    -4.504727  -1.412347  2.463707
H    -1.276917  -0.237987  3.397771
H    -3.216892  0.541377  2.722650
C    -3.016064  0.809582  0.612494
C    -4.524612  1.173975  0.496513
C    -5.384506  0.165468  -0.289095
C    -6.895322  0.317538  -0.126707
N    -7.471916  1.560562  -0.802580
H    -2.700300  0.263239  -0.287392
H    -2.443732  1.747188  0.644054
H    -4.569504  2.161159  0.013085
H    -4.941307  1.306450  1.506823
H    -5.185380  -0.857189  0.059617
H    -5.115613  0.175371  -1.357874
H    -7.192789  0.379834  0.927773
H    -7.422609  -0.529177  -0.581532
H    -8.496331  1.594919  -0.688092
H    -7.095943  2.434209  -0.409662
H    -7.280807  1.565247  -1.815180
N    -2.806671  -2.477677  1.401574
C    -1.591376  -2.599423  0.605291
H    -3.365797  -3.322216  1.518464
H    -1.640891  -3.542174  0.051495
H    -0.686209  -2.632270  1.228859
H    -1.508250  -1.797227  -0.137344
Pb    2.829697  0.122735  3.697222
