35
Energy: -608356.592969 eV PBE+vdW (tier 2 basis)
C    -0.603353  -1.586379  0.419332
C    -0.670138  -0.727984  1.636567
O    0.284233  -0.797436  2.542348
H    -0.592460  -2.647139  0.713480
H    0.319966  -1.370750  -0.139636
H    -1.452418  -1.433574  -0.255456
N    -1.678503  0.092491  1.808577
C    -1.990819  1.040912  2.898078
C    -3.537575  1.004958  2.970370
O    -4.143306  1.240965  1.904201
H    -2.389600  0.118005  1.066228
H    -1.502873  0.697485  3.816269
C    -1.508759  2.459071  2.489822
C    -1.926741  3.629887  3.401283
C    -3.367351  4.180756  3.312388
C    -3.816693  4.667409  1.920285
N    -5.010616  3.883626  1.404100
H    -1.840217  2.635941  1.455502
H    -0.410715  2.425100  2.453208
H    -1.237351  4.454821  3.168579
H    -1.722540  3.382893  4.453999
H    -3.423391  5.028466  4.007269
H    -4.094235  3.455681  3.706549
H    -3.033499  4.559760  1.160408
H    -4.117626  5.720401  1.930983
H    -5.229762  4.127699  0.428388
H    -4.824139  2.852935  1.464991
H    -5.854419  4.087067  1.956818
N    -4.144788  0.745001  4.128834
C    -3.551614  0.443281  5.437004
H    -5.162417  0.705422  4.065745
H    -3.102685  -0.558347  5.453350
H    -4.351851  0.463242  6.182529
H    -2.811947  1.198827  5.725315
Pb    2.145979  -1.737187  3.086420
