35
Energy: -608356.595493 eV PBE+vdW (tier 2 basis)
C    -0.727819  -0.161902  -0.044780
C    -0.582270  -0.342542  1.428093
O    0.574548  -0.714246  1.934148
H    -0.512751  -1.111586  -0.558405
H    -0.013536  0.595796  -0.401401
H    -1.734221  0.157041  -0.336864
N    -1.608449  -0.134226  2.220916
C    -1.741925  -0.236025  3.689126
C    -3.172391  -0.810752  3.909808
O    -4.122013  -0.087493  3.549406
H    -2.474252  0.172036  1.763616
H    -0.947728  -0.887687  4.068214
C    -1.698226  1.174185  4.322135
C    -2.062309  1.184173  5.826744
C    -2.901816  2.399459  6.282559
C    -4.415857  2.210242  6.355822
N    -5.113482  2.112544  5.006310
H    -2.395478  1.802013  3.749976
H    -0.700270  1.605228  4.165267
H    -1.134349  1.163144  6.411350
H    -2.596329  0.261981  6.106626
H    -2.653029  3.295093  5.690988
H    -2.610559  2.656240  7.311125
H    -4.880107  3.057226  6.875099
H    -4.683298  1.295787  6.900600
H    -4.774510  1.298480  4.434225
H    -6.128628  1.999123  5.135936
H    -4.980921  2.972668  4.458435
N    -3.330094  -2.016048  4.457521
C    -2.309239  -2.961563  4.921113
H    -4.304704  -2.305735  4.546981
H    -1.716631  -3.355071  4.085282
H    -2.821707  -3.805931  5.390933
H    -1.655037  -2.508543  5.676044
Pb    2.628929  -1.203926  1.492726
