35
Energy: -608356.930976 eV PBE+vdW (tier 2 basis)
C    -0.316970  -1.665158  1.202855
C    -0.173602  -0.441724  2.034186
O    0.971534  -0.266206  2.684763
H    -1.309368  -1.756813  0.753580
H    -0.121369  -2.554627  1.818270
H    0.434993  -1.655407  0.399725
N    -1.084228  0.475158  2.177768
C    -2.343120  0.706040  1.446171
C    -2.411055  2.268988  1.510167
O    -1.697692  2.818127  2.371259
H    -0.903436  1.396435  2.688462
H    -2.231000  0.357919  0.411489
C    -3.596700  0.039298  2.075381
C    -3.980156  0.529697  3.484436
C    -5.459822  0.322590  3.877687
C    -5.874265  -1.130505  4.101220
N    -7.305970  -1.212872  4.619317
H    -3.448681  -1.051101  2.056855
H    -4.419846  0.241297  1.373373
H    -3.799291  1.611131  3.560545
H    -3.328638  0.068461  4.242230
H    -6.107254  0.779549  3.111601
H    -5.630190  0.887728  4.807549
H    -5.253342  -1.625583  4.858616
H    -5.853769  -1.732800  3.184660
H    -7.978013  -0.798098  3.956718
H    -7.414146  -0.711565  5.514007
H    -7.597163  -2.189009  4.778967
N    -3.219022  2.939347  0.688012
C    -4.053941  2.451123  -0.408024
H    -3.200338  3.949198  0.835490
H    -5.110671  2.405900  -0.112483
H    -3.727956  1.462756  -0.746878
H    -3.962942  3.139463  -1.255623
Pb    2.974375  -0.027382  3.302268
