35
Energy: -608357.970180 eV PBE+vdW (tier 2 basis)
C    -0.237661  0.412718  1.039804
C    -0.207226  -0.602371  2.130413
O    0.245327  -1.769928  1.878284
H    -0.822176  0.009963  0.199347
H    0.782846  0.567089  0.660332
H    -0.657958  1.376993  1.344080
N    -0.672684  -0.254672  3.340296
C    -0.841159  -1.059349  4.574551
C    0.517531  -1.532049  5.126380
O    1.142278  -2.527404  4.608360
H    -0.976908  0.713582  3.410198
H    -1.240296  -0.343047  5.302354
C    -1.845916  -2.230291  4.442498
C    -3.329418  -1.825216  4.274867
C    -4.030884  -1.391260  5.576596
C    -5.498272  -0.970293  5.443998
N    -6.471086  -2.138641  5.308488
H    -1.733386  -2.866014  5.334451
H    -1.558931  -2.855963  3.587206
H    -3.838053  -2.702165  3.845650
H    -3.422189  -1.032013  3.516060
H    -3.530074  -0.509613  6.006066
H    -3.937911  -2.176213  6.345343
H    -5.674764  -0.328472  4.571537
H    -5.827295  -0.426885  6.337528
H    -7.442722  -1.795087  5.248928
H    -6.426762  -2.768694  6.123498
H    -6.302885  -2.705774  4.466014
N    1.045327  -0.944024  6.182169
C    0.549646  0.189528  6.977752
H    1.926237  -1.360336  6.495358
H    0.223048  1.013975  6.334841
H    1.379086  0.551721  7.592564
H    -0.260791  -0.127141  7.646724
Pb    1.545276  -3.433814  2.601715
