35
Energy: -608356.687311 eV PBE+vdW (tier 2 basis)
C    0.009789  0.194470  0.539817
C    0.235593  0.550458  1.968140
O    1.345173  0.217145  2.577775
H    0.904491  -0.258994  0.105270
H    -0.265368  1.076893  -0.055811
H    -0.820958  -0.523206  0.448329
N    -0.666776  1.213508  2.674489
C    -1.962529  1.698910  2.173365
C    -1.849953  3.040966  1.353134
O    -2.384503  3.023607  0.249172
H    -0.411896  1.434622  3.639174
H    -2.296894  0.986799  1.411226
C    -3.033390  1.753177  3.285344
C    -4.406461  2.179092  2.730035
C    -5.530499  2.118176  3.783023
C    -6.861674  2.549769  3.167513
N    -8.003117  2.494954  4.174021
H    -2.724839  2.438177  4.089580
H    -3.105380  0.748315  3.729497
H    -4.669160  1.533333  1.877987
H    -4.342585  3.200598  2.326627
H    -5.283391  2.773374  4.633939
H    -5.617689  1.093140  4.177900
H    -7.162210  1.899645  2.336368
H    -6.832573  3.583659  2.801498
H    -8.892987  2.788161  3.742841
H    -7.836021  3.116204  4.979054
H    -8.143470  1.543404  4.543942
N    -1.237829  4.125727  1.870974
C    -0.548822  4.304822  3.144495
H    -1.237100  4.920027  1.231962
H    -0.469908  5.378931  3.340863
H    0.473027  3.898051  3.127184
H    -1.110299  3.872526  3.981444
Pb    3.268280  -0.735176  2.781553
