35
Energy: -608357.570331 eV PBE+vdW (tier 2 basis)
C    -0.239460  0.228463  0.329812
C    -0.389050  0.335790  1.805547
O    0.608358  0.760703  2.494713
H    -1.178925  0.375698  -0.207365
H    0.176955  -0.756741  0.061942
H    0.495485  0.977066  0.007385
N    -1.529730  0.039902  2.467640
C    -2.317032  -1.202578  2.333446
C    -1.411162  -2.346919  2.880466
O    -0.150571  -2.147353  3.045900
H    -1.504114  0.381229  3.430560
H    -3.145462  -1.083323  3.049241
C    -2.949047  -1.485218  0.949668
C    -3.982324  -0.419863  0.532812
C    -4.711383  -0.776667  -0.780614
C    -5.764769  0.276428  -1.132987
N    -6.514565  -0.067376  -2.413126
H    -3.448747  -2.460904  1.019944
H    -2.172433  -1.612680  0.184498
H    -3.495238  0.562091  0.430388
H    -4.724329  -0.305918  1.339113
H    -5.195049  -1.761144  -0.675813
H    -3.982247  -0.864163  -1.602088
H    -5.322945  1.266667  -1.300358
H    -6.531004  0.369999  -0.353171
H    -7.220121  0.652650  -2.633722
H    -7.013941  -0.966350  -2.339329
H    -5.884542  -0.132332  -3.226516
N    -1.914152  -3.521713  3.204292
C    -3.304503  -3.990260  3.204439
H    -1.219772  -4.200000  3.527275
H    -3.450500  -4.616452  4.091731
H    -3.504002  -4.598686  2.312800
H    -4.004321  -3.151238  3.255254
Pb    1.608291  -0.836871  3.734983
