35
Energy: -608357.462581 eV PBE+vdW (tier 2 basis)
C    -0.240581  -0.964662  0.843726
C    -0.371960  -0.393148  2.204300
O    0.655979  -0.311402  2.967125
H    0.188659  -1.974854  0.962391
H    0.492921  -0.404339  0.246428
H    -1.190113  -1.055559  0.308828
N    -1.563568  0.019132  2.699342
C    -2.452281  0.942307  1.988405
C    -1.778545  2.341295  2.090242
O    -0.785282  2.521795  2.890797
H    -1.537905  0.175299  3.707668
H    -2.445921  0.660755  0.925079
C    -3.920510  0.833876  2.480450
C    -4.204359  1.246639  3.936499
C    -5.557022  0.748347  4.502095
C    -6.796532  1.414987  3.902089
N    -8.062964  0.949478  4.609894
H    -4.193980  -0.221001  2.327201
H    -4.547049  1.412813  1.788843
H    -3.442517  0.825210  4.610363
H    -4.134037  2.339869  4.049581
H    -5.544013  0.935394  5.587051
H    -5.622240  -0.344001  4.372967
H    -6.945355  1.175949  2.842006
H    -6.774474  2.506409  4.014973
H    -8.196370  -0.070245  4.532240
H    -8.903297  1.396582  4.211783
H    -8.045964  1.178153  5.615621
N    -2.185300  3.350684  1.346479
C    -3.232195  3.397076  0.318865
H    -1.670324  4.221567  1.497514
H    -2.888451  4.053940  -0.487559
H    -4.159440  3.812040  0.733921
H    -3.419327  2.404473  -0.100998
Pb    1.182904  1.734839  3.789373
