35
Energy: -608356.828037 eV PBE+vdW (tier 2 basis)
C    0.292616  -2.080373  0.826287
C    0.090664  -1.441058  2.159788
O    1.056749  -1.487952  3.058828
H    0.469606  -3.159679  0.954828
H    1.168784  -1.638091  0.328787
H    -0.572191  -1.959850  0.165448
N    -1.037636  -0.844069  2.431337
C    -1.578241  -0.220954  3.648335
C    -3.056090  -0.740336  3.605111
O    -3.558050  -0.850845  2.481411
H    -1.825161  -0.914047  1.748686
H    -1.016445  -0.558489  4.528729
C    -1.551364  1.328144  3.501097
C    -2.197226  2.068788  4.685151
C    -2.204672  3.611151  4.574129
C    -3.287857  4.156040  3.642370
N    -3.373815  5.675417  3.725220
H    -2.062643  1.570851  2.557282
H    -0.502591  1.642325  3.390232
H    -1.654630  1.816294  5.608030
H    -3.229708  1.719235  4.834712
H    -1.214132  3.975422  4.258320
H    -2.376326  4.009300  5.586326
H    -4.284691  3.786710  3.914556
H    -3.110134  3.923652  2.585451
H    -3.596305  5.990714  4.681550
H    -4.108972  6.045780  3.103992
H    -2.488184  6.127636  3.454419
N    -3.664754  -1.007049  4.766792
C    -5.035745  -1.518575  4.858204
H    -3.133653  -0.923167  5.628706
H    -5.600136  -0.929685  5.590375
H    -5.029244  -2.569137  5.175194
H    -5.505737  -1.440769  3.874415
Pb    2.965579  -2.402993  3.443777
