35
Energy: -608357.860416 eV PBE+vdW (tier 2 basis)
C    -1.836281  1.339492  -0.758841
C    -1.432795  1.042278  0.645338
O    -0.195720  1.087555  0.958328
H    -2.907884  1.215723  -0.947257
H    -1.266474  0.689190  -1.438224
H    -1.546914  2.371858  -1.005803
N    -2.388970  0.720215  1.530613
C    -2.278412  0.335925  2.958409
C    -1.738773  1.504324  3.806914
O    -0.486817  1.793833  3.827031
H    -3.335878  0.756732  1.160671
H    -3.316563  0.174090  3.272401
C    -1.489859  -0.973077  3.229480
C    -2.281129  -2.299361  3.156321
C    -2.729252  -2.771017  1.758497
C    -2.930204  -4.281546  1.600671
N    -4.112226  -4.857093  2.376833
H    -1.086741  -0.902208  4.250319
H    -0.618718  -1.027522  2.560625
H    -3.140455  -2.237243  3.844076
H    -1.609328  -3.058667  3.586821
H    -1.946519  -2.533698  1.020681
H    -3.630406  -2.237137  1.415856
H    -2.051286  -4.844925  1.939330
H    -3.117408  -4.541192  0.551901
H    -4.194292  -5.871643  2.203926
H    -5.007182  -4.433338  2.091599
H    -4.016284  -4.736363  3.394899
N    -2.551365  2.202855  4.574547
C    -4.003781  2.085972  4.773880
H    -2.081597  2.920740  5.133043
H    -4.357768  3.029379  5.200962
H    -4.234879  1.278221  5.480262
H    -4.524970  1.930627  3.823711
Pb    1.289127  1.805781  2.471469
