35
Energy: -608356.628504 eV PBE+vdW (tier 2 basis)
C    -0.601488  1.558120  -1.193273
C    -0.635604  0.939281  0.162872
O    0.163585  -0.066793  0.446765
H    -0.851173  0.801509  -1.952936
H    0.408334  1.942189  -1.403862
H    -1.308520  2.387854  -1.300946
N    -1.464704  1.396022  1.074083
C    -1.699515  0.979032  2.472469
C    -3.243278  1.094673  2.665614
O    -3.725067  2.243303  2.666742
H    -2.039548  2.196835  0.791437
H    -1.328875  -0.043987  2.595502
C    -1.012982  1.974526  3.438203
C    -1.487227  1.831304  4.900520
C    -1.503224  3.144837  5.706916
C    -2.348900  4.301792  5.175600
N    -3.809619  3.939430  4.959982
H    -1.235110  2.982632  3.062222
H    0.075915  1.848831  3.368119
H    -0.840948  1.121649  5.433814
H    -2.489292  1.375298  4.936205
H    -0.481852  3.544165  5.799712
H    -1.813192  2.911486  6.736889
H    -1.998836  4.685284  4.209602
H    -2.330163  5.135500  5.887330
H    -3.915564  3.285588  4.147060
H    -4.220407  3.506140  5.798088
H    -4.366391  4.780716  4.754893
N    -3.973480  -0.012565  2.817258
C    -3.538786  -1.412575  2.841943
H    -4.973927  0.162402  2.916862
H    -4.413427  -2.032316  3.059428
H    -2.800807  -1.591177  3.633611
H    -3.142225  -1.728045  1.868210
Pb    1.746494  -1.335200  -0.290771
