35
Energy: -608357.293131 eV PBE+vdW (tier 2 basis)
C    -0.072282  0.455095  0.043448
C    -0.306885  -0.008751  1.431150
O    0.664467  -0.468430  2.127173
H    0.319181  -0.410443  -0.519803
H    0.723920  1.211466  0.007422
H    -0.974859  0.811048  -0.460600
N    -1.540793  0.008479  1.992273
C    -2.409459  1.196268  2.023178
C    -1.583332  2.291875  2.750067
O    -0.709899  1.933089  3.627642
H    -1.595823  -0.543934  2.850651
H    -2.634370  1.511751  0.996140
C    -3.708111  0.799900  2.781318
C    -4.869326  1.815958  2.822707
C    -5.926044  1.729833  1.692466
C    -7.014670  0.695580  1.996884
N    -8.161344  0.754811  0.995579
H    -3.419060  0.557756  3.815877
H    -4.038076  -0.147426  2.328468
H    -4.482843  2.841696  2.857088
H    -5.379688  1.693743  3.788568
H    -5.454041  1.511699  0.720768
H    -6.398065  2.719636  1.596846
H    -7.471261  0.875498  2.978365
H    -6.647737  -0.338063  1.973941
H    -8.891001  0.061816  1.224905
H    -7.852445  0.561171  0.031558
H    -8.616827  1.680320  0.991220
N    -1.733207  3.577677  2.498243
C    -2.578794  4.270578  1.520840
H    -1.135474  4.185841  3.065097
H    -3.298167  4.912040  2.045158
H    -3.114971  3.561151  0.886703
H    -1.942241  4.905126  0.891834
Pb    1.073676  0.567883  4.111601
