35
Energy: -608356.985006 eV PBE+vdW (tier 2 basis)
C    -0.209937  1.184631  0.699389
C    0.149802  0.364151  1.884702
O    1.232405  0.696626  2.573023
H    -1.074103  0.792412  0.156913
H    0.646160  1.233517  0.011698
H    -0.433068  2.213720  1.018846
N    -0.528994  -0.665859  2.306281
C    -1.811628  -1.230541  1.848244
C    -2.341349  -1.867450  3.171909
O    -1.489959  -2.291986  3.963163
H    -0.247854  -1.198438  3.164484
H    -2.462193  -0.424748  1.482646
C    -1.584307  -2.299890  0.744930
C    -2.885510  -2.897907  0.155080
C    -3.297680  -4.308833  0.635687
C    -2.547505  -5.418936  -0.101331
N    -3.104527  -6.796754  0.237288
H    -0.931044  -3.081518  1.160916
H    -1.012437  -1.818460  -0.060419
H    -2.794757  -2.911559  -0.940251
H    -3.729165  -2.220325  0.346815
H    -4.375814  -4.424915  0.443774
H    -3.156728  -4.408023  1.723383
H    -1.479319  -5.456670  0.145644
H    -2.647060  -5.319513  -1.189595
H    -2.603465  -7.539912  -0.272755
H    -4.101000  -6.873855  -0.016617
H    -3.027605  -7.010266  1.242302
N    -3.667561  -1.931486  3.339540
C    -4.300045  -2.481379  4.542783
H    -4.266387  -1.454576  2.671949
H    -5.147834  -3.113351  4.256248
H    -4.663146  -1.671927  5.188574
H    -3.561058  -3.072233  5.090292
Pb    2.892586  1.656636  3.463044
