35
Energy: -608357.493716 eV PBE+vdW (tier 2 basis)
C    -1.887387  1.740644  -1.687483
C    -1.267562  0.944542  -0.602344
O    -0.054089  0.545300  -0.713336
H    -1.786533  1.151155  -2.615139
H    -1.325281  2.668092  -1.869137
H    -2.947898  1.954780  -1.527936
N    -1.956638  0.583330  0.507290
C    -2.698293  1.540472  1.333575
C    -1.621617  2.358395  2.106211
O    -0.391151  1.973055  2.098308
H    -1.472321  -0.129816  1.053848
H    -3.208130  2.243577  0.658498
C    -3.790747  0.857863  2.197057
C    -3.318554  -0.217629  3.191239
C    -4.414344  -0.733751  4.156377
C    -5.474865  -1.622126  3.501441
N    -6.426148  -2.201578  4.540838
H    -4.512869  0.442257  1.479460
H    -4.325447  1.647857  2.742387
H    -2.516450  0.188440  3.826582
H    -2.886966  -1.081076  2.659204
H    -4.897788  0.122048  4.654047
H    -3.907107  -1.308671  4.946401
H    -5.030177  -2.485009  2.989488
H    -6.109153  -1.084153  2.786591
H    -7.137981  -2.806126  4.102174
H    -6.930598  -1.465650  5.057767
H    -5.928687  -2.776559  5.237897
N    -1.934961  3.463201  2.752298
C    -3.223666  4.157633  2.863517
H    -1.147193  3.912680  3.225807
H    -3.033846  5.235657  2.817359
H    -3.699236  3.928958  3.825830
H    -3.891881  3.888352  2.040688
Pb    1.399286  1.138420  0.925316
