35
Energy: -608356.869315 eV PBE+vdW (tier 2 basis)
C    -0.350613  0.193744  1.912813
C    -0.347757  -0.977093  2.869513
O    0.585266  -0.862838  3.863980
H    -1.080083  0.057626  1.108105
H    0.638155  0.324564  1.457786
H    -0.630606  1.097854  2.468287
N    -1.604719  -1.422925  3.374408
C    -2.174410  -2.461940  2.501268
C    -0.927898  -2.987079  1.780148
O    0.117362  -2.243392  1.954860
H    -1.490033  -1.756628  4.331043
H    -2.599262  -3.256964  3.132010
C    -3.251880  -1.959792  1.506114
C    -4.532654  -1.392739  2.156304
C    -5.673771  -2.413146  2.352732
C    -6.942591  -1.709245  2.836522
N    -8.138273  -2.650876  2.907102
H    -3.508334  -2.784874  0.823406
H    -2.806683  -1.183833  0.870390
H    -4.899370  -0.588935  1.502365
H    -4.279887  -0.907095  3.110847
H    -5.384627  -3.198343  3.070166
H    -5.877889  -2.911266  1.390780
H    -7.241102  -0.901103  2.156726
H    -6.829592  -1.287051  3.842735
H    -8.983581  -2.154032  3.227596
H    -7.979370  -3.432138  3.559817
H    -8.358222  -3.058860  1.986312
N    -0.888567  -4.059157  1.034030
C    0.279420  -4.565749  0.296135
H    -1.742602  -4.610355  0.970374
H    -0.032009  -4.821137  -0.722613
H    0.665287  -5.464921  0.792087
H    1.052831  -3.795445  0.263213
Pb    2.352809  -0.205217  4.743358
