35
Energy: -608357.668269 eV PBE+vdW (tier 2 basis)
C    -0.034700  -0.322343  0.213452
C    -0.009408  -0.111424  1.680101
O    1.100692  -0.188115  2.320155
H    0.421947  -1.309532  0.025659
H    0.611116  0.401470  -0.304124
H    -1.040563  -0.320665  -0.216044
N    -1.137693  0.126187  2.389797
C    -2.099811  1.166527  2.016253
C    -1.532756  2.498510  2.600571
O    -0.361360  2.540664  3.123743
H    -0.999195  0.029336  3.396515
H    -2.032590  1.287346  0.923470
C    -3.570741  0.805912  2.325485
C    -3.957318  0.493178  3.781936
C    -5.446327  0.085889  3.873948
C    -5.865705  -0.283416  5.297458
N    -7.329133  -0.700942  5.362228
H    -3.800120  -0.062427  1.690263
H    -4.209213  1.614787  1.935847
H    -3.770857  1.364637  4.429688
H    -3.341267  -0.334288  4.168859
H    -5.624721  -0.770803  3.204298
H    -6.073960  0.913624  3.506513
H    -5.761471  0.556901  5.995147
H    -5.294226  -1.133203  5.691384
H    -7.960833  0.052727  5.052173
H    -7.603679  -0.948768  6.325480
H    -7.522230  -1.523970  4.771631
N    -2.252738  3.595868  2.499377
C    -1.815138  4.940602  2.904817
H    -3.163302  3.524540  2.049511
H    -2.696834  5.583619  2.971803
H    -1.125386  5.355080  2.158077
H    -1.318875  4.893851  3.878863
Pb    1.728390  1.644625  3.489643
