35
Energy: -608358.203663 eV PBE+vdW (tier 2 basis)
C    0.945814  0.936498  0.211023
C    0.719132  0.309475  1.540114
O    1.719229  0.032249  2.286632
H    1.616201  0.300013  -0.383978
H    1.473146  1.891283  0.358916
H    0.022698  1.119006  -0.348970
N    -0.534967  0.059432  1.946384
C    -0.915246  -0.431547  3.280441
C    -0.485234  -1.913153  3.432895
O    0.594486  -2.151873  4.090074
H    -1.283459  0.326561  1.309135
H    -0.281235  0.095359  4.009642
C    -2.381223  -0.053607  3.588356
C    -2.864578  -0.428672  5.001689
C    -4.265174  0.153580  5.295575
C    -4.738778  -0.183325  6.710701
N    -6.105727  0.418106  7.008769
H    -3.058001  -0.477376  2.833581
H    -2.432801  1.039994  3.468923
H    -2.150453  -0.048650  5.749158
H    -2.888941  -1.523558  5.121278
H    -4.988542  -0.233835  4.560240
H    -4.234769  1.247641  5.168505
H    -4.062875  0.213350  7.478633
H    -4.844298  -1.263829  6.869423
H    -6.413968  0.184263  7.965380
H    -6.831237  0.070222  6.364031
H    -6.099310  1.446685  6.936382
N    -1.143068  -2.933428  2.917663
C    -2.359379  -2.970288  2.096884
H    -0.713821  -3.840635  3.116356
H    -3.257875  -2.970465  2.726420
H    -2.343317  -3.900239  1.519861
H    -2.386964  -2.134769  1.391804
Pb    2.647538  -1.219468  3.892084
