35
Energy: -608356.388012 eV PBE+vdW (tier 2 basis)
C    -0.943963  0.846980  -0.249390
C    -0.763589  0.614832  1.217899
O    0.283651  0.180121  1.721518
H    -0.216969  1.598142  -0.588505
H    -1.951172  1.175575  -0.526715
H    -0.703726  -0.081720  -0.785013
N    -1.836059  0.894271  2.037143
C    -1.706756  0.770485  3.484730
C    -2.913253  -0.014344  4.008104
O    -3.810673  0.567864  4.775959
H    -2.639327  1.371430  1.636230
H    -0.831050  0.109717  3.614005
C    -1.437619  2.099758  4.213914
C    -0.160421  2.856549  3.769067
C    1.153107  2.589277  4.534258
C    1.950000  1.302163  4.322723
N    2.533694  1.173149  2.927866
H    -1.387944  1.905464  5.297402
H    -2.296635  2.768190  4.045394
H    -0.369440  3.924466  3.915158
H    -0.022607  2.756804  2.682624
H    0.959668  2.643026  5.616840
H    1.825843  3.440039  4.339918
H    2.796639  1.283785  5.019326
H    1.367089  0.387458  4.484264
H    2.971769  2.050120  2.614800
H    1.784506  0.887738  2.251936
H    3.263031  0.447289  2.900421
N    -3.097292  -1.275814  3.697635
C    -2.257765  -2.149435  2.867163
H    -3.954830  -1.706700  4.050238
H    -2.318295  -3.163474  3.276885
H    -1.217172  -1.814836  2.868360
H    -2.642873  -2.156904  1.838185
Pb    -5.254214  1.440448  6.083388
