35
Energy: -608356.689003 eV PBE+vdW (tier 2 basis)
C    0.047031  -1.303139  1.072299
C    0.072971  0.142769  1.413783
O    1.224674  0.695167  1.754425
H    -0.946804  -1.666850  0.800343
H    0.402000  -1.886290  1.935424
H    0.733292  -1.499375  0.235278
N    -0.984283  0.915702  1.403808
C    -2.358596  0.598612  0.966870
C    -2.945451  1.961308  0.524080
O    -2.585297  2.989884  1.135664
H    -0.892313  1.915353  1.650978
H    -2.293078  -0.076080  0.104895
C    -3.247346  -0.080517  2.056230
C    -3.161050  0.371880  3.527489
C    -3.392730  1.848315  3.898694
C    -4.730415  2.443454  3.440686
N    -4.559271  3.918835  3.128833
H    -3.019427  -1.155856  2.041584
H    -4.281170  -0.011845  1.686316
H    -2.179884  0.089919  3.937700
H    -3.879939  -0.258201  4.071957
H    -2.578409  2.458621  3.484291
H    -3.316598  1.934006  4.991419
H    -5.516214  2.355872  4.199370
H    -5.107901  1.994854  2.514253
H    -3.861741  4.012327  2.361302
H    -5.442782  4.357443  2.833063
H    -4.220368  4.445040  3.946583
N    -3.841284  1.963187  -0.466869
C    -4.290395  0.843144  -1.306359
H    -4.161702  2.892696  -0.736929
H    -5.154063  1.181485  -1.886164
H    -4.613513  -0.011619  -0.701557
H    -3.509150  0.532634  -2.012703
Pb    3.338061  0.886061  1.984693
