35
Energy: -608356.685742 eV PBE+vdW (tier 2 basis)
C    -0.008513  1.812234  0.298592
C    0.093239  0.719681  1.299538
O    1.276065  0.326182  1.710340
H    0.556296  1.538268  -0.604897
H    0.451251  2.720175  0.719341
H    -1.035620  2.069316  0.024441
N    -0.954714  0.109269  1.828380
C    -2.375780  0.373628  1.533120
C    -2.854608  1.721834  2.198637
O    -3.129520  2.625848  1.415507
H    -0.744743  -0.597593  2.537081
H    -2.440955  0.606585  0.465384
C    -3.260671  -0.858921  1.801653
C    -4.739278  -0.560683  1.482855
C    -5.638789  -1.810045  1.562471
C    -7.089915  -1.455801  1.236144
N    -7.998214  -2.677614  1.276800
H    -3.159682  -1.202514  2.841246
H    -2.898684  -1.675428  1.157818
H    -4.811965  -0.124720  0.474329
H    -5.118788  0.207574  2.174342
H    -5.580599  -2.250950  2.570679
H    -5.274701  -2.572279  0.854819
H    -7.196287  -1.035780  0.228107
H    -7.514412  -0.741243  1.952465
H    -7.998462  -3.126281  2.204500
H    -7.712060  -3.391305  0.590470
H    -8.974190  -2.422859  1.061503
N    -2.924364  1.852526  3.540066
C    -2.747100  0.865965  4.600377
H    -3.263065  2.771182  3.824977
H    -1.856472  0.245609  4.442683
H    -3.626018  0.217841  4.721018
H    -2.595490  1.403667  5.541790
Pb    3.428637  0.355814  1.705485
