35
Energy: -608356.826452 eV PBE+vdW (tier 2 basis)
C    0.088063  2.119366  0.636741
C    -0.123607  1.096828  1.693112
O    0.876136  0.835954  2.522760
H    0.322058  3.087814  1.102779
H    -0.781561  2.243310  -0.013906
H    0.953166  1.836087  0.019992
N    -1.229781  0.430287  1.871746
C    -2.538330  0.503754  1.189118
C    -3.481249  0.020719  2.336290
O    -3.019429  -0.838162  3.097231
H    -1.324349  -0.274819  2.639964
H    -2.738941  1.535479  0.877198
C    -2.522862  -0.470510  -0.023451
C    -3.817606  -0.677433  -0.841470
C    -4.861505  -1.641626  -0.227904
C    -5.542193  -2.594914  -1.208730
N    -6.500102  -1.909742  -2.181941
H    -2.170236  -1.447277  0.340950
H    -1.748552  -0.097546  -0.709746
H    -3.472079  -1.093929  -1.801203
H    -4.271035  0.293839  -1.091050
H    -5.621072  -1.101787  0.356344
H    -4.368657  -2.308800  0.496062
H    -6.149655  -3.337009  -0.677001
H    -4.816781  -3.130525  -1.834367
H    -6.936736  -2.600918  -2.811122
H    -6.025643  -1.217653  -2.778372
H    -7.264716  -1.426972  -1.688399
N    -4.718110  0.529996  2.439952
C    -5.291913  1.683081  1.743302
H    -5.230864  0.176242  3.247756
H    -5.091948  1.643895  0.666827
H    -4.916603  2.633073  2.147914
H    -6.377220  1.663995  1.883158
Pb    2.613456  0.752518  3.724072
