35
Energy: -608358.000120 eV PBE+vdW (tier 2 basis)
C    -0.579282  -0.142109  0.137906
C    -0.686209  -0.494822  1.581591
O    0.039842  -1.438994  2.047731
H    -1.265325  0.651826  -0.175238
H    -0.768100  -1.045215  -0.461068
H    0.452824  0.165380  -0.085094
N    -1.559653  0.177752  2.344017
C    -1.920888  -0.008439  3.770381
C    -0.744781  0.362198  4.698747
O    0.280644  -0.394943  4.831846
H    -2.047297  0.932430  1.866063
H    -2.698832  0.748090  3.941258
C    -2.526741  -1.401815  4.117475
C    -4.068945  -1.449994  4.224978
C    -4.841537  -1.410362  2.894890
C    -6.368363  -1.356096  3.012509
N    -7.008881  -2.662017  3.474663
H    -2.126164  -1.708857  5.093602
H    -2.173737  -2.148025  3.392119
H    -4.410347  -0.632259  4.880594
H    -4.301752  -2.379242  4.768619
H    -4.546125  -2.253047  2.248342
H    -4.581712  -0.503619  2.326043
H    -6.824324  -1.139986  2.039122
H    -6.704321  -0.590363  3.723323
H    -8.036459  -2.568037  3.505007
H    -6.708086  -2.943330  4.418283
H    -6.799054  -3.441369  2.833327
N    -0.842681  1.473908  5.399925
C    0.146459  1.980023  6.359916
H    -1.672982  2.048923  5.266929
H    -0.384338  2.354969  7.241924
H    0.712061  2.804934  5.906685
H    0.826113  1.175351  6.647968
Pb    1.434522  -1.952852  3.711436
