35
Energy: -608356.431062 eV PBE+vdW (tier 2 basis)
C    0.918190  -0.114206  0.495142
C    0.514629  -0.194230  1.928052
O    1.414631  -0.420370  2.853545
H    1.418698  -1.046791  0.193370
H    1.625873  0.717850  0.356138
H    0.071464  0.051945  -0.179969
N    -0.750125  -0.031292  2.265183
C    -1.378127  -0.010333  3.595179
C    -1.986543  -1.361965  4.089140
O    -1.891022  -1.567770  5.310291
H    -1.375079  0.154014  1.479010
H    -0.581803  0.190555  4.319133
C    -2.445038  1.121553  3.620966
C    -3.382782  1.121145  4.838709
C    -2.707841  1.435599  6.187889
C    -3.498770  0.978641  7.407731
N    -3.533132  -0.554676  7.514383
H    -3.068320  1.036879  2.716570
H    -1.916084  2.083178  3.545943
H    -3.916200  0.157958  4.872668
H    -4.163360  1.870180  4.646127
H    -2.571059  2.521703  6.288783
H    -1.699073  1.000037  6.250120
H    -4.539960  1.320780  7.386561
H    -3.042294  1.346065  8.332593
H    -3.242247  -0.868794  8.448808
H    -4.478697  -0.926260  7.362905
H    -2.901838  -0.998150  6.809770
N    -2.623230  -2.203759  3.262845
C    -2.954828  -2.081024  1.841643
H    -2.964423  -3.041583  3.733833
H    -3.753487  -2.796075  1.620033
H    -2.103776  -2.329706  1.193521
H    -3.351540  -1.086803  1.600738
Pb    3.505760  -0.770554  3.275640
