35
Energy: -608357.385754 eV PBE+vdW (tier 2 basis)
C    0.296053  0.359105  0.105222
C    0.114802  0.139583  1.559688
O    1.136392  0.023135  2.323255
H    0.898090  1.258381  -0.087395
H    -0.642341  0.389803  -0.454990
H    0.899638  -0.484470  -0.272695
N    -1.113933  0.027113  2.118538
C    -2.203725  0.993950  1.913251
C    -1.644080  2.355804  2.406181
O    -0.728619  2.363127  3.312376
H    -1.090119  -0.350974  3.067973
H    -2.449394  1.044454  0.844724
C    -3.417989  0.503431  2.753868
C    -4.825000  1.076584  2.485291
C    -5.618478  0.373871  1.360752
C    -7.088955  0.802212  1.391915
N    -7.949172  0.017898  0.410124
H    -3.174279  0.677615  3.813191
H    -3.448246  -0.589062  2.623116
H    -4.795166  2.162470  2.317811
H    -5.382671  0.950720  3.424754
H    -5.554399  -0.715854  1.511910
H    -5.184984  0.585594  0.369903
H    -7.224788  1.860067  1.134826
H    -7.536207  0.631256  2.379372
H    -8.934503  0.321383  0.459778
H    -7.936210  -0.993670  0.609942
H    -7.644042  0.142562  -0.566331
N    -2.072637  3.510714  1.935351
C    -3.035859  3.807487  0.872072
H    -1.634588  4.327878  2.369428
H    -2.552085  4.450649  0.126638
H    -3.894208  4.346361  1.292099
H    -3.378168  2.891819  0.384700
Pb    1.264255  1.488497  4.057668
