35
Energy: -608356.746482 eV PBE+vdW (tier 2 basis)
C    -0.493921  0.083441  -0.088486
C    -0.393722  0.240544  1.384795
O    0.717919  0.671759  1.868948
H    0.399131  -0.438781  -0.457249
H    -0.475873  1.082146  -0.551525
H    -1.395022  -0.447224  -0.411507
N    -1.447222  -0.045273  2.154897
C    -1.592167  -0.134972  3.629897
C    -1.071388  1.083891  4.400793
O    -1.874823  1.502859  5.371546
H    -2.279955  -0.331964  1.643870
H    -2.677517  -0.106664  3.790782
C    -1.122371  -1.499175  4.215549
C    0.327288  -1.966404  3.990876
C    0.576881  -3.278872  4.766208
C    1.986691  -3.871011  4.706497
N    2.240226  -4.741699  3.477812
H    -1.812823  -2.255995  3.813359
H    -1.335165  -1.457469  5.295774
H    1.044470  -1.205194  4.334470
H    0.510254  -2.107042  2.913346
H    -0.162064  -4.045654  4.479444
H    0.386827  -3.096142  5.834479
H    2.163187  -4.533463  5.562016
H    2.771877  -3.104583  4.702536
H    3.193462  -5.136265  3.499358
H    2.148747  -4.222186  2.594632
H    1.586858  -5.538482  3.440257
N    0.063057  1.630290  4.117683
C    0.515547  2.795368  4.829350
H    0.595486  1.057906  2.863624
H    1.473718  3.156321  4.434232
H    0.690745  2.584287  5.909180
H    -0.189787  3.654318  4.701692
Pb    -1.943409  3.184492  6.713765
