35
Energy: -608357.941670 eV PBE+vdW (tier 2 basis)
C    0.626423  1.499815  3.684064
C    -0.133667  0.355737  3.107765
O    0.470044  -0.463857  2.334780
H    1.486612  1.115791  4.251121
H    0.026282  2.147795  4.331280
H    1.041013  2.097277  2.858194
N    -1.434044  0.231975  3.411458
C    -2.450322  -0.722647  2.906655
C    -2.081339  -2.168570  3.304645
O    -1.266239  -2.867913  2.602345
H    -1.790287  0.947217  4.042019
H    -3.356342  -0.462810  3.468468
C    -2.763981  -0.558516  1.402438
C    -4.033441  -1.323482  0.947616
C    -5.352820  -0.514807  0.874498
C    -5.505743  0.253174  -0.441407
N    -6.888913  0.878061  -0.576797
H    -1.902081  -0.883794  0.805802
H    -2.859561  0.520527  1.214325
H    -4.209245  -2.183036  1.611399
H    -3.840601  -1.775074  -0.035260
H    -5.439655  0.174952  1.729792
H    -6.186069  -1.228563  0.963892
H    -5.396283  -0.411345  -1.307791
H    -4.790292  1.078023  -0.548268
H    -7.633872  0.165032  -0.547255
H    -6.986313  1.378125  -1.474288
H    -7.087500  1.558142  0.171842
N    -2.630442  -2.717080  4.371354
C    -3.591177  -2.142220  5.326681
H    -2.334564  -3.679782  4.550862
H    -4.559309  -1.952180  4.847052
H    -3.197643  -1.224966  5.779985
H    -3.745257  -2.874841  6.124114
Pb    0.754886  -2.564765  1.665504
