35
Energy: -608356.834567 eV PBE+vdW (tier 2 basis)
C    0.267093  -0.667577  0.066971
C    -0.066775  0.320945  1.126301
O    0.755609  1.334968  1.334375
H    0.180953  -0.187837  -0.921138
H    -0.377608  -1.549991  0.077726
H    1.308000  -0.999160  0.185811
N    -1.142820  0.255823  1.871225
C    -2.269266  -0.697010  1.768553
C    -3.478845  0.086538  2.335664
O    -3.276844  0.841936  3.311882
H    -1.320742  0.982122  2.583434
H    -2.412518  -0.920653  0.704478
C    -2.052871  -2.041392  2.544976
C    -2.577474  -2.128094  3.986132
C    -1.785752  -1.342371  5.048551
C    -2.568160  -1.020630  6.317212
N    -3.729792  -0.057908  6.035710
H    -0.983089  -2.296620  2.507264
H    -2.565117  -2.811709  1.952096
H    -2.581671  -3.191800  4.264140
H    -3.641224  -1.840183  3.982839
H    -1.391729  -0.398612  4.643928
H    -0.907590  -1.925225  5.361735
H    -1.928848  -0.528453  7.057697
H    -3.000452  -1.913173  6.784587
H    -3.813108  0.651240  6.775361
H    -4.629776  -0.551806  6.003858
H    -3.606479  0.427456  5.115258
N    -4.657311  -0.137328  1.760085
C    -5.919770  0.479452  2.178808
H    -4.695103  -0.765650  0.960915
H    -6.445963  0.856605  1.295063
H    -5.704209  1.312788  2.852586
H    -6.559717  -0.258241  2.679701
Pb    2.377356  2.661403  0.923256
