35
Energy: -608357.399252 eV PBE+vdW (tier 2 basis)
C    0.141618  -0.340155  -0.476721
C    0.107452  0.088879  0.946748
O    1.206516  0.235938  1.590833
H    -0.040378  -1.426566  -0.549033
H    1.142828  -0.153777  -0.880987
H    -0.608986  0.172309  -1.086399
N    -1.048465  0.317180  1.609598
C    -2.218949  -0.580898  1.574154
C    -1.697497  -1.982337  2.013512
O    -0.584584  -2.090876  2.640713
H    -0.908273  0.781894  2.507006
H    -2.844307  -0.236308  2.413765
C    -3.081585  -0.495121  0.283071
C    -4.610730  -0.512762  0.512732
C    -5.373122  -0.395553  -0.823284
C    -6.898610  -0.517238  -0.769249
N    -7.617323  0.770594  -0.374586
H    -2.793911  -1.283009  -0.429134
H    -2.822381  0.457655  -0.198034
H    -4.872703  0.313679  1.193606
H    -4.927817  -1.436888  1.025063
H    -5.047902  -1.207159  -1.492053
H    -5.089869  0.531663  -1.348367
H    -7.239333  -1.283479  -0.061544
H    -7.295929  -0.771508  -1.758890
H    -8.640188  0.632079  -0.384606
H    -7.413405  1.535743  -1.034931
H    -7.368590  1.097845  0.568845
N    -2.427011  -3.053506  1.781506
C    -2.082452  -4.416788  2.216674
H    -3.299690  -2.934364  1.274158
H    -1.215512  -4.787517  1.656132
H    -2.939734  -5.066166  2.022148
H    -1.856697  -4.421648  3.288613
Pb    1.483865  -1.273853  3.255736
