35
Energy: -608356.273478 eV PBE+vdW (tier 2 basis)
C    0.784347  1.030793  0.529089
C    0.315147  0.457078  1.830367
O    0.927794  -0.416236  2.458770
H    1.703578  1.609419  0.701865
H    0.049202  1.680689  0.042312
H    1.055768  0.209069  -0.146071
N    -0.877072  0.942501  2.343543
C    -1.235103  0.537638  3.700141
C    -2.747331  0.605169  3.862676
O    -3.511418  -0.077562  3.045245
H    -1.209761  1.835940  1.986209
H    -0.996623  -0.542123  3.733326
C    -0.387456  1.224079  4.805488
C    -0.143302  0.382610  6.074254
C    0.635277  -0.942246  5.921338
C    2.163596  -0.918186  5.888709
N    2.778083  -0.386009  4.594675
H    -0.803630  2.209710  5.076320
H    0.563840  1.482702  4.323475
H    -1.109096  0.134264  6.542351
H    0.363207  1.023474  6.811384
H    0.269151  -1.540011  5.071693
H    0.404812  -1.551847  6.807659
H    2.537572  -1.943071  5.992023
H    2.589479  -0.324562  6.706865
H    3.688539  -0.832456  4.417545
H    2.958372  0.623658  4.646955
H    2.163851  -0.549899  3.762281
N    -3.299067  1.304351  4.821869
C    -4.730366  1.414273  5.128256
H    -2.655846  1.831858  5.413990
H    -4.842143  2.014107  6.035595
H    -5.158261  0.419921  5.307007
H    -5.258056  1.916732  4.307149
Pb    -4.739931  -1.184797  1.702354
