35
Energy: -608355.877227 eV PBE+vdW (tier 2 basis)
C    -0.255248  0.910967  0.433897
C    -0.143254  -0.123026  1.516635
O    0.917605  -0.688685  1.777235
H    -1.266084  1.099663  0.058019
H    0.393306  0.636842  -0.404832
H    0.141306  1.856231  0.836777
N    -1.248226  -0.419134  2.326743
C    -2.622488  -0.568282  1.855428
C    -3.589038  -0.010079  2.922492
O    -4.529839  -0.772986  3.428879
H    -0.978077  -1.071608  3.064862
H    -2.747870  0.104629  0.990861
C    -2.953246  -2.004651  1.386630
C    -1.990323  -2.517023  0.286373
C    -0.739714  -3.264203  0.806448
C    0.427190  -3.245353  -0.194928
N    1.761559  -3.173920  0.524009
H    -3.977391  -2.004305  0.985990
H    -2.941378  -2.694350  2.245525
H    -1.687057  -1.669464  -0.348750
H    -2.553818  -3.180820  -0.381693
H    -1.003018  -4.301501  1.054487
H    -0.391800  -2.805923  1.741506
H    0.398129  -2.355873  -0.836095
H    0.450928  -4.127858  -0.843915
H    2.548049  -3.154025  -0.141321
H    1.913322  -3.979953  1.146160
H    1.792115  -2.303052  1.094764
N    -3.495864  1.225433  3.354297
C    -2.573330  2.285835  2.921504
H    -4.146007  1.489463  4.096668
H    -2.967597  3.237853  3.288604
H    -2.514962  2.323179  1.829106
H    -1.576477  2.114247  3.345802
Pb    -6.281730  -1.750283  4.186381
