35
Energy: -608356.710451 eV PBE+vdW (tier 2 basis)
C    -0.189680  -0.796448  0.118641
C    -0.187138  0.200677  1.218305
O    0.850391  0.953271  1.344126
H    0.751218  -1.363289  0.145704
H    -0.197638  -0.263025  -0.844022
H    -1.037439  -1.487475  0.157773
N    -1.246851  0.302575  2.025044
C    -1.453824  1.062861  3.283510
C    -1.096110  2.550741  3.197158
O    -2.000015  3.361844  3.736531
H    -2.017140  -0.321421  1.792090
H    -2.543382  1.063264  3.415194
C    -0.888947  0.331849  4.538503
C    0.584239  -0.117714  4.565223
C    0.836422  -0.977345  5.825453
C    2.101251  -1.835228  5.858885
N    3.369148  -1.076601  6.245202
H    -1.522451  -0.558784  4.668384
H    -1.110080  0.974387  5.405238
H    1.259658  0.751715  4.527106
H    0.802785  -0.729432  3.676627
H    0.014576  -1.704438  5.916645
H    0.769513  -0.365885  6.740090
H    2.315851  -2.310783  4.893588
H    2.005506  -2.626498  6.611932
H    4.178576  -1.715584  6.281871
H    3.282069  -0.649713  7.179276
H    3.604372  -0.329135  5.578976
N    -0.002253  2.955877  2.646063
C    0.285785  4.360902  2.533409
H    0.645447  1.819235  1.937357
H    1.228047  4.532091  1.997633
H    0.405306  4.845109  3.529024
H    -0.490189  4.891113  1.926685
Pb    -2.347796  5.481906  3.822723
