35
Energy: -608356.352898 eV PBE+vdW (tier 2 basis)
C    0.626927  -0.174643  0.012712
C    0.368098  -0.171714  1.486317
O    1.244279  -0.298271  2.345897
H    -0.243236  0.102843  -0.592119
H    0.943660  -1.188463  -0.276361
H    1.465491  0.492399  -0.221337
N    -0.964471  -0.056210  1.888975
C    -1.228324  0.061106  3.319961
C    -2.598040  -0.515084  3.634242
O    -3.171934  -0.246139  4.771222
H    -1.569924  0.454783  1.245900
H    -0.531321  -0.668187  3.782713
C    -0.889377  1.446706  3.949681
C    0.258173  1.373901  4.988140
C    1.255838  2.546198  4.965828
C    2.180831  2.669829  3.755673
N    3.093152  1.466601  3.569344
H    -1.779798  1.903715  4.399530
H    -0.618751  2.103985  3.112647
H    0.802785  0.426428  4.859827
H    -0.165443  1.326796  6.000485
H    1.870627  2.499330  5.878218
H    0.720557  3.505382  5.036323
H    1.642256  2.780487  2.806112
H    2.831850  3.544074  3.872004
H    3.858396  1.686377  2.916912
H    2.562957  0.660476  3.168540
H    3.530599  1.178252  4.455255
N    -3.170823  -1.339850  2.782356
C    -4.430145  -2.038099  2.992566
H    -2.633525  -1.524450  1.928492
H    -4.649386  -2.663877  2.119982
H    -5.264493  -1.322237  3.089934
H    -4.365667  -2.716748  3.862719
Pb    -4.827092  -0.625924  6.117808
