35
Energy: -608358.131371 eV PBE+vdW (tier 2 basis)
C    -1.090569  0.988795  -0.002940
C    -0.898672  0.454499  1.375381
O    0.103936  -0.303490  1.613376
H    -1.101108  0.148021  -0.711572
H    -0.223337  1.609153  -0.273572
H    -2.004044  1.580228  -0.124885
N    -1.794459  0.777610  2.317667
C    -1.902050  0.347911  3.733198
C    -0.720539  0.854803  4.585785
O    0.453900  0.348070  4.499971
H    -2.527182  1.410269  2.003798
H    -2.791053  0.881610  4.096860
C    -2.165504  -1.166094  3.934522
C    -3.622919  -1.592200  3.648962
C    -3.865803  -3.067093  4.035790
C    -5.319492  -3.516581  4.200375
N    -6.051950  -3.802013  2.891255
H    -1.933156  -1.396664  4.985842
H    -1.466762  -1.756787  3.325154
H    -3.864779  -1.414411  2.588869
H    -4.297812  -0.952515  4.240469
H    -3.416615  -3.248681  5.024641
H    -3.334371  -3.749109  3.352449
H    -5.930299  -2.776695  4.732968
H    -5.364376  -4.457858  4.760945
H    -7.010554  -4.135387  3.079522
H    -5.581498  -4.539169  2.345698
H    -6.136727  -2.971695  2.289737
N    -0.967490  1.805320  5.464905
C    0.002042  2.390997  6.399831
H    -1.912897  2.182850  5.504284
H    0.339029  3.365052  6.020964
H    0.855367  1.719414  6.515644
H    -0.492332  2.537500  7.366309
Pb    1.803077  -0.638662  3.016798
