35
Energy: -608357.260835 eV PBE+vdW (tier 2 basis)
C    0.049889  -0.407008  -0.197532
C    0.154771  -0.318690  1.284246
O    1.310114  -0.193994  1.824669
H    -0.121851  -1.452109  -0.507504
H    0.995802  -0.082768  -0.644126
H    -0.773198  0.196955  -0.592431
N    -0.923230  -0.369655  2.102702
C    -2.001446  -1.378434  2.004915
C    -1.299406  -2.777929  2.042809
O    -0.068146  -2.871287  2.395741
H    -0.677252  -0.138870  3.065954
H    -2.524575  -1.309326  2.973239
C    -3.060443  -1.165800  0.901123
C    -4.098884  -0.039743  1.122097
C    -3.614051  1.413457  0.947173
C    -4.690774  2.419425  0.528799
N    -5.747081  2.704383  1.593512
H    -3.647708  -2.092006  0.825658
H    -2.581596  -1.056454  -0.080272
H    -4.569739  -0.179447  2.108915
H    -4.890047  -0.235435  0.381335
H    -2.881483  1.463765  0.126685
H    -3.081988  1.778607  1.839204
H    -5.245062  2.077620  -0.354710
H    -4.243925  3.393015  0.294878
H    -6.287250  1.866748  1.851803
H    -6.425894  3.401381  1.248296
H    -5.334195  3.091235  2.454697
N    -1.985246  -3.868274  1.779336
C    -1.457524  -5.239521  1.876353
H    -2.961623  -3.770649  1.511461
H    -2.261933  -5.933284  1.619381
H    -1.116459  -5.439486  2.898961
H    -0.625318  -5.374950  1.175737
Pb    2.006838  -2.057471  2.916746
