35
Energy: -608356.471611 eV PBE+vdW (tier 2 basis)
C    1.282221  -0.019977  0.091655
C    0.957221  -0.299503  1.511210
O    1.943824  -0.261543  2.389693
H    0.406251  -0.023890  -0.555184
H    1.968333  -0.794732  -0.277814
H    1.791566  0.953658  0.029780
N    -0.241338  -0.523488  2.015776
C    -1.528505  -0.850970  1.366446
C    -1.353549  -2.265983  0.718138
O    -0.328890  -2.493142  0.077721
H    -0.245051  -0.650044  3.029078
H    -2.216265  -0.922230  2.215197
C    -2.081912  0.247161  0.392933
C    -2.318790  -0.087744  -1.100393
C    -3.690618  -0.720144  -1.403387
C    -3.988021  -0.996549  -2.877673
N    -4.362340  0.253950  -3.670543
H    -1.407518  1.110284  0.457712
H    -3.025394  0.601590  0.829978
H    -1.523734  -0.742419  -1.488639
H    -2.219730  0.866569  -1.642008
H    -4.501211  -0.110842  -0.969795
H    -3.767012  -1.700229  -0.912118
H    -4.846060  -1.670363  -2.984952
H    -3.134529  -1.443472  -3.403206
H    -4.573421  0.015679  -4.651705
H    -3.608399  0.954168  -3.685690
H    -5.202148  0.709335  -3.283427
N    -2.359971  -3.144701  0.883448
C    -3.542258  -3.037566  1.743860
H    -2.174245  -4.054638  0.462664
H    -4.219655  -3.859680  1.493585
H    -4.086972  -2.100580  1.573870
H    -3.286225  -3.128115  2.808283
Pb    3.908398  -0.197127  3.204784
