35
Energy: -608356.383365 eV PBE+vdW (tier 2 basis)
C    0.913147  -0.462280  0.126580
C    0.662976  -0.341480  1.599405
O    1.444792  -0.734145  2.467596
H    1.717633  0.230298  -0.163200
H    0.035311  -0.245031  -0.491911
H    1.271803  -1.475837  -0.092715
N    -0.537397  0.267582  1.970489
C    -0.801202  0.599014  3.363374
C    -2.190347  0.091844  3.748375
O    -2.724002  0.445352  4.883421
H    -0.976359  0.849892  1.257269
H    -0.105860  -0.048644  3.936616
C    -0.536779  2.084063  3.759948
C    0.801741  2.348572  4.476295
C    2.094197  2.135116  3.643014
C    3.079682  1.175385  4.322734
N    3.939438  0.448074  3.306786
H    -1.339798  2.426575  4.425619
H    -0.619022  2.700303  2.852377
H    0.838801  1.731915  5.388329
H    0.772458  3.385869  4.833055
H    2.585195  3.100607  3.465730
H    1.840120  1.744466  2.649882
H    2.562072  0.380906  4.872105
H    3.755498  1.690450  5.015278
H    4.642408  -0.149848  3.764130
H    4.448179  1.097091  2.690588
H    3.319393  -0.158437  2.730379
N    -2.824785  -0.738005  2.952493
C    -4.118720  -1.352348  3.213380
H    -2.317261  -0.973588  2.092359
H    -4.908270  -0.585332  3.281351
H    -4.080507  -1.977347  4.122175
H    -4.380894  -2.011662  2.378854
Pb    -4.337131  0.353410  6.315786
