35
Energy: -608358.086644 eV PBE+vdW (tier 2 basis)
C    -0.456310  1.397388  1.070625
C    -0.552293  -0.039962  1.452376
O    0.384100  -0.836171  1.105600
H    -0.342274  1.465338  -0.021326
H    0.458624  1.826550  1.504470
H    -1.317895  1.996727  1.382933
N    -1.630736  -0.448960  2.138779
C    -2.036040  -1.809487  2.569400
C    -1.043400  -2.384132  3.598907
O    0.075023  -2.897905  3.232388
H    -2.285275  0.293659  2.372706
H    -2.984042  -1.649838  3.097021
C    -2.289834  -2.794273  1.404135
C    -3.490499  -2.457352  0.487412
C    -4.839034  -3.086221  0.903765
C    -5.898098  -2.841076  -0.175498
N    -7.216468  -3.541554  0.125299
H    -2.414082  -3.798209  1.837784
H    -1.388494  -2.848873  0.780044
H    -3.597517  -1.366551  0.381038
H    -3.238541  -2.822876  -0.518095
H    -5.186193  -2.679366  1.867268
H    -4.700708  -4.170644  1.041448
H    -5.575306  -3.223704  -1.152052
H    -6.140824  -1.777163  -0.288714
H    -7.104023  -4.564283  0.191743
H    -7.906640  -3.362709  -0.620996
H    -7.638299  -3.219755  1.008750
N    -1.346110  -2.398548  4.882376
C    -2.542551  -1.901818  5.577435
H    -0.637660  -2.842025  5.472980
H    -2.852776  -0.926823  5.188019
H    -2.285608  -1.775447  6.633647
H    -3.363239  -2.627089  5.506298
Pb    1.687022  -2.540855  1.719036
