35
Energy: -608355.828528 eV PBE+vdW (tier 2 basis)
C    0.437081  -0.073688  0.115463
C    0.303590  0.032588  1.606089
O    1.251937  0.277556  2.360597
H    1.000577  0.785443  -0.268844
H    -0.518743  -0.143290  -0.415367
H    1.034671  -0.968413  -0.114042
N    -0.962649  -0.149480  2.129704
C    -1.146964  -0.390250  3.559579
C    -2.573732  -0.789094  3.867480
O    -3.589270  -0.192374  3.274469
H    -1.639592  -0.557620  1.492042
H    -0.525711  -1.251741  3.853671
C    -0.715600  0.771259  4.538325
C    -0.997210  2.235994  4.155153
C    0.079077  2.988043  3.340250
C    1.470556  3.042509  4.004452
N    2.565828  2.621350  3.045035
H    0.354624  0.613342  4.710196
H    -1.196375  0.560446  5.505129
H    -1.156776  2.784751  5.094784
H    -1.948093  2.322768  3.606806
H    -0.279207  4.014190  3.187035
H    0.164282  2.553289  2.336866
H    1.556152  2.363782  4.860845
H    1.721584  4.048374  4.357853
H    2.671287  3.290808  2.271031
H    2.327595  1.681712  2.643552
H    3.479452  2.562664  3.516176
N    -2.822964  -1.712950  4.766387
C    -1.862501  -2.529506  5.535594
H    -3.806709  -1.886023  4.977896
H    -1.153038  -3.024865  4.861999
H    -2.433283  -3.293684  6.070857
H    -1.324981  -1.910148  6.263876
Pb    -5.483856  0.581823  2.630187
