35
Energy: -608358.061646 eV PBE+vdW (tier 2 basis)
C    0.379824  0.723520  -0.016930
C    0.405382  0.342772  1.422166
O    1.521701  0.023680  1.963798
H    0.776414  -0.117381  -0.606475
H    1.062356  1.568649  -0.185318
H    -0.617640  0.982081  -0.387359
N    -0.745266  0.323295  2.104349
C    -1.039538  -0.145520  3.483051
C    -0.407289  0.800085  4.525631
O    0.845846  0.779908  4.788256
H    -1.562968  0.604726  1.566611
H    -2.128310  -0.021317  3.560588
C    -0.730514  -1.650119  3.709792
C    -1.764429  -2.370863  4.604580
C    -1.501775  -3.891840  4.653868
C    -2.657551  -4.789077  5.102299
N    -2.887580  -4.831481  6.611318
H    0.282310  -1.779426  4.117758
H    -0.729207  -2.130508  2.721224
H    -2.768565  -2.194851  4.185851
H    -1.760532  -1.934738  5.616815
H    -0.596753  -4.119521  5.239937
H    -1.275040  -4.241042  3.634389
H    -2.462053  -5.829447  4.816371
H    -3.616266  -4.491369  4.659057
H    -2.051738  -5.164423  7.114252
H    -3.653935  -5.483971  6.840557
H    -3.146425  -3.916271  7.003584
N    -1.207187  1.631736  5.164804
C    -0.795655  2.616943  6.172855
H    -2.195978  1.621311  4.919990
H    0.150368  2.309664  6.624607
H    -1.574511  2.677565  6.940012
H    -0.682279  3.603619  5.703888
Pb    2.799783  0.393616  3.732827
