35
Energy: -608356.737866 eV PBE+vdW (tier 2 basis)
C    -0.378696  0.598219  -0.197824
C    -0.335739  0.641009  1.283865
O    0.732044  1.089551  1.841236
H    0.508270  0.057895  -0.560235
H    -0.292115  1.622441  -0.589683
H    -1.283327  0.127982  -0.595550
N    -1.390547  0.229886  2.000237
C    -1.496686  -0.045729  3.455410
C    -1.194005  1.186981  4.324904
O    -2.073089  1.462329  5.276498
H    -2.208544  -0.021606  1.451388
H    -2.555725  -0.279039  3.619880
C    -0.609963  -1.240175  3.907774
C    -0.871711  -2.599824  3.224398
C    -2.110033  -3.363993  3.725649
C    -2.384134  -4.706751  3.043716
N    -1.421705  -5.816783  3.458586
H    -0.733533  -1.339869  4.997446
H    0.442337  -0.966134  3.750027
H    0.037733  -3.196490  3.397354
H    -0.929607  -2.468538  2.132204
H    -3.023804  -2.774044  3.554578
H    -2.060237  -3.506781  4.817807
H    -2.314902  -4.643830  1.950269
H    -3.382542  -5.079324  3.301083
H    -1.666817  -6.703751  2.991717
H    -1.457115  -5.991969  4.473743
H    -0.444076  -5.608631  3.212130
N    -0.107225  1.854845  4.118454
C    0.212651  2.999517  4.919903
H    0.551907  1.391813  2.847201
H    1.159734  3.460544  4.608761
H    0.361411  2.729063  5.995471
H    -0.549463  3.814244  4.809226
Pb    -2.185427  3.062151  6.735085
