35
Energy: -608358.017691 eV PBE+vdW (tier 2 basis)
C    1.753060  2.876225  1.386591
C    1.051319  1.929519  2.297409
O    1.638704  0.844289  2.638934
H    1.170387  3.771568  1.146103
H    2.001513  2.345717  0.454848
H    2.710329  3.175362  1.837096
N    -0.181787  2.238901  2.717406
C    -1.166358  1.453923  3.503674
C    -0.673312  1.213015  4.947051
O    0.223488  0.341130  5.222859
H    -0.526899  3.136430  2.382531
H    -2.029113  2.130663  3.577432
C    -1.651409  0.173398  2.781920
C    -2.960067  -0.397427  3.365180
C    -3.436761  -1.695687  2.670803
C    -4.259684  -1.553914  1.383931
N    -5.762332  -1.477137  1.644771
H    -0.868006  -0.597978  2.808423
H    -1.780634  0.440381  1.722626
H    -3.746555  0.375397  3.331024
H    -2.817686  -0.626833  4.431600
H    -3.998585  -2.308733  3.392409
H    -2.563472  -2.313140  2.415353
H    -4.130415  -2.427065  0.734098
H    -4.007763  -0.659604  0.800451
H    -6.026351  -0.679088  2.239322
H    -6.105595  -2.332062  2.108924
H    -6.287967  -1.385063  0.761328
N    -1.235938  1.916120  5.910576
C    -0.912068  1.832012  7.340408
H    -1.943409  2.600232  5.647157
H    -1.838583  1.938554  7.914391
H    -0.229050  2.646969  7.615363
H    -0.447994  0.867227  7.557348
Pb    2.128990  -0.476300  4.349661
