35
Energy: -608355.803439 eV PBE+vdW (tier 2 basis)
C    0.467836  -1.058887  1.643364
C    -0.162127  -0.806264  2.980131
O    0.302282  -1.246157  4.030832
H    0.405640  -2.125412  1.384443
H    1.538905  -0.830543  1.735421
H    0.051777  -0.453791  0.831485
N    -1.307601  -0.002234  3.053015
C    -2.460866  -0.223838  2.196866
C    -2.917510  1.035621  1.440864
O    -3.352230  0.879344  0.209541
H    -1.541186  0.152948  4.033968
H    -2.165579  -0.925237  1.405756
C    -3.673390  -0.833733  2.990841
C    -3.286591  -1.811099  4.120838
C    -2.631604  -3.147849  3.724324
C    -2.105592  -3.935493  4.933145
N    -0.677244  -3.559407  5.321768
H    -4.344827  -1.324586  2.272065
H    -4.254598  -0.018951  3.447471
H    -4.220972  -2.033022  4.657848
H    -2.663637  -1.287575  4.863526
H    -1.822189  -3.025167  2.987185
H    -3.378576  -3.784580  3.229672
H    -2.728146  -3.766090  5.819912
H    -2.093685  -5.013187  4.739012
H    -0.510120  -3.710099  6.326145
H    -0.424956  -2.571454  5.085100
H    0.005114  -4.144698  4.821651
N    -2.916519  2.244705  1.945973
C    -2.544207  2.705456  3.295842
H    -3.222133  2.984738  1.311337
H    -2.940921  3.718028  3.415888
H    -1.452966  2.731060  3.401067
H    -2.991760  2.065829  4.062896
Pb    -4.145747  0.857215  -1.785798
