35
Energy: -608355.952502 eV PBE+vdW (tier 2 basis)
C    1.275710  0.634814  0.003408
C    0.888116  0.797891  1.447897
O    1.678342  1.079136  2.334225
H    2.154075  1.252504  -0.207637
H    0.465206  0.886802  -0.691496
H    1.565829  -0.414092  -0.165609
N    -0.488328  0.607331  1.715436
C    -1.004868  0.266971  3.043703
C    -2.532489  0.314637  2.999630
O    -3.225320  -0.458728  3.784991
H    -0.931345  0.083383  0.959514
H    -0.753754  -0.778566  3.300955
C    -0.484229  1.124209  4.246578
C    -0.705995  2.651969  4.275842
C    0.255263  3.560465  3.480192
C    1.710710  3.629671  3.952661
N    1.927977  4.657313  5.062433
H    0.579407  0.875581  4.342100
H    -0.970793  0.693831  5.135131
H    -0.685698  2.940131  5.339492
H    -1.731149  2.901147  3.959979
H    -0.167528  4.578091  3.459437
H    0.289583  3.254900  2.428582
H    2.373373  3.942128  3.138183
H    2.089506  2.676452  4.336787
H    1.686971  5.609061  4.748311
H    2.916767  4.678201  5.355036
H    1.368106  4.460269  5.903141
N    -3.133354  1.158716  2.199031
C    -4.577469  1.369185  2.048806
H    -2.496759  1.709043  1.614218
H    -4.733731  2.290127  1.480355
H    -5.052280  1.468306  3.031191
H    -5.027613  0.535041  1.493918
Pb    -4.190236  -2.081316  4.825810
