35
Energy: -608357.954083 eV PBE+vdW (tier 2 basis)
C    -1.745489  2.042679  0.287226
C    -1.311508  1.507419  1.610511
O    -0.461491  2.179071  2.295041
H    -2.238141  3.015096  0.434503
H    -2.423053  1.378622  -0.259534
H    -0.853460  2.237317  -0.325417
N    -1.827480  0.344155  2.018922
C    -1.593580  -0.547947  3.183807
C    -1.702356  0.115525  4.568085
O    -0.942277  1.065054  4.974381
H    -2.492257  -0.052207  1.356170
H    -2.464299  -1.215856  3.132753
C    -0.388640  -1.519562  3.019093
C    1.056121  -1.003475  2.921924
C    2.001648  -2.199821  2.652627
C    3.471339  -1.799170  2.526923
N    4.354859  -3.008477  2.245956
H    -0.616271  -2.102979  2.113284
H    -0.466784  -2.234993  3.852985
H    1.352673  -0.501952  3.856201
H    1.151714  -0.269819  2.107031
H    1.680485  -2.702429  1.725965
H    1.890746  -2.934595  3.466304
H    3.863367  -1.349967  3.447969
H    3.645343  -1.102071  1.697638
H    5.346700  -2.736505  2.162624
H    4.095604  -3.479449  1.365834
H    4.296247  -3.712464  2.997344
N    -2.590431  -0.408035  5.392701
C    -2.811637  -0.009533  6.787252
H    -3.190940  -1.152129  5.040085
H    -3.678472  0.662284  6.848544
H    -1.922160  0.491750  7.175263
H    -3.020680  -0.908937  7.376392
Pb    -0.049997  2.997863  4.307431
