35
Energy: -608357.686087 eV PBE+vdW (tier 2 basis)
C    0.120060  0.328357  -0.465608
C    0.328019  0.535475  0.987703
O    1.497456  0.818817  1.431627
H    0.361806  1.239687  -1.032202
H    -0.881755  -0.026646  -0.722361
H    0.857076  -0.424105  -0.793076
N    -0.678765  0.402901  1.882714
C    -1.977016  1.065393  1.732010
C    -1.734073  2.571971  2.071839
O    -0.575884  2.982839  2.441117
H    -0.351179  0.365782  2.849929
H    -2.255824  1.022441  0.667600
C    -3.084789  0.378317  2.564380
C    -3.395105  -1.044363  2.056760
C    -4.697194  -1.692375  2.581505
C    -4.630741  -2.216999  4.016247
N    -5.887249  -3.006398  4.364604
H    -3.993594  0.995250  2.495950
H    -2.796091  0.383731  3.627729
H    -2.542945  -1.712309  2.253543
H    -3.495673  -1.006062  0.961716
H    -4.920794  -2.536088  1.910048
H    -5.535078  -0.984473  2.477986
H    -4.559421  -1.421442  4.768044
H    -3.793084  -2.910904  4.161844
H    -5.849642  -3.371587  5.328531
H    -6.013007  -3.816169  3.738021
H    -6.739048  -2.430263  4.290103
N    -2.730253  3.422634  1.947669
C    -2.646466  4.871733  2.190329
H    -3.626824  3.064565  1.624088
H    -2.151089  5.369106  1.346466
H    -2.088933  5.063454  3.112269
H    -3.662958  5.262066  2.288764
Pb    1.708034  2.773215  2.559874
