35
Energy: -608358.275203 eV PBE+vdW (tier 2 basis)
C    0.403882  1.156414  0.354545
C    -0.057281  0.484303  1.600976
O    0.542466  -0.577717  1.992923
H    0.332408  0.438020  -0.476321
H    1.468121  1.414864  0.450093
H    -0.166922  2.055851  0.101208
N    -1.096717  1.004171  2.263531
C    -1.864811  0.492701  3.426903
C    -1.007356  0.478089  4.708802
O    -0.105760  -0.408342  4.916296
H    -1.477151  1.853019  1.849108
H    -2.635160  1.262056  3.575546
C    -2.609906  -0.833160  3.136734
C    -3.794839  -1.081401  4.091810
C    -4.703208  -2.239968  3.625002
C    -5.908428  -2.410730  4.552610
N    -6.854031  -3.502132  4.069667
H    -1.913397  -1.683707  3.153012
H    -2.979706  -0.757488  2.103713
H    -4.400530  -0.162855  4.154874
H    -3.430428  -1.285617  5.110835
H    -4.126719  -3.177792  3.585314
H    -5.052770  -2.033440  2.600681
H    -6.513549  -1.497349  4.612907
H    -5.613595  -2.696018  5.570163
H    -7.234770  -3.296752  3.133687
H    -7.659036  -3.603522  4.707342
H    -6.391842  -4.422094  4.017968
N    -1.256262  1.399595  5.618954
C    -0.558831  1.557635  6.901111
H    -1.979612  2.086293  5.410978
H    -1.292485  1.833480  7.666050
H    0.187379  2.359422  6.820641
H    -0.070193  0.619573  7.173450
Pb    1.424038  -1.580397  3.756892
