35
Energy: -608357.392820 eV PBE+vdW (tier 2 basis)
C    -0.021909  0.176522  1.073194
C    -0.465264  0.219199  2.492054
O    0.367887  0.560183  3.405170
H    -0.796549  0.527704  0.385076
H    0.251924  -0.855615  0.794403
H    0.880680  0.788544  0.964938
N    -1.722122  -0.101297  2.869805
C    -2.463305  -1.291460  2.410219
C    -1.566642  -2.519133  2.752452
O    -0.583649  -2.399061  3.567025
H    -1.929379  0.166904  3.832338
H    -3.312078  -1.359325  3.110685
C    -3.078887  -1.179750  0.985366
C    -4.391233  -1.981220  0.800211
C    -5.393248  -1.414412  -0.233982
C    -4.996325  -1.597162  -1.699642
N    -6.129331  -1.173521  -2.626600
H    -2.338356  -1.442801  0.217565
H    -3.303229  -0.110798  0.859219
H    -4.934138  -2.005846  1.756588
H    -4.189632  -3.034563  0.542365
H    -5.570674  -0.348259  -0.020805
H    -6.350818  -1.929848  -0.060186
H    -4.788986  -2.646968  -1.943657
H    -4.128136  -0.994013  -1.992364
H    -6.982219  -1.731575  -2.466195
H    -5.871033  -1.293830  -3.618198
H    -6.386536  -0.183225  -2.497260
N    -1.855443  -3.699042  2.245413
C    -1.144651  -4.947510  2.565193
H    -2.653728  -3.763849  1.618938
H    -1.643815  -5.769007  2.045353
H    -1.173371  -5.130509  3.645623
H    -0.102370  -4.887714  2.230491
Pb    0.874482  -1.130383  4.824978
