35
Energy: -608357.549161 eV PBE+vdW (tier 2 basis)
C    0.071388  0.245754  0.006460
C    -0.130196  -0.044651  1.445065
O    0.854568  -0.449243  2.161241
H    0.460698  -0.680084  -0.452451
H    0.858463  0.998587  -0.141639
H    -0.844214  0.529159  -0.520380
N    -1.343872  0.062732  2.036841
C    -2.176601  1.265161  1.942085
C    -1.515056  2.314014  2.881846
O    -0.569017  1.957700  3.683146
H    -1.371922  -0.376376  2.957713
H    -2.078215  1.658496  0.919037
C    -3.681780  0.970893  2.159450
C    -4.126778  0.352996  3.497671
C    -5.650474  0.087571  3.483140
C    -6.148357  -0.560889  4.775404
N    -7.646779  -0.830498  4.726631
H    -3.969240  0.303952  1.333225
H    -4.233067  1.905957  1.991367
H    -3.875484  1.020327  4.337515
H    -3.607206  -0.602277  3.677107
H    -5.891337  -0.564415  2.628119
H    -6.182364  1.038342  3.318542
H    -5.985971  0.077238  5.653017
H    -5.675469  -1.533259  4.961885
H    -7.975260  -1.268541  5.601187
H    -7.899521  -1.467327  3.955892
H    -8.191790  0.035446  4.598974
N    -1.877194  3.580760  2.855339
C    -2.855188  4.264481  1.999694
H    -1.372337  4.177218  3.515422
H    -3.810556  4.383231  2.526541
H    -3.008743  3.723747  1.061263
H    -2.461940  5.259660  1.765317
Pb    1.357453  0.749845  4.018038
