35
Energy: -608356.749608 eV PBE+vdW (tier 2 basis)
C    0.083550  0.716884  0.256067
C    -0.716083  1.267532  1.377880
O    -0.325059  2.391943  1.943730
H    0.015111  1.391532  -0.609053
H    -0.245334  -0.277479  -0.056314
H    1.136507  0.653395  0.567416
N    -1.751345  0.659883  1.922202
C    -2.590399  -0.373135  1.288060
C    -2.919591  0.140799  -0.166111
O    -2.808523  1.336223  -0.422317
H    -2.185169  1.159686  2.700950
H    -2.018316  -1.312909  1.240150
C    -3.850067  -0.522784  2.180211
C    -4.848045  -1.662161  1.892200
C    -4.338578  -3.089838  2.193858
C    -5.371453  -4.051830  2.781807
N    -6.501896  -4.421933  1.824380
H    -4.402494  0.428144  2.124865
H    -3.505407  -0.634190  3.221381
H    -5.226853  -1.581761  0.862473
H    -5.710335  -1.444090  2.542315
H    -3.550973  -3.049657  2.962753
H    -3.859743  -3.550871  1.315114
H    -5.861240  -3.628242  3.667857
H    -4.907233  -5.003039  3.068279
H    -7.164521  -5.069283  2.278840
H    -6.150503  -4.896534  0.980230
H    -7.044468  -3.600905  1.521529
N    -3.322577  -0.806252  -1.031516
C    -3.707091  -0.508919  -2.416102
H    -3.247314  -1.780631  -0.759167
H    -4.531629  -1.164263  -2.714799
H    -2.860558  -0.663301  -3.097770
H    -4.030551  0.533654  -2.476095
Pb    0.633058  4.282600  2.103479
