35
Energy: -608357.330494 eV PBE+vdW (tier 2 basis)
C    -0.216623  0.608376  0.216642
C    -0.097261  -0.395095  1.301042
O    0.999899  -1.046360  1.438833
H    0.370357  1.488049  0.540371
H    0.258480  0.251443  -0.704548
H    -1.236656  0.949661  0.027055
N    -1.088713  -0.637437  2.189963
C    -2.497680  -0.895545  1.826671
C    -2.470027  -2.049274  0.779492
O    -1.449176  -2.821136  0.698644
H    -0.766161  -1.176168  2.994283
H    -2.920469  -1.356867  2.733761
C    -3.352468  0.359100  1.487081
C    -4.768831  0.409815  2.115819
C    -4.784799  0.849331  3.593010
C    -6.157359  0.899538  4.271536
N    -6.989037  2.124942  3.901395
H    -3.438735  0.471156  0.397059
H    -2.786341  1.235662  1.830156
H    -5.277646  -0.564143  2.020034
H    -5.353751  1.112773  1.503118
H    -4.277763  1.821691  3.706180
H    -4.195907  0.148500  4.205181
H    -6.047450  0.947175  5.361267
H    -6.779493  0.028133  4.031050
H    -7.890060  2.116514  4.404964
H    -7.209362  2.173583  2.896992
H    -6.511557  3.001869  4.158593
N    -3.518489  -2.262510  0.012532
C    -3.643210  -3.364006  -0.956191
H    -4.303154  -1.620400  0.086582
H    -4.677305  -3.394939  -1.308965
H    -3.392023  -4.315194  -0.474872
H    -2.976613  -3.195259  -1.810997
Pb    0.790703  -3.259407  1.020684
