35
Energy: -608356.416421 eV PBE+vdW (tier 2 basis)
C    0.297559  0.716232  1.101489
C    -0.333950  0.539283  2.433539
O    0.424186  0.584772  3.509644
H    1.139810  0.017264  1.000716
H    0.704367  1.736014  1.022054
H    -0.387826  0.547838  0.267344
N    -1.623249  0.342083  2.623265
C    -2.719588  0.171773  1.638357
C    -3.927166  1.071769  2.076940
O    -5.010460  0.566888  2.385410
H    -1.903548  0.202257  3.598560
H    -2.363749  0.567843  0.679002
C    -3.001623  -1.351212  1.512780
C    -4.369510  -1.847016  1.011950
C    -4.945355  -1.238946  -0.280315
C    -6.457536  -1.434499  -0.365096
N    -7.184283  -0.487077  0.592013
H    -2.852021  -1.808828  2.502208
H    -2.198810  -1.749815  0.873500
H    -5.082650  -1.738239  1.837836
H    -4.260224  -2.932044  0.865749
H    -4.504582  -1.719578  -1.164652
H    -4.719119  -0.165500  -0.386788
H    -6.747625  -2.452859  -0.079741
H    -6.855111  -1.234195  -1.365830
H    -8.076637  -0.882044  0.918232
H    -7.402839  0.404904  0.130037
H    -6.595523  -0.259876  1.418371
N    -3.733044  2.406544  2.071817
C    -2.583122  3.189471  1.625595
H    -4.548308  2.931375  2.387863
H    -2.931461  4.193766  1.364662
H    -2.129478  2.760780  0.723616
H    -1.824551  3.292681  2.414419
Pb    2.157662  0.600966  4.773564
