35
Energy: -608356.068307 eV PBE+vdW (tier 2 basis)
C    0.277565  0.787496  -0.674310
C    0.400590  0.533507  0.797848
O    1.424694  0.763071  1.433073
H    0.786590  1.718835  -0.945318
H    -0.751451  0.799430  -1.049440
H    0.820125  -0.021509  -1.190657
N    -0.663655  -0.109044  1.473243
C    -2.068665  0.309543  1.459807
C    -2.900486  -0.594436  0.535166
O    -4.174906  -0.366715  0.373322
H    -0.346378  -0.391336  2.400981
H    -2.449717  0.064191  2.465741
C    -2.346517  1.830621  1.227581
C    -1.283349  2.800263  1.782031
C    -0.921730  2.711254  3.277703
C    0.322325  3.533905  3.643311
N    1.620962  2.748125  3.488669
H    -3.322528  2.053937  1.680780
H    -2.446616  2.035238  0.152648
H    -1.664313  3.812859  1.581347
H    -0.376045  2.730045  1.167087
H    -0.776175  1.673737  3.619632
H    -1.754478  3.097876  3.881743
H    0.417177  4.424084  3.009592
H    0.294261  3.869111  4.685746
H    2.429207  3.380304  3.401331
H    1.620730  2.100412  2.665901
H    1.796392  2.163028  4.316737
N    -2.312849  -1.605800  -0.045850
C    -2.924476  -2.608295  -0.916640
H    -1.316882  -1.684600  0.200101
H    -2.137076  -3.262568  -1.302166
H    -3.420450  -2.125337  -1.769275
H    -3.636768  -3.225714  -0.350626
Pb    -6.273608  -0.515017  -0.058247
