35
Energy: -608356.815890 eV PBE+vdW (tier 2 basis)
C    -0.351524  0.257722  -1.151555
C    0.025102  0.765694  0.193980
O    1.241601  1.265469  0.358443
H    0.378972  -0.497061  -1.476460
H    -0.318191  1.082506  -1.879315
H    -1.348316  -0.189729  -1.178539
N    -0.762481  0.756564  1.234091
C    -2.198135  0.426620  1.324036
C    -2.642654  1.322207  2.514835
O    -1.775031  1.598899  3.359502
H    -0.473534  1.164843  2.155481
H    -2.687444  0.728239  0.389824
C    -2.473131  -1.085332  1.565229
C    -2.241174  -1.692743  2.968775
C    -3.411592  -1.501624  3.960068
C    -3.599930  -2.605240  4.999325
N    -2.539466  -2.610867  6.098239
H    -1.863990  -1.639759  0.836898
H    -3.515387  -1.266896  1.264824
H    -1.298249  -1.320282  3.398589
H    -2.097219  -2.771245  2.800615
H    -4.360118  -1.499340  3.400960
H    -3.364759  -0.523032  4.460756
H    -3.573212  -3.607184  4.552073
H    -4.556801  -2.489931  5.522288
H    -2.733016  -3.352851  6.788163
H    -2.520626  -1.717176  6.610680
H    -1.594486  -2.780461  5.728538
N    -3.919407  1.715126  2.589178
C    -4.984629  1.545295  1.596508
H    -4.115240  2.327731  3.380479
H    -5.057267  0.506432  1.254485
H    -4.845517  2.210980  0.733938
H    -5.936321  1.802654  2.070658
Pb    3.119229  2.165834  -0.037104
