35
Energy: -608356.237104 eV PBE+vdW (tier 2 basis)
C    -0.178829  -0.698084  0.445749
C    -0.306847  -0.488624  1.909976
O    0.669979  -0.923677  2.681515
H    0.672718  -0.110536  0.069741
H    -1.068756  -0.414425  -0.115229
H    0.042723  -1.757261  0.253674
N    -1.310482  0.099853  2.533186
C    -2.596281  0.752956  2.149433
C    -3.838637  -0.082311  2.635589
O    -4.683817  0.544337  3.266773
H    -1.178984  0.126125  3.548022
H    -2.628177  1.611557  2.832699
C    -2.737528  1.304455  0.715419
C    -3.670546  2.536510  0.597170
C    -5.193307  2.290413  0.591968
C    -5.925807  3.606164  0.327131
N    -7.438354  3.435117  0.364317
H    -3.054460  0.523023  0.010053
H    -1.746345  1.651053  0.390779
H    -3.394448  3.030856  -0.346093
H    -3.416163  3.251732  1.394897
H    -5.516927  1.873644  1.556613
H    -5.448878  1.559309  -0.192236
H    -5.693778  4.022953  -0.661084
H    -5.692760  4.365571  1.084223
H    -7.918541  4.330000  0.184946
H    -7.761355  3.093415  1.281381
H    -7.766478  2.766207  -0.347435
N    -3.962563  -1.395352  2.344419
C    -3.170584  -2.254455  1.472755
H    -4.810727  -1.800591  2.738814
H    -3.774122  -3.132143  1.221437
H    -2.255771  -2.616012  1.964264
H    -2.918957  -1.758524  0.528085
Pb    2.571697  -1.618137  3.385175
