35
Energy: -608356.180816 eV PBE+vdW (tier 2 basis)
C    0.125120  0.013589  -0.186430
C    0.170561  0.150151  1.290696
O    1.291419  0.574585  1.837393
H    0.287665  1.000143  -0.645659
H    -0.815743  -0.392250  -0.556955
H    0.948396  -0.638422  -0.511825
N    -0.814615  -0.113228  2.129257
C    -2.216287  -0.605484  2.041190
C    -2.388044  -2.047651  2.658075
O    -3.332584  -2.175264  3.428429
H    -0.553412  0.056623  3.104344
H    -2.725445  0.013987  2.791076
C    -2.992470  -0.452842  0.717234
C    -4.517486  -0.509948  0.970652
C    -5.334186  -0.422327  -0.330126
C    -6.835124  -0.198390  -0.152618
N    -7.577469  -1.407976  0.411055
H    -2.708016  -1.231729  -0.005189
H    -2.750500  0.522703  0.268828
H    -4.791901  0.325747  1.633726
H    -4.754460  -1.431229  1.523930
H    -5.159756  -1.305404  -0.966365
H    -4.994406  0.438219  -0.927236
H    -7.313772  0.014201  -1.115775
H    -7.054653  0.632253  0.530079
H    -8.587924  -1.213850  0.482937
H    -7.252340  -1.666049  1.353156
H    -7.471299  -2.234715  -0.194723
N    -1.564756  -3.064017  2.321084
C    -0.540059  -3.151418  1.288249
H    -1.800828  -3.929045  2.806477
H    -0.358423  -4.210293  1.079294
H    0.415533  -2.713024  1.610777
H    -0.866037  -2.692195  0.347255
Pb    3.220385  1.449349  2.178079
