35
Energy: -608355.778776 eV PBE+vdW (tier 2 basis)
C    -1.698907  0.721211  -0.832243
C    -1.298416  -0.429851  0.041936
O    -0.275167  -0.543300  0.653143
H    -1.446345  0.490817  -1.884067
H    -1.103728  1.601375  -0.566476
H    -2.767805  0.961803  -0.796792
N    -2.215947  -1.631010  0.041962
C    -3.643384  -1.512888  0.517332
C    -4.526297  -1.056636  -0.652737
O    -4.209085  -1.432660  -1.844865
H    -1.726319  -2.301099  0.650866
H    -3.962432  -2.564472  0.643497
C    -3.833145  -0.898510  1.929823
C    -3.470846  0.570197  2.230984
C    -3.722187  0.888281  3.724889
C    -3.282731  2.305502  4.100639
N    -3.504008  2.591936  5.579738
H    -3.257375  -1.547137  2.608536
H    -4.881378  -1.094167  2.213870
H    -4.047515  1.265640  1.601216
H    -2.409409  0.755542  2.012994
H    -3.171899  0.159326  4.341313
H    -4.791481  0.756947  3.955777
H    -2.212321  2.467535  3.921628
H    -3.844380  3.075924  3.557623
H    -3.204209  3.549739  5.820695
H    -2.969598  1.948382  6.183156
H    -4.496407  2.510236  5.847977
N    -5.640342  -0.395149  -0.442222
C    -6.650371  -0.051601  -1.454897
H    -5.859808  -0.146557  0.520610
H    -6.816689  1.032201  -1.440986
H    -7.590077  -0.561659  -1.207189
H    -6.305007  -0.365320  -2.441520
Pb    -2.329206  -2.507782  -2.346505
