35
Energy: -608356.004074 eV PBE+vdW (tier 2 basis)
C    0.344493  1.602148  1.140497
C    -0.019896  0.317767  1.807144
O    0.912868  -0.556029  2.104583
H    1.026135  2.176880  1.787178
H    -0.522244  2.236853  0.924662
H    0.857634  1.396242  0.188629
N    -1.280442  0.065047  2.094602
C    -1.919188  -1.081354  2.783688
C    -3.211372  -1.452268  1.980663
O    -4.315392  -1.409113  2.533107
H    -1.923757  0.826828  1.866393
H    -1.219972  -1.927451  2.730338
C    -2.148180  -0.646443  4.259669
C    -3.162211  -1.328869  5.204291
C    -3.119098  -2.845432  5.469433
C    -3.872402  -3.784300  4.524574
N    -5.311563  -3.351561  4.312031
H    -2.437471  0.415328  4.245142
H    -1.152050  -0.676825  4.727703
H    -4.173326  -1.002661  4.933789
H    -2.971741  -0.841977  6.172193
H    -3.517202  -3.009133  6.482766
H    -2.082879  -3.213377  5.518993
H    -3.899839  -4.798075  4.940986
H    -3.437089  -3.845751  3.520349
H    -5.316820  -2.510153  3.699052
H    -5.782953  -3.129044  5.200072
H    -5.863464  -4.087794  3.851349
N    -3.074749  -1.818047  0.690798
C    -1.872706  -2.023616  -0.112229
H    -3.966881  -1.995222  0.227941
H    -2.087640  -2.785466  -0.868846
H    -1.045783  -2.397213  0.503523
H    -1.568686  -1.105574  -0.634850
Pb    3.068813  -0.819260  2.136258
