35
Energy: -608356.764343 eV PBE+vdW (tier 2 basis)
C    -2.288648  1.200984  -1.422671
C    -1.553814  1.061323  -0.133084
O    -0.301927  0.651078  -0.131377
H    -2.334831  0.225611  -1.931003
H    -1.760798  1.910177  -2.078177
H    -3.314878  1.560160  -1.290359
N    -2.151702  1.342055  1.000353
C    -1.668020  1.294154  2.396546
C    -2.906264  0.830106  3.204239
O    -3.931895  1.533185  3.117115
H    -3.123483  1.669382  0.938888
H    -0.831415  0.586611  2.455645
C    -1.238499  2.718293  2.833289
C    -0.846211  2.898391  4.312523
C    -1.957252  2.981542  5.381766
C    -2.993073  4.106142  5.183769
N    -4.399053  3.557832  5.017795
H    -2.049828  3.408787  2.557146
H    -0.377770  3.000259  2.210312
H    -0.262009  3.829140  4.361426
H    -0.142795  2.108079  4.615648
H    -1.456948  3.139745  6.345746
H    -2.471712  2.015769  5.495011
H    -2.796741  4.709064  4.289165
H    -3.024401  4.791007  6.037868
H    -5.065631  4.298350  4.759333
H    -4.741077  3.143918  5.895478
H    -4.411998  2.811038  4.280421
N    -2.788561  -0.280710  3.931542
C    -3.863657  -0.845483  4.752946
H    -1.898010  -0.770053  3.931687
H    -3.890643  -1.931454  4.612984
H    -4.817896  -0.416162  4.435892
H    -3.689914  -0.632912  5.816076
Pb    1.362516  0.010887  -1.341484
