35
Energy: -608356.522766 eV PBE+vdW (tier 2 basis)
C    0.446044  -2.515239  0.268528
C    0.407985  -1.545952  1.389307
O    1.520309  -1.322798  2.068437
H    -0.492302  -2.570307  -0.288059
H    0.681340  -3.515138  0.665395
H    1.255844  -2.237793  -0.421224
N    -0.657546  -0.886298  1.790448
C    -2.072963  -0.820609  1.303284
C    -2.642419  -2.160690  0.749061
O    -2.873532  -2.299913  -0.463984
H    -0.483600  -0.259911  2.580845
H    -2.629610  -0.606055  2.227715
C    -2.319626  0.369658  0.356311
C    -1.589700  0.376944  -0.999842
C    -2.374116  1.077129  -2.129619
C    -3.750989  0.512692  -2.476031
N    -3.712618  -0.963779  -2.830253
H    -3.411076  0.370830  0.219172
H    -2.107801  1.298947  0.904889
H    -1.347772  -0.647002  -1.312547
H    -0.628328  0.900182  -0.901032
H    -1.748026  1.091695  -3.034511
H    -2.539950  2.135023  -1.875845
H    -4.471905  0.600525  -1.654103
H    -4.172717  1.040166  -3.339568
H    -4.645532  -1.298450  -3.107537
H    -3.081579  -1.145316  -3.622143
H    -3.395174  -1.530207  -2.007978
N    -2.908840  -3.128860  1.638864
C    -2.863660  -3.076139  3.102803
H    -3.345559  -3.952166  1.222976
H    -1.873935  -2.778971  3.470392
H    -3.067963  -4.081085  3.483702
H    -3.630038  -2.401251  3.508435
Pb    3.526363  -1.380352  2.806373
