35
Energy: -608356.594069 eV PBE+vdW (tier 2 basis)
C    -0.034114  0.031403  -0.007523
C    -0.155249  -0.043763  1.487366
O    0.814172  -0.137152  2.250432
H    0.724098  -0.685636  -0.343728
H    0.323040  1.032476  -0.291809
H    -0.976250  -0.152796  -0.535674
N    -1.438406  0.005316  2.000694
C    -1.656167  0.131508  3.437188
C    -2.853123  -0.737759  3.820036
O    -2.789696  -2.033464  3.639267
H    -2.184401  0.283268  1.366414
H    -0.777144  -0.356829  3.895453
C    -1.742340  1.591158  3.948535
C    -0.450697  2.410601  3.745771
C    0.706356  1.986737  4.666817
C    2.077982  2.554712  4.317411
N    2.620195  1.997452  2.996061
H    -1.977734  1.580741  5.025862
H    -2.562439  2.115860  3.430289
H    -0.698977  3.463986  3.937063
H    -0.167092  2.368111  2.683316
H    0.797328  0.891099  4.718220
H    0.494332  2.319126  5.693885
H    2.807089  2.283246  5.088256
H    2.076580  3.647151  4.224343
H    3.631106  1.818695  3.058279
H    2.488799  2.661996  2.224065
H    2.141031  1.108466  2.724599
N    -3.938169  -0.208725  4.327572
C    -5.153082  -0.912699  4.752878
H    -3.924577  0.805802  4.446873
H    -5.883558  -0.168789  5.082828
H    -4.930714  -1.581561  5.595073
H    -5.580813  -1.476938  3.914528
Pb    -2.783108  -4.159685  3.510966
