35
Energy: -608355.507173 eV PBE+vdW (tier 2 basis)
C    -0.152825  -0.709378  0.820411
C    -0.584467  -0.671061  2.266720
O    0.150554  -0.995756  3.185638
H    -0.384153  0.218443  0.280399
H    -0.648825  -1.548925  0.310644
H    0.926635  -0.881122  0.783605
N    -1.900199  -0.319715  2.580916
C    -2.783321  0.606183  1.879591
C    -3.317919  -0.026811  0.580412
O    -3.193751  0.592114  -0.566692
H    -2.092505  -0.442949  3.573785
H    -3.686307  0.666072  2.514592
C    -2.248737  2.047557  1.741290
C    -1.978677  2.758369  3.092143
C    -0.596040  2.528639  3.742930
C    -0.441896  3.410687  4.984245
N    0.906244  3.214133  5.664524
H    -3.011394  2.635819  1.210819
H    -1.343297  2.065781  1.117073
H    -2.775431  2.500947  3.808579
H    -2.092820  3.836218  2.907071
H    0.195116  2.774841  3.016171
H    -0.453102  1.475215  4.024743
H    -1.198181  3.186452  5.747099
H    -0.505397  4.479489  4.744067
H    0.987683  3.808063  6.504213
H    1.691038  3.459616  5.043183
H    1.048080  2.238824  5.966946
N    -3.916807  -1.197242  0.603160
C    -4.233147  -2.044847  1.763355
H    -4.212578  -1.567004  -0.300932
H    -5.003828  -2.756691  1.452944
H    -4.623154  -1.440654  2.589696
H    -3.340955  -2.592257  2.091446
Pb    -3.333911  1.366923  -2.568878
