35
Energy: -608356.731850 eV PBE+vdW (tier 2 basis)
C    -0.118849  0.123429  -0.089604
C    -0.108495  -0.724631  1.132107
O    0.989073  -1.305993  1.542477
H    -0.474588  1.138479  0.143753
H    -0.808019  -0.287879  -0.843550
H    0.878750  0.191531  -0.530535
N    -1.203683  -0.914401  1.852712
C    -2.542567  -0.362987  1.572349
C    -2.688473  1.161755  1.916820
O    -3.341206  1.838012  1.128354
H    -1.103012  -1.508094  2.679825
H    -2.688194  -0.397116  0.486550
C    -3.615202  -1.219775  2.284240
C    -5.057338  -0.670091  2.231068
C    -5.688038  -0.601073  0.829214
C    -7.070116  0.046327  0.763914
N    -8.186149  -0.813696  1.354638
H    -3.340097  -1.316510  3.347353
H    -3.584407  -2.233024  1.854867
H    -5.087670  0.328373  2.693046
H    -5.645147  -1.327751  2.890809
H    -5.715329  -1.597604  0.358252
H    -5.069122  0.029498  0.173721
H    -7.366580  0.230329  -0.275237
H    -7.106590  1.000863  1.303984
H    -9.098984  -0.343490  1.257628
H    -8.050520  -1.003353  2.357022
H    -8.261035  -1.721244  0.872490
N    -2.121114  1.618320  3.048344
C    -2.278961  3.005276  3.503014
H    -1.712833  0.955641  3.699909
H    -3.181092  3.119750  4.118008
H    -2.361429  3.658314  2.629008
H    -1.403111  3.287793  4.095287
Pb    3.040744  -1.969629  1.510158
