35
Energy: -608356.703457 eV PBE+vdW (tier 2 basis)
C    0.109083  0.106420  -0.000356
C    -0.040430  -0.104651  1.458822
O    1.047166  -0.160193  2.204712
H    0.603787  1.073250  -0.179328
H    0.761899  -0.682916  -0.403156
H    -0.839694  0.042788  -0.539892
N    -1.181344  -0.252612  2.110708
C    -2.605338  -0.235728  1.660119
C    -2.869642  -1.426326  0.678156
O    -2.522031  -1.317743  -0.496004
H    -1.060436  -0.414883  3.111975
H    -3.160673  -0.400790  2.593370
C    -3.010038  1.120971  1.049182
C    -4.473701  1.252641  0.576747
C    -5.550532  1.209074  1.678882
C    -6.837529  1.972276  1.366060
N    -7.642373  1.387295  0.207689
H    -2.376356  1.318165  0.176119
H    -2.792225  1.904640  1.790460
H    -4.668994  0.497520  -0.200542
H    -4.520461  2.229277  0.069479
H    -5.170929  1.692934  2.592916
H    -5.793042  0.174297  1.969642
H    -6.634953  3.014612  1.088625
H    -7.517723  1.971988  2.226063
H    -8.499806  1.937870  0.046997
H    -7.937221  0.418522  0.396258
H    -7.113580  1.388280  -0.675769
N    -3.488720  -2.493186  1.214248
C    -3.806208  -3.703259  0.450424
H    -3.710370  -2.490855  2.204935
H    -3.164903  -4.534731  0.768805
H    -3.636117  -3.501784  -0.610592
H    -4.853651  -3.981331  0.611577
Pb    3.148696  -0.151873  2.608691
