35
Energy: -608357.024518 eV PBE+vdW (tier 2 basis)
C    -0.621980  1.086879  1.887025
C    -0.852057  -0.406898  1.933316
O    0.261008  -1.116827  2.298477
H    0.189865  1.335361  1.193850
H    -1.524027  1.617245  1.563535
H    -0.370790  1.433989  2.897077
N    -2.019535  -0.867884  2.612466
C    -3.145436  -1.004405  1.674763
C    -2.429338  -1.081579  0.324354
O    -1.164255  -0.810957  0.396332
H    -1.819201  -1.745595  3.090726
H    -3.649656  -1.964198  1.867499
C    -4.207155  0.121406  1.740599
C    -5.001660  0.107879  3.057150
C    -6.124066  1.165777  3.080314
C    -6.918794  1.103614  4.384199
N    -8.053337  2.120319  4.406622
H    -4.898614  -0.011853  0.893252
H    -3.723885  1.098092  1.592520
H    -4.313778  0.274099  3.899486
H    -5.443101  -0.891088  3.203565
H    -6.802410  1.000435  2.227486
H    -5.690747  2.171286  2.956300
H    -6.297759  1.325762  5.260884
H    -7.390935  0.124692  4.534871
H    -7.705909  3.086147  4.313721
H    -8.582101  2.070314  5.290701
H    -8.725340  1.961444  3.641372
N    -3.001217  -1.379270  -0.811742
C    -2.346516  -1.439227  -2.127923
H    -3.989919  -1.623309  -0.781832
H    -2.985355  -0.934628  -2.860707
H    -2.214325  -2.486850  -2.425526
H    -1.376749  -0.939365  -2.077172
Pb    2.271446  -1.594074  2.511706
