35
Energy: -608355.712182 eV PBE+vdW (tier 2 basis)
C    -1.256539  0.483960  -2.230595
C    -0.548980  0.256757  -0.924196
O    0.670615  0.106442  -0.859960
H    -2.324769  0.710163  -2.146022
H    -1.139813  -0.428575  -2.834014
H    -0.757696  1.286369  -2.787622
N    -1.283912  0.146225  0.249515
C    -2.510323  0.847852  0.628693
C    -3.764081  0.217578  -0.010398
O    -4.683541  0.982089  -0.556513
H    -0.689983  -0.121165  1.032823
H    -2.642015  0.613753  1.701991
C    -2.427736  2.388097  0.525901
C    -1.227706  3.001808  1.292711
C    0.106416  3.110547  0.500879
C    1.301388  2.484911  1.231033
N    2.404762  2.100748  0.264210
H    -3.350093  2.799896  0.961023
H    -2.398957  2.703075  -0.528156
H    -1.073771  2.446850  2.231688
H    -1.527478  4.006835  1.611274
H    0.323796  4.167354  0.296363
H    -0.000869  2.638804  -0.484386
H    1.033810  1.552376  1.741921
H    1.734984  3.163672  1.974775
H    3.236896  1.751415  0.761211
H    2.710494  2.894170  -0.316323
H    2.054720  1.338384  -0.354924
N    -3.967503  -1.078595  0.000257
C    -3.168089  -2.142995  0.630156
H    -4.814272  -1.398223  -0.473700
H    -3.822608  -3.010910  0.757798
H    -2.803979  -1.825245  1.612260
H    -2.323013  -2.418150  -0.012564
Pb    -6.407561  2.088698  -1.186380
