35
Energy: -608357.717522 eV PBE+vdW (tier 2 basis)
C    0.597050  0.952406  0.192772
C    0.248382  0.444656  1.540329
O    1.174343  0.222608  2.400235
H    1.320104  0.239174  -0.239594
H    -0.257827  1.031072  -0.484322
H    1.133952  1.909640  0.257129
N    -1.027317  0.168149  1.896861
C    -2.147462  1.096443  1.714971
C    -1.872413  2.284634  2.684146
O    -1.018799  2.169642  3.634558
H    -1.096788  -0.390507  2.749796
H    -2.123525  1.479727  0.683999
C    -3.479924  0.336677  1.954759
C    -4.767053  1.030808  1.472323
C    -5.979274  0.073015  1.534610
C    -7.257926  0.735642  1.018633
N    -8.442278  -0.221083  1.046439
H    -3.566412  0.082770  3.023365
H    -3.365651  -0.614065  1.412607
H    -4.634681  1.373959  0.433422
H    -4.983880  1.919511  2.085405
H    -6.127929  -0.264971  2.572533
H    -5.760188  -0.823073  0.932305
H    -7.162418  1.063545  -0.024112
H    -7.555123  1.599091  1.626742
H    -8.648839  -0.554368  1.999984
H    -8.280472  -1.052956  0.459004
H    -9.297453  0.236168  0.693687
N    -2.527626  3.414577  2.509422
C    -2.378018  4.622403  3.335704
H    -3.156074  3.477318  1.711245
H    -3.275556  5.235871  3.216671
H    -1.505283  5.201507  3.006709
H    -2.261793  4.341326  4.386225
Pb    0.986168  1.305324  4.380552
