35
Energy: -608356.693004 eV PBE+vdW (tier 2 basis)
C    -0.569224  -0.486592  -0.033245
C    -0.127031  -0.539488  1.384086
O    0.731424  -1.453887  1.773040
H    -1.425480  -1.168337  -0.172359
H    0.236122  -0.822459  -0.695890
H    -0.885021  0.516216  -0.339168
N    -0.578842  0.296688  2.301122
C    -1.638919  1.325717  2.142026
C    -1.131562  2.659003  1.508941
O    -1.927695  3.293076  0.807480
H    -0.227541  0.151898  3.251808
H    -2.375320  0.929477  1.432091
C    -2.312006  1.543006  3.524434
C    -3.746705  2.109250  3.533169
C    -3.934890  3.600863  3.156972
C    -4.719346  3.792665  1.851894
N    -4.242972  5.019156  1.099283
H    -1.655867  2.164379  4.155231
H    -2.371269  0.555306  4.007981
H    -4.113503  1.957648  4.556131
H    -4.389986  1.472884  2.906194
H    -2.955625  4.094215  3.077969
H    -4.460688  4.116959  3.970044
H    -5.794655  3.914009  2.025599
H    -4.570258  2.960263  1.156293
H    -4.289622  5.871353  1.674910
H    -3.260353  4.855172  0.811914
H    -4.804462  5.190267  0.253231
N    0.118730  3.058334  1.781749
C    0.675300  4.328786  1.302765
H    0.675110  2.527877  2.444028
H    1.766577  4.254069  1.288934
H    0.384396  5.159329  1.959304
H    0.312008  4.524174  0.289195
Pb    1.962369  -3.217072  1.748741
