35
Energy: -608356.382473 eV PBE+vdW (tier 2 basis)
C    -0.044481  -0.874211  0.154317
C    -0.142288  -1.359109  1.568565
O    0.794914  -1.883671  2.182519
H    0.664157  -0.034792  0.109106
H    -1.000407  -0.547480  -0.268948
H    0.378017  -1.673824  -0.468015
N    -1.364714  -1.206404  2.207203
C    -1.393673  -1.499852  3.637672
C    -2.813397  -1.811272  4.084887
O    -3.536181  -2.657542  3.392246
H    -2.001036  -0.507357  1.829063
H    -0.874638  -2.475248  3.722606
C    -0.566632  -0.501992  4.504614
C    0.442484  -1.203802  5.435966
C    1.717129  -0.398041  5.748871
C    2.626182  -0.025756  4.577559
N    3.106227  -1.226863  3.775346
H    -1.191694  0.214633  5.061602
H    -0.038268  0.133866  3.784212
H    0.722912  -2.169351  4.986003
H    -0.028169  -1.460547  6.395568
H    2.302704  -0.956386  6.495164
H    1.460765  0.552034  6.241766
H    3.522627  0.483212  4.950529
H    2.148112  0.641301  3.849734
H    2.339612  -1.614532  3.182141
H    3.468847  -1.971587  4.386323
H    3.874870  -0.957648  3.145663
N    -3.308039  -1.302159  5.183905
C    -4.618813  -1.587344  5.780256
H    -2.708285  -0.636588  5.673123
H    -4.707174  -1.010231  6.704639
H    -4.703063  -2.654864  6.020654
H    -5.422062  -1.284177  5.096844
Pb    -4.612361  -4.105012  2.262485
