35
Energy: -608356.608229 eV PBE+vdW (tier 2 basis)
C    0.166072  0.375683  0.942418
C    -0.206375  0.044677  2.337840
O    0.746323  -0.051419  3.245574
H    -0.684223  0.339407  0.256204
H    0.902868  -0.361923  0.590047
H    0.647315  1.365110  0.918391
N    -1.434329  -0.174804  2.774159
C    -2.757622  -0.135195  2.086228
C    -2.811516  -1.268503  1.004448
O    -2.373330  -1.024400  -0.119176
H    -1.483676  -0.412962  3.766457
H    -3.463220  -0.359513  2.895657
C    -3.098118  1.249417  1.498648
C    -4.600311  1.495409  1.227371
C    -5.195246  0.788140  -0.004336
C    -6.661392  1.108040  -0.297212
N    -6.879608  2.497304  -0.892448
H    -2.527695  1.405653  0.573747
H    -2.764563  2.003636  2.225119
H    -4.697917  2.587712  1.119116
H    -5.187943  1.237349  2.123256
H    -5.172565  -0.303140  0.128520
H    -4.580027  0.974065  -0.899530
H    -7.289258  1.065843  0.601998
H    -7.073685  0.410999  -1.036012
H    -7.878162  2.654331  -1.097581
H    -6.366721  2.613446  -1.778711
H    -6.580961  3.250524  -0.257854
N    -3.346079  -2.450219  1.364770
C    -3.886141  -2.864640  2.661414
H    -3.349679  -3.141375  0.615566
H    -4.190264  -3.912352  2.579545
H    -4.774829  -2.285367  2.944526
H    -3.133709  -2.807150  3.459330
Pb    2.732769  -0.051742  4.039186
