35
Energy: -608356.304202 eV PBE+vdW (tier 2 basis)
C    -0.527726  -0.830421  0.069096
C    -0.345021  -0.338101  1.474549
O    0.745485  -0.348734  2.058255
H    0.289325  -0.449067  -0.555243
H    -1.489107  -0.559522  -0.381193
H    -0.445086  -1.927703  0.068887
N    -1.480237  0.148495  2.092171
C    -1.705112  0.444201  3.505667
C    -1.905711  1.943416  3.791923
O    -2.823809  2.253989  4.687211
H    -2.328310  0.079635  1.535576
H    -2.699981  0.026342  3.722609
C    -0.755966  -0.234638  4.546546
C    0.583330  0.433734  4.897252
C    1.585787  -0.511348  5.593224
C    2.098938  -1.723604  4.814909
N    2.868593  -1.357815  3.557924
H    -0.612249  -1.251817  4.158469
H    -1.342509  -0.359515  5.468731
H    0.410505  1.274569  5.585966
H    1.046719  0.859189  4.000552
H    1.140668  -0.921372  6.512912
H    2.445051  0.085134  5.936433
H    1.298928  -2.397668  4.485401
H    2.781387  -2.305414  5.445557
H    3.320773  -2.189429  3.153568
H    3.615232  -0.677429  3.753575
H    2.222463  -0.961470  2.837246
N    -1.261123  2.929213  3.222526
C    -0.176671  2.915618  2.229282
H    -1.563222  3.864534  3.505732
H    -0.600305  3.049453  1.224870
H    0.393506  1.986939  2.280352
H    0.479576  3.764508  2.450735
Pb    -4.470714  2.748524  5.959879
