35
Energy: -608356.546743 eV PBE+vdW (tier 2 basis)
C    -0.317734  0.380747  -0.074430
C    -0.005676  -0.259150  1.233290
O    1.164780  -0.803882  1.453319
H    0.574209  0.433416  -0.704246
H    -0.718116  1.395930  0.058575
H    -1.086080  -0.198719  -0.611047
N    -0.888881  -0.304569  2.218011
C    -2.249678  0.256409  2.184420
C    -2.302161  1.812130  2.427621
O    -2.973935  2.442189  1.616533
H    -0.574439  -0.743038  3.086205
H    -2.607463  0.167836  1.152857
C    -3.208681  -0.528393  3.106082
C    -4.642756  0.040807  3.104516
C    -5.601287  -0.828725  3.938760
C    -6.965774  -0.217230  4.250400
N    -7.901455  -0.145353  3.045659
H    -3.221817  -1.574705  2.763801
H    -2.826187  -0.536820  4.138551
H    -4.991429  0.128442  2.062667
H    -4.631452  1.063586  3.510994
H    -5.154004  -1.021789  4.926370
H    -5.730529  -1.823646  3.482326
H    -6.887733  0.809116  4.630755
H    -7.499067  -0.819045  4.995725
H    -8.818894  0.238547  3.319242
H    -8.072542  -1.078263  2.642795
H    -7.533772  0.457346  2.296763
N    -1.678885  2.375711  3.482403
C    -0.874284  1.771214  4.539255
H    -1.794800  3.388064  3.514940
H    -0.821930  2.478274  5.373422
H    0.157105  1.569015  4.215251
H    -1.331078  0.854985  4.932879
Pb    3.145244  -1.501624  0.966246
