35
Energy: -608356.264097 eV PBE+vdW (tier 2 basis)
C    -0.032755  0.044350  0.155450
C    -0.167160  -0.114237  1.639276
O    0.748173  -0.520199  2.367733
H    0.170019  -0.943787  -0.281734
H    0.839735  0.670616  -0.071675
H    -0.916287  0.472141  -0.331012
N    -1.388174  0.215860  2.193417
C    -1.599370  0.089509  3.621849
C    -2.965418  -0.488135  3.953799
O    -4.036959  -0.109182  3.289157
H    -2.043337  0.735748  1.620191
H    -0.855105  -0.658535  3.937044
C    -1.348575  1.374634  4.481655
C    0.146246  1.628467  4.783882
C    0.921916  2.397601  3.697415
C    2.442597  2.279617  3.766648
N    2.937154  0.858424  3.491233
H    -1.875923  1.261904  5.441022
H    -1.809047  2.239665  3.980771
H    0.615548  0.655494  4.998276
H    0.203769  2.197326  5.722422
H    0.698145  3.470825  3.785427
H    0.595033  2.116530  2.687682
H    2.846636  2.572744  4.743054
H    2.905104  2.919533  3.007141
H    3.853367  0.872008  3.024390
H    2.260690  0.320305  2.896232
H    3.061084  0.323197  4.358924
N    -3.102669  -1.336228  4.944841
C    -2.048181  -1.898414  5.808974
H    -4.053846  -1.633404  5.167750
H    -2.504309  -2.677254  6.426486
H    -1.634954  -1.121776  6.464509
H    -1.254221  -2.348271  5.201408
Pb    -6.007994  0.185013  2.486118
