35
Energy: -608356.830104 eV PBE+vdW (tier 2 basis)
C    0.038696  -0.391892  0.459522
C    -0.115399  0.038175  1.874826
O    0.976313  0.181249  2.612266
H    -0.914314  -0.603345  -0.032022
H    0.663094  -1.295108  0.414192
H    0.556162  0.396186  -0.109394
N    -1.262226  0.291389  2.444982
C    -2.598824  0.407692  1.832746
C    -3.286889  1.442347  2.771471
O    -2.883439  1.495127  3.944363
H    -1.328399  0.643207  3.429353
H    -2.475824  0.815512  0.821349
C    -3.398562  -0.927315  1.737655
C    -4.299563  -1.365667  2.910115
C    -3.598760  -1.844545  4.193341
C    -4.451043  -2.732807  5.100186
N    -5.647873  -2.013716  5.718478
H    -2.695449  -1.735614  1.484474
H    -4.047739  -0.819014  0.857592
H    -4.908103  -2.191520  2.507974
H    -5.007857  -0.551794  3.135803
H    -3.195474  -0.994943  4.766049
H    -2.735976  -2.476723  3.929801
H    -3.868089  -3.112194  5.947609
H    -4.869195  -3.591426  4.559233
H    -6.316553  -1.688594  5.006562
H    -5.358001  -1.195690  6.273577
H    -6.164897  -2.643836  6.350581
N    -4.276303  2.168715  2.246513
C    -5.019405  3.194825  2.983449
H    -4.488386  2.061179  1.257816
H    -4.843086  4.178778  2.532262
H    -4.672819  3.204444  4.019796
H    -6.093559  2.977424  2.947952
Pb    3.012102  0.522510  3.108357
