35
Energy: -608356.236546 eV PBE+vdW (tier 2 basis)
C    -0.252372  0.273102  -0.258837
C    0.079261  -0.005645  1.174865
O    1.208591  -0.275757  1.566581
H    -1.286266  0.588258  -0.433450
H    -0.018088  -0.600065  -0.883326
H    0.419452  1.074484  -0.600456
N    -0.954636  0.095388  2.140327
C    -2.210752  -0.631297  1.976287
C    -3.400049  0.324396  2.170931
O    -4.622114  -0.124301  2.092993
H    -0.547488  -0.022393  3.071164
H    -2.283636  -0.974931  0.931950
C    -2.308886  -1.869843  2.928159
C    -0.990568  -2.650414  3.124289
C    -0.379186  -3.289709  1.866857
C    1.013160  -3.899634  2.046371
N    2.090593  -2.875902  2.404159
H    -3.087469  -2.540945  2.539958
H    -2.644277  -1.533059  3.920679
H    -1.202504  -3.438165  3.862256
H    -0.260583  -1.991434  3.621208
H    -0.341841  -2.585650  1.022027
H    -1.020534  -4.115892  1.524763
H    1.337634  -4.369090  1.111100
H    1.036207  -4.664454  2.832086
H    3.015372  -3.195363  2.083606
H    2.167569  -2.738660  3.419832
H    1.906031  -1.935566  1.985926
N    -3.148885  1.583546  2.407196
C    -4.114722  2.658598  2.622976
H    -2.139540  1.792406  2.410505
H    -4.669241  2.869494  1.697360
H    -3.571452  3.563349  2.911434
H    -4.803823  2.397547  3.437758
Pb    -6.759910  -0.318081  2.004663
