35
Energy: -608358.227496 eV PBE+vdW (tier 2 basis)
C    -0.931008  1.285283  -0.512206
C    -1.069909  -0.021540  0.191239
O    -0.305845  -0.990566  -0.143949
H    -1.033270  1.117440  -1.594251
H    0.085761  1.674180  -0.354621
H    -1.656669  2.039912  -0.191176
N    -2.003908  -0.137690  1.145095
C    -2.432546  -1.312236  1.942147
C    -1.314561  -1.819118  2.869539
O    -0.312575  -2.489379  2.423364
H    -2.531782  0.714055  1.322524
H    -3.214494  -0.907005  2.595758
C    -3.079156  -2.456658  1.122355
C    -4.458354  -2.074413  0.548290
C    -5.191610  -3.264245  -0.108441
C    -6.580467  -2.851319  -0.602480
N    -7.347176  -4.019877  -1.207413
H    -3.187877  -3.315576  1.803020
H    -2.403589  -2.780708  0.317888
H    -4.347053  -1.262433  -0.186667
H    -5.085633  -1.676484  1.362102
H    -5.288684  -4.081930  0.623781
H    -4.597322  -3.653395  -0.950426
H    -6.532057  -2.085423  -1.386596
H    -7.210504  -2.470709  0.211303
H    -6.859801  -4.425158  -2.020297
H    -8.280124  -3.721409  -1.532184
H    -7.493799  -4.779875  -0.526317
N    -1.397486  -1.615589  4.169614
C    -2.425478  -0.909428  4.952141
H    -0.631082  -2.029941  4.706199
H    -3.351953  -1.495371  5.001569
H    -2.618820  0.088523  4.543203
H    -2.041530  -0.788570  5.969416
Pb    1.025366  -2.597345  0.639477
