35
Energy: -608356.848912 eV PBE+vdW (tier 2 basis)
C    -0.010702  -1.491364  1.814551
C    0.187118  -0.093727  1.348983
O    1.375993  0.463542  1.501720
H    0.268244  -1.565837  2.875762
H    -1.038469  -1.845864  1.705247
H    0.652374  -2.163817  1.249043
N    -0.747239  0.631973  0.786300
C    -2.127710  0.239804  0.425097
C    -2.476773  1.164487  -0.762694
O    -2.056495  2.343494  -0.716799
H    -0.534450  1.596743  0.486103
H    -2.115472  -0.813047  0.122498
C    -3.131057  0.429970  1.600425
C    -3.480523  1.880839  1.984161
C    -4.717925  2.460368  1.258003
C    -4.722960  3.983633  1.146513
N    -3.930401  4.455788  -0.072033
H    -2.710945  -0.097435  2.468603
H    -4.043127  -0.126008  1.337315
H    -2.604409  2.530298  1.834916
H    -3.677953  1.907860  3.063792
H    -5.623185  2.170351  1.808437
H    -4.849389  2.023165  0.255169
H    -4.270644  4.460824  2.024126
H    -5.734723  4.386987  1.029808
H    -3.578286  5.414440  0.049435
H    -3.127575  3.818137  -0.287156
H    -4.530066  4.467723  -0.907262
N    -3.236176  0.681134  -1.746017
C    -3.750447  -0.685043  -1.919115
H    -3.402848  1.335035  -2.510301
H    -4.469570  -0.672904  -2.743179
H    -4.279245  -1.031326  -1.023856
H    -2.947137  -1.385584  -2.181885
Pb    3.459563  0.589354  1.944708
