35
Energy: -608356.363220 eV PBE+vdW (tier 2 basis)
C    1.443724  0.518604  1.086445
C    0.709309  0.267756  2.345850
O    1.365773  0.370866  3.489989
H    2.168070  -0.297906  0.932175
H    2.014398  1.452688  1.177320
H    0.785016  0.543391  0.210841
N    -0.559996  -0.077261  2.456422
C    -1.683326  -0.326116  1.495647
C    -1.239255  -1.044572  0.192608
O    -0.756501  -0.390991  -0.738355
H    -0.848953  -0.212216  3.428060
H    -2.318771  -1.013259  2.067837
C    -2.562924  0.924422  1.234450
C    -1.996666  2.115819  0.426114
C    -2.500860  2.267445  -1.026969
C    -3.921621  2.824095  -1.111375
N    -4.334370  3.069451  -2.557880
H    -2.901767  1.275209  2.219737
H    -3.469170  0.520802  0.756356
H    -0.902951  2.064604  0.377459
H    -2.219194  3.041859  0.976090
H    -2.425806  1.302239  -1.549468
H    -1.819264  2.958877  -1.546685
H    -4.014706  3.794202  -0.606788
H    -4.679303  2.147733  -0.696110
H    -4.311422  2.203691  -3.116232
H    -3.707924  3.745567  -3.019643
H    -5.291077  3.449187  -2.618627
N    -1.447932  -2.372903  0.124387
C    -2.066229  -3.279672  1.095484
H    -1.198025  -2.769842  -0.781230
H    -3.148075  -3.111484  1.185712
H    -1.591412  -3.204349  2.081515
H    -1.917100  -4.304009  0.740807
Pb    2.995379  0.572398  4.855816
