35
Energy: -608356.770088 eV PBE+vdW (tier 2 basis)
C    1.051318  1.488530  0.161286
C    0.404268  1.677977  1.483146
O    0.617264  2.783323  2.105020
H    2.116434  1.745954  0.245116
H    0.620309  2.208560  -0.550979
H    0.943316  0.475115  -0.237571
N    -0.385367  0.722706  1.986757
C    -0.969838  0.596263  3.345108
C    -1.858162  1.786200  3.740290
O    -3.044046  1.475971  4.243100
H    -0.538549  -0.077484  1.377501
H    -1.643666  -0.267453  3.277489
C    0.087596  0.304269  4.445296
C    0.798921  -1.054465  4.284624
C    1.561826  -1.508360  5.552394
C    2.997579  -1.001604  5.742846
N    4.039936  -1.992231  5.227603
H    -0.455905  0.307435  5.403170
H    0.804678  1.137554  4.495625
H    1.468815  -1.035964  3.409570
H    0.043304  -1.823893  4.066898
H    1.559670  -2.608804  5.597473
H    0.994487  -1.203946  6.443371
H    3.238636  -0.865952  6.803266
H    3.198360  -0.054744  5.226612
H    4.997284  -1.631227  5.360067
H    3.927330  -2.202737  4.226109
H    3.983555  -2.888038  5.735817
N    -1.417054  2.992699  3.604005
C    -2.230115  4.116899  3.971593
H    -0.142738  2.978440  2.836267
H    -1.717895  5.067213  3.771139
H    -2.456676  4.128409  5.065510
H    -3.170821  4.165622  3.365578
Pb    -4.737657  2.646994  4.901415
