35
Energy: -608357.403801 eV PBE+vdW (tier 2 basis)
C    0.135497  1.107819  -0.036697
C    -0.133662  0.382385  1.226925
O    0.815763  -0.234288  1.827175
H    0.541429  0.367488  -0.748382
H    0.932673  1.852786  0.095832
H    -0.753478  1.561031  -0.483764
N    -1.373789  0.319474  1.767602
C    -2.220743  1.496717  2.010349
C    -1.417987  2.382167  3.001138
O    -0.561880  1.826133  3.787524
H    -1.459550  -0.394110  2.494141
H    -2.367099  2.033659  1.063828
C    -3.583551  0.993885  2.562893
C    -4.776647  1.967917  2.563620
C    -6.030022  1.264760  3.131083
C    -7.299866  2.109801  3.274060
N    -8.159556  2.160982  2.013139
H    -3.425345  0.612293  3.585041
H    -3.840751  0.122927  1.940663
H    -4.955502  2.329537  1.537801
H    -4.560461  2.850531  3.183761
H    -5.802545  0.912185  4.148215
H    -6.253193  0.348952  2.559026
H    -7.091222  3.152818  3.542965
H    -7.956012  1.688717  4.044649
H    -9.012016  2.719441  2.176845
H    -8.469805  1.219321  1.729971
H    -7.673338  2.582373  1.210149
N    -1.573318  3.690173  3.060821
C    -2.400708  4.589161  2.251554
H    -0.990432  4.148658  3.766400
H    -1.758030  5.369415  1.825658
H    -3.155532  5.068841  2.886625
H    -2.893666  4.050631  1.439528
Pb    1.203619  0.360936  3.984393
