35
Energy: -608356.722155 eV PBE+vdW (tier 2 basis)
C    0.658751  0.487045  0.891175
C    0.036959  -0.042302  2.127546
O    0.812439  -0.370077  3.142509
H    1.395020  -0.244514  0.524920
H    1.201837  1.415047  1.125277
H    -0.065265  0.653863  0.087977
N    -1.258033  -0.229516  2.312583
C    -2.433912  0.032261  1.434075
C    -2.332519  -0.828615  0.126127
O    -1.764228  -0.343550  -0.852294
H    -1.492446  -0.627479  3.223884
H    -3.278991  -0.321973  2.037367
C    -2.643807  1.522767  1.113414
C    -3.994862  1.795985  0.422054
C    -4.212522  3.304297  0.198332
C    -5.577455  3.718598  -0.348071
N    -5.744891  3.451722  -1.842487
H    -1.829877  1.880293  0.469163
H    -2.595653  2.084629  2.058275
H    -4.815776  1.402463  1.042840
H    -4.021632  1.248900  -0.533858
H    -3.413554  3.724807  -0.434461
H    -4.122480  3.828575  1.161981
H    -5.733646  4.797246  -0.229428
H    -6.406194  3.197040  0.147201
H    -6.672457  3.762790  -2.168803
H    -5.659880  2.453465  -2.076762
H    -5.042159  3.962326  -2.396891
N    -2.883318  -2.055576  0.146227
C    -3.606868  -2.725738  1.228345
H    -2.798948  -2.555360  -0.738121
H    -3.854391  -3.736838  0.891698
H    -4.549899  -2.218599  1.472217
H    -2.992137  -2.827551  2.132500
Pb    2.619586  -0.692022  4.241928
