35
Energy: -608356.963723 eV PBE+vdW (tier 2 basis)
C    0.131631  -0.724639  0.734448
C    0.114353  -0.051116  2.059409
O    1.085313  -0.331964  2.917283
H    1.051493  -0.453079  0.195247
H    -0.727459  -0.465294  0.110461
H    0.145185  -1.814821  0.876904
N    -0.791518  0.804296  2.444076
C    -1.873696  1.450292  1.678904
C    -1.995892  2.813098  2.425553
O    -1.622550  2.843266  3.608634
H    -0.731080  1.305513  3.367144
H    -1.536993  1.599521  0.644269
C    -3.200271  0.642323  1.653596
C    -4.010187  0.483547  2.961149
C    -4.946671  1.659932  3.300052
C    -5.873047  1.445635  4.497464
N    -7.077197  0.558140  4.187232
H    -2.958485  -0.357207  1.264445
H    -3.830630  1.106874  0.880311
H    -3.340708  0.294981  3.814577
H    -4.597647  -0.440119  2.836104
H    -5.543138  1.946317  2.417734
H    -4.357283  2.550354  3.557618
H    -6.298743  2.396060  4.839648
H    -5.361724  0.975565  5.346987
H    -7.678750  0.452156  5.018308
H    -6.805544  -0.388373  3.888138
H    -7.662144  0.963274  3.441556
N    -2.521023  3.833929  1.742771
C    -2.696057  5.180106  2.295524
H    -2.739797  3.701011  0.758845
H    -3.738004  5.500047  2.175998
H    -2.045653  5.889468  1.769413
H    -2.429854  5.162563  3.355417
Pb    2.943974  -0.880445  3.769821
