35
Energy: -608357.025287 eV PBE+vdW (tier 2 basis)
C    -0.664143  -1.312861  1.894656
C    -0.001256  0.000579  1.684277
O    1.318976  0.057041  1.814855
H    -1.752916  -1.254095  1.816036
H    -0.399623  -1.705639  2.886653
H    -0.295192  -2.035253  1.151286
N    -0.615792  1.106331  1.380137
C    -2.002684  1.350110  0.948170
C    -1.785437  2.588610  0.009681
O    -0.706188  3.195165  0.120967
H    -0.094009  2.000867  1.121787
H    -2.359536  0.488014  0.368146
C    -3.011066  1.646994  2.090439
C    -2.743596  2.927747  2.903431
C    -3.980516  3.539677  3.597838
C    -4.542442  2.722624  4.759835
N    -5.677715  3.471301  5.449429
H    -3.065825  0.761462  2.741700
H    -3.994650  1.715434  1.599719
H    -2.356251  3.712150  2.237982
H    -1.950413  2.752228  3.645941
H    -4.770037  3.708971  2.847517
H    -3.686223  4.533102  3.971242
H    -3.790332  2.537077  5.537101
H    -4.966565  1.760453  4.447351
H    -6.456287  3.666439  4.802480
H    -5.360749  4.378304  5.824015
H    -6.064597  2.933061  6.239227
N    -2.776971  2.917624  -0.817306
C    -2.712605  4.038875  -1.761746
H    -3.588687  2.308418  -0.872711
H    -1.859999  4.670924  -1.501918
H    -3.638988  4.620641  -1.701380
H    -2.591031  3.663810  -2.785650
Pb    3.410817  -0.205413  1.725003
