35
Energy: -608358.270843 eV PBE+vdW (tier 2 basis)
C    -1.456064  -3.565198  0.954700
C    -0.708462  -2.395002  1.490990
O    0.358519  -2.005748  0.902962
H    -0.798276  -4.446042  0.941995
H    -1.719675  -3.361666  -0.094078
H    -2.365127  -3.800787  1.517880
N    -1.184132  -1.754452  2.568144
C    -0.651985  -0.519034  3.174657
C    0.593501  -0.871259  4.027920
O    1.717316  -1.064447  3.441733
H    -2.017105  -2.154335  2.996988
H    -0.269044  0.105833  2.352831
C    -1.763310  0.248688  3.919222
C    -2.851597  0.883229  3.024148
C    -3.959958  1.526485  3.884969
C    -5.191567  2.064260  3.150904
N    -5.020290  3.472245  2.586125
H    -1.279825  1.044770  4.505050
H    -2.251612  -0.423376  4.647313
H    -3.302778  0.120225  2.370764
H    -2.379392  1.624778  2.359727
H    -3.541479  2.309928  4.538241
H    -4.355245  0.765977  4.575637
H    -6.043052  2.137354  3.837613
H    -5.492570  1.432201  2.306016
H    -4.811850  4.155167  3.329932
H    -5.889616  3.786738  2.126977
H    -4.270096  3.535923  1.884788
N    0.496375  -0.977504  5.335309
C    1.584599  -1.328898  6.258041
H    -0.413595  -0.802434  5.757486
H    1.540580  -0.657691  7.122727
H    2.545614  -1.221053  5.751319
H    1.456358  -2.363873  6.601221
Pb    2.486841  -1.489000  1.369748
