35
Energy: -608358.315116 eV PBE+vdW (tier 2 basis)
C    -0.019283  -0.768695  0.152765
C    -0.204044  -0.200487  1.515774
O    0.800351  0.293444  2.134417
H    0.733875  -1.568701  0.187413
H    0.392662  0.015832  -0.500101
H    -0.942691  -1.157806  -0.288935
N    -1.429011  -0.193897  2.060680
C    -1.825421  0.429885  3.337546
C    -1.399372  -0.496648  4.502068
O    -0.183918  -0.466249  4.907174
H    -2.165596  -0.638116  1.515051
H    -1.211024  1.336009  3.455901
C    -3.312710  0.847957  3.305864
C    -3.585277  2.009901  2.326523
C    -5.068909  2.387209  2.106122
C    -5.705138  3.185719  3.245941
N    -7.089575  3.688994  2.856007
H    -3.594319  1.136200  4.329376
H    -3.940696  -0.018903  3.034013
H    -3.184087  1.751859  1.335992
H    -3.023658  2.900162  2.650439
H    -5.662319  1.481553  1.902269
H    -5.107115  2.994936  1.188705
H    -5.121722  4.081485  3.494228
H    -5.848006  2.599605  4.161958
H    -7.522001  4.231703  3.619466
H    -7.734016  2.916743  2.629004
H    -7.051951  4.305897  2.030016
N    -2.269993  -1.311221  5.058626
C    -1.990716  -2.264509  6.141988
H    -3.224909  -1.292700  4.706328
H    -2.807722  -2.217093  6.869993
H    -1.046760  -2.004251  6.625088
H    -1.933554  -3.281649  5.732782
Pb    1.815722  0.231369  4.126918
