35
Energy: -608356.219531 eV PBE+vdW (tier 2 basis)
C    -0.053998  -0.398679  0.064351
C    -0.155673  -0.384873  1.561189
O    0.788907  -0.633032  2.319417
H    0.630062  0.399285  -0.257192
H    -1.013221  -0.265957  -0.447769
H    0.393983  -1.350087  -0.250258
N    -1.389318  -0.068318  2.092584
C    -1.573084  0.045787  3.542125
C    -3.046360  -0.188236  3.863841
O    -3.377984  -1.288298  4.507305
H    -2.113735  0.230716  1.447897
H    -1.036144  -0.809930  3.974635
C    -0.993410  1.354540  4.195615
C    -0.100061  1.141152  5.432557
C    1.240299  0.414514  5.215826
C    2.248865  1.210862  4.376738
N    3.139877  0.279526  3.579895
H    -1.804125  2.033356  4.490387
H    -0.448969  1.880069  3.398875
H    -0.662395  0.596467  6.206766
H    0.085610  2.133023  5.871440
H    1.060158  -0.555394  4.730915
H    1.679122  0.198015  6.199245
H    2.897708  1.842606  4.993802
H    1.765104  1.850959  3.630015
H    3.640822  -0.385552  4.184775
H    2.540110  -0.254452  2.913618
H    3.851390  0.796897  3.045207
N    -4.008447  0.647554  3.550253
C    -3.953845  1.930027  2.831687
H    -4.948758  0.371426  3.843080
H    -4.629952  1.872632  1.968440
H    -2.940764  2.158576  2.497879
H    -4.308233  2.726034  3.500065
Pb    -4.076390  -3.094843  5.421531
