35
Energy: -608355.800861 eV PBE+vdW (tier 2 basis)
C    0.340481  0.168155  0.892535
C    0.327663  -0.306552  2.316302
O    1.324270  -0.775869  2.865015
H    -0.624591  0.120455  0.376089
H    1.082377  -0.402780  0.324925
H    0.681531  1.215067  0.885475
N    -0.823694  -0.171652  3.099830
C    -2.206474  -0.399491  2.679566
C    -3.087058  0.711055  3.307673
O    -3.988703  0.414480  4.214193
H    -0.625626  -0.467741  4.057332
H    -2.266789  -0.236819  1.591659
C    -2.690880  -1.827361  3.009617
C    -2.229582  -2.967744  2.067979
C    -0.733182  -3.283990  1.862050
C    0.039707  -3.704506  3.115090
N    1.536147  -3.624184  2.877754
H    -3.789911  -1.840559  2.961567
H    -2.427665  -2.049855  4.056867
H    -2.653187  -2.784619  1.069416
H    -2.733605  -3.877696  2.425844
H    -0.227408  -2.439511  1.376537
H    -0.685617  -4.102787  1.128474
H    -0.191981  -4.734576  3.410941
H    -0.144574  -3.052308  3.976798
H    2.069004  -4.012305  3.669246
H    1.808101  -2.622708  2.768656
H    1.823350  -4.143433  2.035764
N    -2.937355  1.971879  2.976539
C    -2.013307  2.563031  1.999327
H    -3.515586  2.640655  3.488255
H    -2.349404  3.584109  1.796983
H    -2.024489  1.995915  1.063294
H    -0.998371  2.590685  2.415530
Pb    -5.688802  0.198092  5.509371
