35
Energy: -608356.555291 eV PBE+vdW (tier 2 basis)
C    0.674553  0.632072  0.157006
C    0.452194  0.530971  1.620877
O    1.460396  0.723912  2.400137
H    0.902393  1.679633  -0.093932
H    -0.178967  0.294504  -0.439168
H    1.568331  0.053247  -0.113105
N    -0.769520  0.267777  2.091609
C    -1.239194  -0.069101  3.457116
C    -0.792609  0.908423  4.550081
O    -1.752207  1.229449  5.411394
H    -1.488821  0.175171  1.376468
H    -2.323747  0.092791  3.408507
C    -1.078891  -1.588198  3.798842
C    0.242268  -2.332596  3.509641
C    1.338034  -2.261783  4.585417
C    2.606202  -3.062327  4.276546
N    2.417630  -4.575313  4.360366
H    -1.864279  -2.088336  3.215911
H    -1.377179  -1.718593  4.850655
H    0.653677  -2.020521  2.537532
H    -0.059289  -3.382210  3.362629
H    0.936945  -2.568207  5.565750
H    1.683926  -1.226356  4.717968
H    3.402762  -2.830533  4.993167
H    2.987699  -2.864023  3.266694
H    3.306739  -5.063604  4.170978
H    1.731700  -4.928922  3.678644
H    2.105794  -4.871518  5.297123
N    0.408251  1.375992  4.606517
C    0.775369  2.347392  5.603916
H    1.147134  0.968668  3.399343
H    1.816742  2.669254  5.478200
H    0.699555  1.937551  6.635537
H    0.170422  3.281773  5.505564
Pb    -2.061211  2.655294  6.989378
