35
Energy: -608358.143090 eV PBE+vdW (tier 2 basis)
C    1.221564  0.876292  0.979025
C    0.615539  0.107674  2.099785
O    1.354189  -0.656219  2.809757
H    0.500657  1.489639  0.428409
H    1.719495  0.184535  0.285143
H    2.010143  1.526168  1.388596
N    -0.692938  0.251572  2.361465
C    -1.413731  -0.309284  3.517617
C    -1.717659  -1.804706  3.259204
O    -0.810229  -2.670411  3.521422
H    -1.208127  0.868066  1.737043
H    -0.690777  -0.331167  4.346902
C    -2.551891  0.628823  4.001648
C    -3.708828  1.004229  3.049037
C    -4.464093  2.303129  3.429095
C    -5.317270  2.201551  4.696068
N    -6.140810  3.465928  4.905344
H    -2.037252  1.551697  4.311488
H    -2.945846  0.182776  4.926388
H    -4.450973  0.192058  2.978343
H    -3.344238  1.165291  2.022600
H    -5.115931  2.558551  2.579420
H    -3.740391  3.127611  3.529468
H    -4.721841  2.079086  5.609071
H    -6.042020  1.379113  4.640975
H    -5.547698  4.303710  5.005121
H    -6.718641  3.400521  5.757841
H    -6.783601  3.640196  4.117375
N    -2.874968  -2.198076  2.771218
C    -3.232550  -3.592518  2.467822
H    -3.568588  -1.484041  2.566091
H    -2.851881  -3.873602  1.477162
H    -4.322692  -3.678485  2.471801
H    -2.806511  -4.255948  3.226013
Pb    1.436860  -2.672239  3.777236
