35
Energy: -608357.353674 eV PBE+vdW (tier 2 basis)
C    -0.018299  0.211188  0.438168
C    -0.253158  -0.158359  1.853874
O    0.719984  -0.151042  2.687529
H    0.767728  -0.464141  0.057732
H    0.403223  1.223421  0.357700
H    -0.901402  0.106841  -0.197863
N    -1.472895  -0.541082  2.302174
C    -2.704038  0.224361  2.070651
C    -2.488914  1.594365  2.778845
O    -1.618744  1.708080  3.714646
H    -1.440890  -0.981578  3.223990
H    -2.825250  0.394360  0.990853
C    -3.906449  -0.585053  2.637340
C    -5.319057  -0.178345  2.166453
C    -5.750421  -0.727603  0.786424
C    -6.334678  -2.144764  0.765488
N    -7.814332  -2.186243  1.138261
H    -3.865845  -0.534910  3.735995
H    -3.713605  -1.635626  2.370612
H    -5.427177  0.915771  2.167028
H    -6.023617  -0.505620  2.946518
H    -4.894910  -0.745417  0.094265
H    -6.467307  -0.037164  0.315613
H    -5.829808  -2.830569  1.457652
H    -6.281060  -2.578336  -0.239919
H    -8.172355  -3.154047  1.115502
H    -8.385987  -1.640319  0.475609
H    -8.001662  -1.818443  2.081865
N    -3.216155  2.630373  2.412629
C    -3.146921  3.974725  3.006637
H    -3.854692  2.507502  1.629655
H    -4.096901  4.483941  2.820149
H    -2.336525  4.552680  2.543330
H    -2.978361  3.895207  4.084193
Pb    0.476706  1.176191  4.512551
