35
Energy: -608357.697336 eV PBE+vdW (tier 2 basis)
C    -1.284189  0.239328  -1.621468
C    -0.805556  0.515001  -0.245517
O    0.445240  0.696478  -0.028154
H    -0.678008  -0.593446  -2.015219
H    -1.078199  1.090781  -2.287099
H    -2.340654  -0.037934  -1.673088
N    -1.648023  0.553899  0.812907
C    -2.883755  1.341322  0.830137
C    -2.439741  2.834806  0.951006
O    -1.204747  3.141083  1.112782
H    -1.163055  0.541026  1.712444
H    -3.375859  1.226467  -0.147992
C    -3.844172  0.865176  1.947480
C    -4.339331  -0.575161  1.713503
C    -5.155395  -1.216416  2.859756
C    -6.608002  -0.745429  2.953035
N    -7.392548  -1.582794  3.955964
H    -4.688878  1.568040  1.996417
H    -3.328878  0.945241  2.918967
H    -3.466851  -1.224280  1.553177
H    -4.919899  -0.620473  0.778214
H    -4.643799  -1.057019  3.822334
H    -5.150041  -2.303093  2.681851
H    -7.136152  -0.854801  1.997173
H    -6.707841  0.293803  3.289485
H    -8.374324  -1.272753  4.020248
H    -6.992728  -1.526885  4.904664
H    -7.406528  -2.579451  3.690256
N    -3.352169  3.779819  0.866462
C    -3.087852  5.225842  0.936584
H    -4.317012  3.498066  0.704554
H    -4.030954  5.737447  1.147099
H    -2.690868  5.585627  -0.021467
H    -2.371002  5.434329  1.736538
Pb    1.037292  2.675629  0.903806
