35
Energy: -608356.843942 eV PBE+vdW (tier 2 basis)
C    0.075934  -0.215584  0.723206
C    -0.136968  0.037924  2.170909
O    0.876494  -0.117512  3.000254
H    0.508413  -1.217854  0.590384
H    0.800345  0.511135  0.324596
H    -0.839514  -0.157076  0.129586
N    -1.283962  0.413152  2.697656
C    -2.592412  0.656534  2.040886
C    -3.171505  1.977278  2.653146
O    -3.873305  1.904130  3.674745
H    -1.292630  0.515873  3.717518
H    -2.413278  0.784634  0.968098
C    -3.561581  -0.506463  2.306491
C    -4.943559  -0.258308  1.663287
C    -6.127920  -0.932201  2.380638
C    -6.377299  -0.558484  3.840661
N    -6.528583  0.938231  4.056807
H    -3.648725  -0.623189  3.395657
H    -3.122019  -1.436042  1.918802
H    -4.933654  -0.619548  0.626111
H    -5.136648  0.823203  1.581890
H    -6.007727  -2.025979  2.367104
H    -7.039169  -0.736818  1.795057
H    -5.565807  -0.868557  4.509976
H    -7.300876  -1.028463  4.198298
H    -6.839790  1.139961  5.016754
H    -7.229723  1.343813  3.422130
H    -5.611599  1.423232  3.910742
N    -2.874794  3.132842  2.046048
C    -2.096904  3.357407  0.824717
H    -3.289311  3.953151  2.488817
H    -2.587558  2.923283  -0.056399
H    -1.074687  2.968269  0.918410
H    -2.023231  4.436958  0.664854
Pb    2.838036  -0.579300  3.725638
