35
Energy: -608355.681320 eV PBE+vdW (tier 2 basis)
C    -0.317053  2.447764  0.382840
C    0.142330  1.473095  1.430818
O    1.230246  1.584338  1.993760
H    -0.183360  3.476670  0.737559
H    0.350229  2.331578  -0.484731
H    -1.348282  2.306555  0.041944
N    -0.639410  0.357593  1.722552
C    -2.094091  0.334810  1.890414
C    -2.815589  0.141555  0.536695
O    -3.848158  0.888172  0.214620
H    -0.137216  -0.290603  2.327783
H    -2.308993  -0.613685  2.418126
C    -2.635944  1.480127  2.774940
C    -2.276401  1.377283  4.279399
C    -0.806853  1.466415  4.744580
C    -0.153782  2.844624  4.589125
N    1.356775  2.722802  4.595312
H    -3.734397  1.462714  2.730994
H    -2.326899  2.447237  2.351349
H    -2.680382  0.429937  4.666960
H    -2.854079  2.160744  4.792158
H    -0.189730  0.711505  4.238519
H    -0.791078  1.189385  5.808595
H    -0.434377  3.523661  5.402822
H    -0.400257  3.335749  3.640128
H    1.816245  3.644536  4.600336
H    1.654396  2.216818  3.732107
H    1.699734  2.208816  5.419418
N    -2.436444  -0.786453  -0.310236
C    -1.392783  -1.814917  -0.161898
H    -2.949806  -0.818049  -1.192822
H    -1.407795  -2.240354  0.846752
H    -0.404686  -1.389679  -0.375577
H    -1.610244  -2.607919  -0.884247
Pb    -5.729910  1.725882  -0.389715
