35
Energy: -608356.441467 eV PBE+vdW (tier 2 basis)
C    0.696670  -0.164017  0.020962
C    0.314151  -0.175629  1.469737
O    1.132783  -0.082025  2.395891
H    -0.115371  -0.458952  -0.652678
H    1.562241  -0.820772  -0.129710
H    1.021126  0.850681  -0.254511
N    -1.029859  -0.294631  1.760768
C    -1.489385  -0.091447  3.128045
C    -2.535601  -1.156658  3.461477
O    -2.230517  -2.422625  3.321985
H    -1.689743  -0.163792  0.996555
H    -0.608075  -0.339417  3.748494
C    -1.949088  1.356473  3.429688
C    -0.923869  2.484937  3.147274
C    -0.055972  2.982656  4.320374
C    1.108378  2.145697  4.845058
N    2.237506  1.993067  3.840946
H    -2.259294  1.423304  4.485608
H    -2.838249  1.570093  2.812718
H    -1.512884  3.355452  2.829715
H    -0.314098  2.237921  2.266339
H    -0.701404  3.177490  5.190782
H    0.332494  3.977136  4.047318
H    0.826348  1.125072  5.130522
H    1.538577  2.633151  5.728023
H    1.976848  1.288335  3.110609
H    2.468810  2.889985  3.392229
H    3.095491  1.657707  4.299705
N    -3.724069  -0.823422  3.899378
C    -4.811310  -1.727940  4.288373
H    -3.905544  0.179072  3.975449
H    -4.486126  -2.386891  5.104031
H    -5.145881  -2.317496  3.424577
H    -5.650963  -1.123698  4.643195
Pb    -1.926911  -4.525950  3.170426
