35
Energy: -608356.883469 eV PBE+vdW (tier 2 basis)
C    -0.807638  0.438697  0.270406
C    -0.195950  -0.369525  1.391554
O    1.154417  -0.196564  1.514312
H    -1.882686  0.251837  0.182908
H    -0.335630  0.193759  -0.687771
H    -0.671302  1.504355  0.494336
N    -0.849172  -0.348980  2.654641
C    -1.843722  -1.427978  2.749595
C    -1.321100  -2.422644  1.708174
O    -0.417158  -1.924525  0.927963
H    -0.163169  -0.400927  3.407194
H    -1.779301  -1.877157  3.752193
C    -3.306924  -0.944361  2.528028
C    -4.384714  -1.948553  2.970909
C    -5.846004  -1.453783  2.854322
C    -6.260961  -0.458402  3.938198
N    -7.755278  -0.167327  3.868907
H    -3.460996  -0.669987  1.474280
H    -3.374410  -0.012841  3.107264
H    -4.194468  -2.275263  4.006350
H    -4.330628  -2.853013  2.346961
H    -6.495816  -2.340111  2.922208
H    -6.014138  -1.017735  1.856685
H    -5.762725  0.514361  3.848387
H    -6.079932  -0.850160  4.947198
H    -8.315207  -1.022823  4.003797
H    -8.028246  0.234261  2.959578
H    -8.043419  0.502730  4.598004
N    -1.718944  -3.662648  1.579961
C    -1.236063  -4.625299  0.577011
H    -2.381539  -4.010608  2.269480
H    -0.476556  -5.278531  1.024785
H    -0.810592  -4.086611  -0.272901
H    -2.081514  -5.234642  0.241656
Pb    3.103247  0.332236  1.021014
