35
Energy: -608356.841890 eV PBE+vdW (tier 2 basis)
C    0.260383  -1.715474  0.900476
C    -0.316581  -0.395663  1.290153
O    0.084228  0.699319  0.664427
H    0.070223  -1.908099  -0.165828
H    -0.160478  -2.543769  1.479891
H    1.349302  -1.707935  1.065012
N    -1.202617  -0.326059  2.243133
C    -1.834744  0.807048  2.929652
C    -1.905015  0.249087  4.391689
O    -1.860694  -0.982971  4.519162
H    -1.390782  -1.169402  2.853419
H    -1.191582  1.693342  2.854360
C    -3.255164  1.142030  2.386008
C    -4.278293  -0.003085  2.490729
C    -5.706985  0.331225  2.002030
C    -6.546898  1.097463  3.024050
N    -7.996286  1.217957  2.567356
H    -3.589786  2.027644  2.947322
H    -3.152590  1.465278  1.338866
H    -4.328492  -0.381154  3.523044
H    -3.930131  -0.853200  1.887248
H    -6.207692  -0.624929  1.784239
H    -5.666825  0.887474  1.051780
H    -6.582594  0.580063  3.991119
H    -6.199946  2.124450  3.191012
H    -8.429116  0.291194  2.435554
H    -8.569444  1.725789  3.258053
H    -8.078322  1.722081  1.672175
N    -2.044466  1.128793  5.387433
C    -2.102424  0.746216  6.801945
H    -2.008214  2.121276  5.171483
H    -2.938226  1.262413  7.287818
H    -1.169405  1.023940  7.308590
H    -2.242021  -0.335658  6.868947
Pb    1.582554  1.454352  -0.674112
