35
Energy: -608356.413343 eV PBE+vdW (tier 2 basis)
C    -0.282350  -1.366689  2.852733
C    0.263823  -0.005491  2.611205
O    1.438683  0.300132  3.145969
H    -0.347008  -1.550668  3.934804
H    0.402779  -2.118968  2.434310
H    -1.272394  -1.513689  2.413348
N    -0.328586  0.917488  1.907835
C    -1.515036  0.834181  1.038261
C    -1.183908  1.940383  -0.015472
O    -0.363781  2.809357  0.318571
H    0.125388  1.847961  1.693219
H    -1.542839  -0.157635  0.567503
C    -2.865606  1.086414  1.758525
C    -3.173302  2.529335  2.198440
C    -4.532365  2.594650  2.922442
C    -4.948630  3.951270  3.489091
N    -5.500883  4.910977  2.437307
H    -2.921376  0.411294  2.626703
H    -3.649026  0.739786  1.067607
H    -3.162518  3.186853  1.313810
H    -2.384536  2.904465  2.868828
H    -4.509776  1.917937  3.790325
H    -5.336122  2.198594  2.279321
H    -4.119378  4.480583  3.974949
H    -5.756143  3.835138  4.221493
H    -5.792154  5.800994  2.869715
H    -6.330786  4.517745  1.969369
H    -4.810245  5.139180  1.709711
N    -1.828992  1.882270  -1.182916
C    -1.603969  2.825084  -2.283535
H    -2.427287  1.081872  -1.369559
H    -1.018334  2.346762  -3.078839
H    -1.055093  3.689620  -1.901452
H    -2.567533  3.144548  -2.695901
Pb    3.416049  0.231652  3.892220
