35
Energy: -608356.096963 eV PBE+vdW (tier 2 basis)
C    0.173533  1.512224  0.283591
C    -0.160779  0.796934  1.554580
O    0.509021  -0.140637  2.014975
H    1.171779  1.962508  0.371514
H    -0.548541  2.288825  0.010084
H    0.235221  0.772918  -0.527206
N    -1.288837  1.201702  2.236726
C    -1.593768  0.549666  3.507903
C    -3.107764  0.488123  3.671908
O    -3.717031  1.181471  4.610908
H    -1.747206  2.066151  1.962735
H    -1.273968  -0.496145  3.344080
C    -0.777505  1.068803  4.710599
C    -0.469419  0.001543  5.779939
C    0.343821  -1.243419  5.359735
C    1.867853  -1.157580  5.262496
N    2.403786  -0.418247  4.038079
H    -1.275180  1.932522  5.176195
H    0.148763  1.482242  4.290808
H    -1.419336  -0.369837  6.198403
H    0.036536  0.496835  6.622176
H    -0.047355  -1.701409  4.437643
H    0.175409  -2.006790  6.133860
H    2.273077  -2.173351  5.193806
H    2.316776  -0.681211  6.142585
H    3.293060  -0.832709  3.726994
H    2.603447  0.567344  4.244992
H    1.734102  -0.436049  3.228431
N    -3.840619  -0.254882  2.874263
C    -3.397977  -1.112516  1.765477
H    -4.851942  -0.213043  3.015439
H    -4.107386  -1.941838  1.676874
H    -2.395658  -1.508280  1.953156
H    -3.397176  -0.537311  0.829757
Pb    -4.860853  2.230998  6.080081
