35
Energy: -608356.563516 eV PBE+vdW (tier 2 basis)
C    0.395575  0.723321  2.162609
C    -0.761089  -0.251558  2.130932
O    -0.598504  -1.307794  2.992051
H    0.255619  1.537098  1.443385
H    1.335834  0.215390  1.917383
H    0.459850  1.162849  3.165653
N    -2.084370  0.298160  2.220991
C    -2.621442  0.540987  0.869259
C    -1.776114  -0.407684  0.018868
O    -0.740834  -0.868951  0.658364
H    -2.676331  -0.347964  2.743963
H    -3.673394  0.218729  0.839806
C    -2.526147  2.007197  0.369507
C    -3.628550  2.976667  0.843011
C    -3.610839  3.365236  2.334675
C    -4.184815  4.745258  2.655566
N    -5.681579  4.881154  2.381876
H    -2.556234  1.998279  -0.728955
H    -1.540470  2.413070  0.635943
H    -4.612319  2.568567  0.556692
H    -3.491230  3.886344  0.236432
H    -2.570891  3.414070  2.691501
H    -4.093990  2.598805  2.960148
H    -3.704356  5.534538  2.063131
H    -4.058730  4.988991  3.717175
H    -6.012498  5.825531  2.632646
H    -6.235852  4.210943  2.934034
H    -5.912397  4.736549  1.389010
N    -1.981233  -0.767758  -1.219616
C    -3.108346  -0.410461  -2.090269
H    -1.272079  -1.379450  -1.630890
H    -2.777007  0.299952  -2.858050
H    -3.469596  -1.321161  -2.581093
H    -3.924111  0.022757  -1.505905
Pb    0.496644  -2.770773  3.990484
