35
Energy: -608355.834638 eV PBE+vdW (tier 2 basis)
C    0.484552  -0.746553  1.245863
C    -0.083388  0.358792  2.055802
O    0.716779  0.964435  2.915964
H    -0.242895  -1.235941  0.599464
H    0.919510  -1.495261  1.924497
H    1.301994  -0.357812  0.620100
N    -1.325118  0.801347  2.022355
C    -2.545615  0.547483  1.193036
C    -3.757160  0.016318  2.029180
O    -4.846512  0.558493  1.799755
H    -1.488382  1.561546  2.688638
H    -2.868678  1.570615  0.954850
C    -2.385772  -0.190504  -0.151117
C    -3.628106  -0.007834  -1.061105
C    -4.715013  -1.092141  -0.900009
C    -6.124819  -0.677204  -1.307926
N    -6.697277  0.404536  -0.386425
H    -2.194771  -1.263776  -0.011160
H    -1.515714  0.238077  -0.668098
H    -3.281499  -0.009437  -2.102647
H    -4.034952  1.001432  -0.893807
H    -4.752939  -1.481527  0.127815
H    -4.458529  -1.958868  -1.526019
H    -6.806274  -1.532294  -1.242485
H    -6.174482  -0.284098  -2.330182
H    -7.701293  0.257863  -0.220300
H    -6.600640  1.343430  -0.791626
H    -6.201044  0.417384  0.532661
N    -3.624109  -0.996662  2.900695
C    -2.475199  -1.850585  3.191650
H    -4.492936  -1.220227  3.386193
H    -2.847043  -2.782203  3.629743
H    -1.793029  -1.390111  3.919686
H    -1.934344  -2.119558  2.277661
Pb    2.492806  1.654877  3.896942
