35
Energy: -608356.536243 eV PBE+vdW (tier 2 basis)
C    -0.214655  -0.070645  0.185159
C    -0.194503  -0.093678  1.679659
O    0.854040  -0.310130  2.339527
H    0.458219  0.725626  -0.164573
H    -1.209389  0.081750  -0.246517
H    0.201972  -1.011525  -0.200802
N    -1.364067  0.136258  2.332320
C    -1.561899  0.034138  3.783802
C    -0.952103  1.245595  4.514126
O    -1.690035  1.939203  5.347246
H    -2.186994  0.338428  1.770872
H    -2.646817  0.097097  3.936313
C    -1.065633  -1.276255  4.470370
C    -1.631407  -2.597835  3.908586
C    -1.048868  -3.210147  2.618583
C    0.283973  -3.954744  2.673346
N    1.522334  -3.073664  2.870798
H    -1.394124  -1.197718  5.518263
H    0.029959  -1.276148  4.504550
H    -2.714562  -2.478662  3.754870
H    -1.547113  -3.343520  4.714090
H    -1.043273  -2.498066  1.782504
H    -1.760282  -3.987834  2.299579
H    0.444109  -4.477352  1.723355
H    0.309160  -4.704671  3.473473
H    2.343119  -3.497884  2.416875
H    1.760285  -2.976039  3.864801
H    1.395290  -2.108967  2.487747
N    0.302148  1.539954  4.309567
C    1.055403  2.644459  4.903764
H    0.774256  0.896134  3.627221
H    2.072929  2.621580  4.504296
H    1.104073  2.535446  5.995584
H    0.600272  3.608454  4.638485
Pb    -2.724780  3.276301  6.653510
