35
Energy: -608356.690289 eV PBE+vdW (tier 2 basis)
C    -0.878938  -1.375116  -1.502637
C    -0.423043  -1.588959  -0.109096
O    0.831840  -1.939551  0.099037
H    -0.712536  -2.302718  -2.071754
H    -0.271759  -0.583462  -1.966806
H    -1.945371  -1.148109  -1.572782
N    -1.164339  -1.465695  0.979101
C    -2.596095  -1.107038  1.183821
C    -3.507017  -2.199155  0.520109
O    -3.702951  -2.130374  -0.692527
H    -0.661665  -1.683220  1.841384
H    -2.707097  -1.140523  2.274351
C    -2.969712  0.301013  0.684215
C    -4.401408  0.715317  1.082583
C    -4.788749  2.057936  0.432737
C    -6.256947  2.468566  0.529364
N    -6.656960  3.020441  1.896008
H    -2.893968  0.330399  -0.410376
H    -2.240838  1.018571  1.089100
H    -4.476265  0.767395  2.181663
H    -5.110853  -0.057061  0.747283
H    -4.589927  1.995108  -0.648176
H    -4.144070  2.874920  0.796767
H    -6.940915  1.634553  0.327553
H    -6.481721  3.273004  -0.180741
H    -6.540710  2.330617  2.650310
H    -7.647451  3.308331  1.898547
H    -6.100457  3.851527  2.144082
N    -4.031901  -3.147104  1.316584
C    -3.883089  -3.333961  2.761054
H    -4.630472  -3.807065  0.821111
H    -4.396375  -4.260788  3.034052
H    -4.345226  -2.519055  3.333986
H    -2.831518  -3.447847  3.055053
Pb    2.821345  -2.515715  -0.439807
