35
Energy: -608356.361182 eV PBE+vdW (tier 2 basis)
C    1.013511  1.076158  0.782064
C    0.454961  0.290040  1.931278
O    1.144944  -0.416990  2.677808
H    1.754820  1.795964  1.154637
H    0.259033  1.617075  0.200773
H    1.551924  0.386781  0.117501
N    -0.908345  0.385242  2.133048
C    -1.560100  -0.318621  3.230701
C    -2.895259  -0.910542  2.771459
O    -3.027858  -2.220348  2.801084
H    -1.410485  1.071681  1.579456
H    -0.909616  -1.183070  3.424106
C    -1.708487  0.471832  4.567319
C    -0.366567  0.926847  5.173177
C    0.483807  -0.206209  5.770667
C    1.930915  0.152267  6.098190
N    2.759551  0.439468  4.843136
H    -2.243815  -0.169868  5.285900
H    -2.340071  1.356629  4.416643
H    -0.602095  1.656057  5.961777
H    0.186844  1.494099  4.409279
H    0.495602  -1.085628  5.109326
H    0.033221  -0.539520  6.717295
H    2.422148  -0.683895  6.607122
H    2.013921  1.034422  6.743979
H    3.715993  0.074814  4.940820
H    2.848826  1.448374  4.673489
H    2.324194  0.017384  3.986671
N    -3.928902  -0.209055  2.372748
C    -4.106045  1.242971  2.225734
H    -4.752417  -0.754486  2.106344
H    -4.289008  1.470791  1.167045
H    -3.236147  1.792868  2.586532
H    -4.986284  1.546588  2.806900
Pb    -3.323641  -4.338053  2.692924
