35
Energy: -608356.798916 eV PBE+vdW (tier 2 basis)
C    0.248999  -1.449418  0.606646
C    0.064166  -0.242256  1.460917
O    1.091048  0.543190  1.718778
H    0.984195  -2.124341  1.071221
H    0.628552  -1.152531  -0.382642
H    -0.679862  -2.011209  0.462044
N    -1.113587  0.039533  1.960467
C    -1.548121  1.127019  2.854498
C    -2.687595  0.494694  3.687274
O    -3.494966  -0.244758  3.084433
H    -1.887198  -0.611586  1.762101
H    -0.696027  1.424865  3.478600
C    -2.075058  2.366479  2.074196
C    -3.199162  2.129487  1.030223
C    -4.537428  2.851457  1.283432
C    -5.413493  2.405588  2.451017
N    -5.905377  0.973400  2.312881
H    -1.207687  2.827189  1.582464
H    -2.390575  3.092340  2.838893
H    -3.377086  1.055062  0.879277
H    -2.840001  2.491903  0.058779
H    -5.134612  2.803393  0.359011
H    -4.352716  3.925482  1.438228
H    -6.304429  3.041604  2.511534
H    -4.903712  2.453596  3.422028
H    -5.122394  0.309225  2.520911
H    -6.271937  0.788687  1.369033
H    -6.669531  0.778776  2.973971
N    -2.751378  0.813788  4.978986
C    -3.778111  0.320445  5.902902
H    -2.031614  1.417717  5.367353
H    -3.301072  0.020851  6.842156
H    -4.272068  -0.547800  5.458071
H    -4.514394  1.105510  6.119754
Pb    3.206090  0.875895  1.488587
