35
Energy: -608356.335961 eV PBE+vdW (tier 2 basis)
C    -1.738565  -2.891952  0.614828
C    -0.742501  -1.803882  0.822578
O    0.542789  -2.052829  0.780597
H    -2.486742  -2.616250  -0.141642
H    -2.286492  -3.099277  1.548216
H    -1.245596  -3.814099  0.295162
N    -1.114575  -0.554528  1.052831
C    -2.507156  -0.093079  1.162436
C    -3.258567  0.217297  -0.186728
O    -4.474173  0.095519  -0.115715
H    -0.361953  0.127404  1.160269
H    -3.074536  -0.948236  1.544927
C    -2.718543  1.053138  2.183071
C    -2.508805  2.504272  1.713692
C    -3.119106  3.493586  2.730805
C    -3.032995  4.943083  2.256498
N    -3.710467  5.892117  3.237343
H    -2.121388  0.837153  3.081911
H    -3.768975  0.939999  2.487423
H    -3.000796  2.651597  0.740028
H    -1.440322  2.732624  1.572246
H    -2.613171  3.387959  3.703819
H    -4.175931  3.223403  2.887972
H    -3.540559  5.094528  1.295572
H    -1.998228  5.294975  2.161726
H    -3.652454  6.869610  2.913728
H    -3.276668  5.853967  4.171558
H    -4.710293  5.669551  3.354968
N    -2.610259  0.585834  -1.313926
C    -1.220540  0.974044  -1.529633
H    -3.247913  0.716798  -2.098633
H    -1.173204  1.549603  -2.459684
H    -0.553559  0.108551  -1.647164
H    -0.846813  1.630954  -0.733206
Pb    2.250810  -3.373683  0.724951
