35
Energy: -608357.418357 eV PBE+vdW (tier 2 basis)
C    -3.748863  -1.043321  -1.549617
C    -3.223928  -2.051136  -0.591957
O    -3.795347  -3.200762  -0.540018
H    -4.153437  -1.584299  -2.415767
H    -2.998166  -0.324098  -1.881997
H    -4.598092  -0.499594  -1.103411
N    -2.147935  -1.853803  0.206676
C    -1.924819  -0.715728  1.122276
C    -2.980769  -0.871927  2.259289
O    -3.989029  -1.653819  2.096904
H    -1.822034  -2.735291  0.608259
H    -0.934160  -0.900346  1.565688
C    -1.923367  0.691573  0.481909
C    -0.859061  0.924866  -0.619203
C    0.482732  1.516170  -0.132663
C    1.378920  1.852742  -1.328626
N    2.674283  2.539458  -0.917601
H    -1.782396  1.421073  1.290405
H    -2.920859  0.910115  0.082693
H    -0.671408  -0.008298  -1.171976
H    -1.297194  1.624788  -1.345535
H    1.003172  0.812557  0.537057
H    0.283953  2.432906  0.445527
H    1.676666  0.958563  -1.890370
H    0.883708  2.544015  -2.022364
H    3.253054  2.757859  -1.743902
H    3.248098  1.951838  -0.294982
H    2.500841  3.430474  -0.428607
N    -2.863396  -0.221548  3.400296
C    -1.800339  0.668147  3.877059
H    -3.635493  -0.377265  4.053286
H    -1.633243  0.460002  4.939839
H    -2.103734  1.717952  3.770969
H    -0.866040  0.487825  3.338108
Pb    -4.962323  -3.596325  1.349258
