35
Energy: -608358.171803 eV PBE+vdW (tier 2 basis)
C    1.729263  1.951475  1.006046
C    1.013770  1.335794  2.159003
O    1.469675  0.252799  2.667337
H    1.812522  1.204463  0.202804
H    2.758364  2.197267  1.306390
H    1.244564  2.852014  0.614658
N    -0.094476  1.931101  2.616792
C    -1.065569  1.508183  3.656684
C    -0.435829  1.489359  5.063707
O    0.397749  0.587685  5.431452
H    -0.337655  2.793696  2.134105
H    -1.801326  2.324500  3.660896
C    -1.843990  0.209952  3.322802
C    -2.684219  0.352592  2.037799
C    -3.562336  -0.861486  1.650917
C    -4.894934  -0.937388  2.399772
N    -5.798666  -2.014845  1.812853
H    -2.482868  -0.002838  4.193870
H    -1.151115  -0.638362  3.227303
H    -2.008063  0.533402  1.190784
H    -3.320613  1.249680  2.108173
H    -2.998321  -1.798538  1.782066
H    -3.771368  -0.774347  0.573498
H    -5.460912  -0.000648  2.318798
H    -4.784604  -1.185037  3.462584
H    -6.701458  -2.060516  2.310154
H    -5.373394  -2.952285  1.867627
H    -6.009803  -1.834214  0.819319
N    -0.821964  2.419766  5.914415
C    -0.370188  2.560294  7.304415
H    -1.483126  3.120993  5.583896
H    0.380179  3.359475  7.369914
H    0.057271  1.616978  7.650791
H    -1.231280  2.830934  7.925033
Pb    2.021717  -0.705902  4.595341
