35
Energy: -608357.642879 eV PBE+vdW (tier 2 basis)
C    0.169237  3.227889  1.582618
C    0.151130  1.811618  2.020184
O    0.924900  1.423939  2.965323
H    -0.114478  3.898429  2.407063
H    -0.444465  3.424388  0.699206
H    1.217206  3.480117  1.348039
N    -0.644326  0.888379  1.429184
C    -2.084631  1.077633  1.223057
C    -2.726950  1.050636  2.639193
O    -2.047556  0.616229  3.643539
H    -0.401895  -0.070057  1.687765
H    -2.246025  2.077514  0.793363
C    -2.647580  0.002304  0.260181
C    -2.074168  0.145597  -1.163240
C    -2.398844  -0.995829  -2.154585
C    -3.808852  -0.949637  -2.745913
N    -3.967202  -1.971640  -3.865320
H    -3.743332  0.081270  0.258229
H    -2.417479  -0.994227  0.672437
H    -0.978100  0.196314  -1.097283
H    -2.389864  1.109014  -1.594538
H    -2.221037  -1.972634  -1.677185
H    -1.671500  -0.915885  -2.977448
H    -4.030325  0.024693  -3.199843
H    -4.594719  -1.181327  -2.016647
H    -3.815474  -2.936188  -3.534207
H    -3.296046  -1.803785  -4.630569
H    -4.912013  -1.936136  -4.277941
N    -3.957502  1.475592  2.840888
C    -4.920333  2.046780  1.893888
H    -4.280886  1.395411  3.808372
H    -5.686658  1.302926  1.640250
H    -4.422371  2.395549  0.985112
H    -5.409842  2.901899  2.373610
Pb    -0.057391  0.465979  4.775785
