35
Energy: -608356.625129 eV PBE+vdW (tier 2 basis)
C    0.761535  0.279715  2.605789
C    -0.317058  -0.741659  2.551130
O    -0.087275  -1.960105  2.989030
H    0.378169  1.304740  2.628960
H    1.406739  0.177975  1.716834
H    1.386957  0.118830  3.491541
N    -1.517997  -0.493106  2.064631
C    -1.972520  0.751078  1.403877
C    -2.515237  1.873344  2.338855
O    -2.252190  3.032349  1.985100
H    -2.177583  -1.274500  2.082591
H    -1.086276  1.205786  0.947674
C    -2.972024  0.417396  0.268542
C    -3.288811  1.633188  -0.630946
C    -4.539588  2.455289  -0.246867
C    -4.494260  3.895979  -0.752831
N    -3.670588  4.789768  0.176116
H    -3.899027  -0.011289  0.680575
H    -2.506549  -0.365014  -0.347624
H    -3.426581  1.263665  -1.655449
H    -2.396387  2.277029  -0.677263
H    -4.723578  2.456655  0.838832
H    -5.430114  1.985768  -0.686502
H    -5.491216  4.345476  -0.811793
H    -4.036403  3.963085  -1.746962
H    -3.205337  5.550701  -0.335873
H    -2.955302  4.242679  0.702401
H    -4.272423  5.231992  0.882624
N    -3.260957  1.597743  3.420856
C    -3.780559  0.322256  3.911359
H    -3.526504  2.429398  3.947505
H    -4.614668  0.534774  4.587692
H    -3.028763  -0.240406  4.481341
H    -4.184384  -0.291537  3.096622
Pb    1.024760  -3.669437  3.666343
