35
Energy: -608356.949422 eV PBE+vdW (tier 2 basis)
C    -0.446847  -0.271644  -0.124826
C    -0.189830  0.224873  1.251520
O    1.028704  0.061881  1.752864
H    -0.204735  -1.342483  -0.181212
H    0.213615  0.249045  -0.833686
H    -1.484235  -0.126029  -0.437539
N    -1.066798  0.812402  2.010834
C    -2.457019  1.242687  1.766943
C    -2.544832  2.434929  2.782252
O    -1.801782  2.353051  3.773614
H    -0.830048  1.189120  2.973472
H    -2.575462  1.557771  0.723459
C    -3.431133  0.091780  2.145608
C    -4.937975  0.411417  2.091175
C    -5.758757  -0.791164  2.601262
C    -7.246733  -0.554705  2.856618
N    -8.103355  -0.560639  1.592003
H    -3.173563  -0.226605  3.167426
H    -3.211014  -0.761541  1.485478
H    -5.226611  0.683428  1.062761
H    -5.155749  1.282154  2.727428
H    -5.356109  -1.100603  3.578031
H    -5.624431  -1.668378  1.947035
H    -7.442635  0.405273  3.350765
H    -7.662102  -1.351138  3.485297
H    -9.098788  -0.421275  1.824263
H    -8.033639  -1.460513  1.094526
H    -7.840214  0.182159  0.930742
N    -3.386508  3.453275  2.577292
C    -4.209112  3.779692  1.416090
H    -3.349574  4.154423  3.318885
H    -3.900669  4.747507  1.001536
H    -5.265860  3.847960  1.703902
H    -4.104490  3.023128  0.633819
Pb    3.053654  -0.141259  2.302302
