35
Energy: -608356.735531 eV PBE+vdW (tier 2 basis)
C    0.692804  -1.228293  0.792539
C    0.234186  -0.111798  1.666886
O    1.103021  0.733064  2.165637
H    1.425487  -1.849200  1.330003
H    1.184390  -0.819766  -0.103864
H    -0.126198  -1.876802  0.462469
N    -1.050542  0.026330  1.944271
C    -1.731775  1.064761  2.739896
C    -2.673574  0.423485  3.826527
O    -3.781968  0.924789  4.040286
H    -1.659931  -0.657262  1.490952
H    -0.947332  1.618615  3.273979
C    -2.523932  2.043932  1.852241
C    -3.683638  1.428128  1.045015
C    -4.829780  2.407087  0.716834
C    -5.541015  3.081238  1.889266
N    -6.111194  2.090327  2.888603
H    -1.822358  2.561505  1.183038
H    -2.892330  2.806749  2.551159
H    -4.096558  0.556378  1.575967
H    -3.311582  1.040497  0.085604
H    -5.569803  1.879137  0.096710
H    -4.456634  3.226350  0.083971
H    -6.378341  3.687481  1.524399
H    -4.884870  3.739948  2.470961
H    -6.659702  2.574563  3.612566
H    -5.337602  1.572140  3.364577
H    -6.740727  1.413805  2.436043
N    -2.204062  -0.637213  4.499091
C    -2.945590  -1.285221  5.587504
H    -1.244686  -0.931784  4.351166
H    -2.545686  -2.292755  5.733915
H    -4.005150  -1.345375  5.320425
H    -2.847069  -0.714191  6.520205
Pb    3.154231  1.428778  2.258101
