35
Energy: -608356.246903 eV PBE+vdW (tier 2 basis)
C    -2.778752  -0.485756  -0.623436
C    -1.984080  -1.004598  0.522144
O    -1.587459  -2.221232  0.513706
H    -3.074219  0.562756  -0.511929
H    -3.674691  -1.107112  -0.761906
H    -2.179271  -0.595825  -1.540293
N    -1.674246  -0.178887  1.530905
C    -0.769430  -0.464172  2.662416
C    -1.521358  -1.337852  3.694617
O    -1.547205  -2.608492  3.535623
H    -2.037135  0.770744  1.460478
H    0.039429  -1.103976  2.277020
C    -0.151950  0.860611  3.159707
C    1.018263  0.712250  4.151660
C    1.686421  2.072579  4.453876
C    2.876531  1.923960  5.404002
N    3.551765  3.260631  5.680832
H    -0.933257  1.517819  3.580434
H    0.210234  1.380613  2.259289
H    1.768436  0.027715  3.725723
H    0.675335  0.252984  5.091767
H    0.945711  2.760439  4.892431
H    2.024880  2.526746  3.508768
H    3.657491  1.273681  4.990273
H    2.581361  1.527583  6.383557
H    3.915965  3.695364  4.819633
H    2.908023  3.937504  6.117291
H    4.351368  3.146242  6.323004
N    -2.142352  -0.774211  4.709181
C    -2.947760  -1.469147  5.722599
H    -2.088644  0.239629  4.785470
H    -2.704842  -2.533811  5.716605
H    -4.015252  -1.328097  5.507858
H    -2.722995  -1.041703  6.705525
Pb    -1.382741  -4.038139  1.788324
