35
Energy: -608358.153175 eV PBE+vdW (tier 2 basis)
C    0.335735  2.026523  1.008976
C    0.314516  1.147220  2.209572
O    0.598872  1.638174  3.355879
H    0.056598  1.512176  0.083433
H    1.336779  2.466171  0.893453
H    -0.353287  2.867572  1.179393
N    -0.028361  -0.141159  2.069570
C    -0.223444  -1.130252  3.147453
C    1.161685  -1.632230  3.625279
O    1.838275  -0.910907  4.440871
H    -0.202806  -0.457834  1.117148
H    -0.644938  -0.589147  4.008860
C    -1.218966  -2.224995  2.705354
C    -2.667950  -1.724093  2.513032
C    -3.603182  -2.760545  1.844843
C    -4.244305  -3.828828  2.745660
N    -5.675503  -3.479421  3.146760
H    -1.192835  -3.023715  3.461748
H    -0.872605  -2.676800  1.758890
H    -2.664029  -0.829896  1.873356
H    -3.074218  -1.392176  3.482154
H    -3.051771  -3.292069  1.056197
H    -4.395592  -2.223710  1.300855
H    -3.700402  -3.992105  3.684268
H    -4.323840  -4.792926  2.230785
H    -6.080283  -4.208254  3.754959
H    -6.287815  -3.406216  2.319774
H    -5.741011  -2.586592  3.655638
N    1.640692  -2.778018  3.191121
C    2.948104  -3.354506  3.535234
H    1.062344  -3.319254  2.551419
H    2.817212  -4.422853  3.738697
H    3.348994  -2.853692  4.418718
H    3.638390  -3.232713  2.690230
Pb    1.892943  1.233072  5.135419
