35
Energy: -608356.089846 eV PBE+vdW (tier 2 basis)
C    -0.918315  0.547991  3.070121
C    -0.896814  -0.853353  2.567497
O    -0.226782  -1.784180  3.202850
H    -1.943226  0.941383  3.120678
H    -0.350677  1.208618  2.394562
H    -0.471139  0.611894  4.065833
N    -1.550007  -1.212029  1.475096
C    -2.300229  -0.313915  0.580824
C    -3.796021  0.011217  0.933341
O    -4.250147  0.954676  0.294778
H    -1.488950  -2.199533  1.219808
H    -1.829413  0.671636  0.682078
C    -2.148077  -0.713330  -0.907730
C    -2.976436  -1.884272  -1.476170
C    -4.476064  -1.645583  -1.763883
C    -4.851123  -0.552607  -2.764420
N    -4.653567  -0.974903  -4.219007
H    -1.080830  -0.912429  -1.082990
H    -2.359902  0.210315  -1.463557
H    -2.911048  -2.767956  -0.820364
H    -2.467009  -2.209249  -2.397372
H    -5.010890  -1.386715  -0.841388
H    -4.925031  -2.600272  -2.081852
H    -4.282804  0.375665  -2.631218
H    -5.914853  -0.302438  -2.679431
H    -4.938470  -0.221479  -4.863048
H    -5.224249  -1.801590  -4.450669
H    -3.674808  -1.205932  -4.437326
N    -4.509082  -0.663136  1.861356
C    -4.248482  -1.924410  2.550782
H    -5.434099  -0.256490  1.999467
H    -3.591885  -1.799824  3.422913
H    -3.839220  -2.686137  1.875130
H    -5.206435  -2.308549  2.915911
Pb    1.204591  -2.558007  4.618473
