35
Energy: -608356.824697 eV PBE+vdW (tier 2 basis)
C    1.033035  -0.092139  0.833438
C    0.228362  -0.894377  1.791710
O    0.570324  -2.129224  2.073481
H    2.064114  -0.458243  0.796211
H    1.044515  0.973167  1.090535
H    0.602752  -0.187744  -0.178155
N    -0.854470  -0.415076  2.380375
C    -1.517093  0.884216  2.121347
C    -0.979951  2.080507  2.964932
O    -1.224809  3.215385  2.537829
H    -1.350553  -1.060919  3.000730
H    -1.302157  1.158761  1.080888
C    -3.047867  0.693552  2.276048
C    -3.887737  1.913141  1.834737
C    -4.360225  2.843527  2.972904
C    -4.685299  4.258165  2.499974
N    -3.414333  5.096025  2.357242
H    -3.284447  0.420277  3.317325
H    -3.322226  -0.167958  1.650897
H    -4.776468  1.537314  1.311051
H    -3.324170  2.476305  1.075356
H    -3.630439  2.894298  3.795680
H    -5.274864  2.432874  3.422050
H    -5.333420  4.792856  3.202523
H    -5.177715  4.258132  1.520130
H    -3.507566  5.817324  1.630326
H    -2.589388  4.496484  2.146562
H    -3.199658  5.583085  3.236706
N    -0.301211  1.831087  4.091642
C    0.210048  2.887250  4.973603
H    -0.200839  0.871881  4.405132
H    0.497024  3.752944  4.369532
H    1.087626  2.510163  5.507132
H    -0.550266  3.189104  5.705554
Pb    1.559683  -4.035971  1.920099
