35
Energy: -608355.521949 eV PBE+vdW (tier 2 basis)
C    -2.612836  -1.195521  0.454912
C    -1.443690  -1.144453  1.395624
O    -0.879872  -2.153394  1.820473
H    -2.550938  -2.126779  -0.118730
H    -2.657319  -0.349203  -0.241034
H    -3.559902  -1.226484  1.015934
N    -0.949961  0.097609  1.801925
C    -1.813123  1.230324  2.109672
C    -1.037507  2.548673  1.939494
O    -1.196314  3.516545  2.814241
H    -0.150208  -0.017037  2.423327
H    -2.578226  1.287286  1.311844
C    -2.584125  1.056410  3.444474
C    -1.813077  0.668735  4.728139
C    -1.209351  -0.750675  4.876610
C    -2.198203  -1.916848  4.752795
N    -1.464781  -3.192896  4.392803
H    -3.360735  0.307101  3.232567
H    -3.156292  1.974242  3.643103
H    -2.512924  0.825083  5.562401
H    -0.989424  1.378451  4.905596
H    -0.734962  -0.794028  5.867714
H    -0.393187  -0.907032  4.158699
H    -2.745119  -2.098639  5.685254
H    -2.934953  -1.775039  3.953303
H    -1.050148  -3.082114  3.439662
H    -2.098499  -4.004819  4.375948
H    -0.711536  -3.411030  5.060385
N    -0.234799  2.762426  0.922603
C    0.033477  1.932023  -0.266063
H    0.255000  3.658815  0.933270
H    0.395161  2.602904  -1.052067
H    -0.878699  1.436325  -0.606895
H    0.805450  1.184933  -0.045925
Pb    -1.569069  5.376283  3.826562
