35
Energy: -608356.656335 eV PBE+vdW (tier 2 basis)
C    -1.355736  1.139910  0.166955
C    -0.940380  0.779015  1.559744
O    0.247803  0.502759  1.861198
H    -0.789609  2.026197  -0.152469
H    -2.427230  1.337283  0.057236
H    -1.078006  0.331831  -0.524110
N    -1.907353  0.766416  2.514430
C    -1.740114  0.338664  3.908980
C    -0.970046  1.388954  4.729516
O    -1.472867  1.824216  5.860074
H    -2.846869  1.031348  2.231599
H    -2.755139  0.305759  4.324260
C    -1.084696  -1.056328  4.145145
C    -1.695864  -2.243664  3.372291
C    -1.137418  -2.542841  1.966178
C    0.361310  -2.899489  1.936107
N    1.103201  -2.129718  0.857272
H    -1.196098  -1.252563  5.221908
H    -0.004417  -0.986951  3.964973
H    -2.786612  -2.128495  3.291477
H    -1.551552  -3.138199  3.995448
H    -1.338091  -1.704166  1.285571
H    -1.710826  -3.383179  1.553765
H    0.529983  -3.963520  1.737421
H    0.875138  -2.654045  2.872964
H    2.108631  -2.353996  0.857552
H    0.990463  -1.103633  1.013805
H    0.748126  -2.359439  -0.081423
N    0.190605  1.800333  4.299398
C    1.068056  2.781920  4.937446
H    0.480493  1.358175  3.392111
H    1.935373  2.939919  4.290849
H    1.418336  2.411311  5.910343
H    0.547755  3.741052  5.062089
Pb    -2.151042  2.709799  7.679807
