35
Energy: -608356.823739 eV PBE+vdW (tier 2 basis)
C    0.046528  -1.205894  0.678124
C    -0.014114  -0.378252  1.910971
O    1.010879  -0.332482  2.729018
H    -0.553214  -0.786127  -0.137120
H    -0.342887  -2.215278  0.895371
H    1.082042  -1.311636  0.337913
N    -1.085659  0.322124  2.241837
C    -2.401283  0.326688  1.559850
C    -2.515398  1.306185  0.351503
O    -3.361208  1.027313  -0.508091
H    -1.031210  0.835498  3.125916
H    -2.547343  -0.668468  1.121478
C    -3.502592  0.566417  2.625257
C    -4.947372  0.474571  2.088330
C    -5.539288  1.816126  1.608933
C    -6.695307  1.706374  0.621613
N    -6.247772  1.100877  -0.713443
H    -3.342069  1.543653  3.110248
H    -3.365061  -0.201729  3.399737
H    -5.579571  0.078725  2.894002
H    -4.976235  -0.288641  1.295513
H    -4.767813  2.464705  1.168174
H    -5.924920  2.373167  2.475007
H    -7.099620  2.698240  0.392303
H    -7.517355  1.083660  0.993760
H    -6.457178  0.096719  -0.766636
H    -6.730812  1.545137  -1.504878
H    -5.217962  1.204167  -0.841696
N    -1.729043  2.388699  0.314026
C    -1.798449  3.395478  -0.752337
H    -1.110688  2.577835  1.095770
H    -2.554471  4.157803  -0.523470
H    -2.053588  2.903567  -1.695628
H    -0.822200  3.880181  -0.846804
Pb    2.891517  -0.850695  3.639993
