35
Energy: -608356.602380 eV PBE+vdW (tier 2 basis)
C    0.145440  1.390106  0.808970
C    -0.071616  0.250646  1.738003
O    0.963409  -0.360734  2.267085
H    -0.766410  1.947967  0.577929
H    0.575805  1.016712  -0.134136
H    0.871883  2.085607  1.251826
N    -1.268121  -0.197231  2.072131
C    -2.572359  0.286387  1.570604
C    -3.068953  1.601820  2.261881
O    -3.506018  2.464981  1.503211
H    -1.281847  -0.969566  2.742407
H    -2.417611  0.588623  0.529562
C    -3.623619  -0.850194  1.593863
C    -4.801245  -0.677780  0.607373
C    -5.948570  0.264937  1.026089
C    -7.081120  0.180577  0.002412
N    -8.242548  1.100449  0.354215
H    -4.000034  -1.012486  2.614737
H    -3.104188  -1.774894  1.300775
H    -5.216811  -1.684896  0.455287
H    -4.407477  -0.366230  -0.372638
H    -5.589282  1.302075  1.097299
H    -6.324623  -0.029734  2.019337
H    -7.506605  -0.828714  -0.064571
H    -6.753292  0.482878  -1.000272
H    -8.994671  1.035094  -0.348339
H    -7.949224  2.087431  0.396459
H    -8.657647  0.861979  1.266730
N    -3.047844  1.733285  3.603994
C    -2.622071  0.797033  4.639737
H    -3.388326  2.641155  3.917909
H    -3.074053  1.108200  5.587135
H    -1.531479  0.797180  4.780004
H    -2.975697  -0.222840  4.443181
Pb    3.036020  -0.865579  2.540163
