35
Energy: -608356.432925 eV PBE+vdW (tier 2 basis)
C    -1.087570  -3.541799  0.231284
C    -0.947453  -2.937240  1.575007
O    0.005543  -3.368448  2.332746
H    -1.887519  -3.092089  -0.364759
H    -1.258443  -4.623220  0.333335
H    -0.130232  -3.432453  -0.301327
N    -1.771267  -1.969450  1.985630
C    -1.572772  -1.101206  3.172105
C    -1.809312  -1.924603  4.464290
O    -2.868673  -1.668639  5.214360
H    -2.535476  -1.726581  1.357984
H    -0.501550  -0.841287  3.189702
C    -2.412170  0.178006  3.031923
C    -1.951054  1.339970  3.944833
C    -0.948412  2.348728  3.332352
C    -1.632772  3.414691  2.473288
N    -0.656505  4.498001  2.030724
H    -3.465424  -0.058972  3.234385
H    -2.364857  0.487536  1.976827
H    -1.494937  0.936002  4.859811
H    -2.838947  1.887247  4.290783
H    -0.175427  1.825396  2.746278
H    -0.424346  2.847203  4.162200
H    -2.420502  3.936604  3.031188
H    -2.073883  3.013504  1.552407
H    -1.129388  5.218011  1.462875
H    0.115089  4.119992  1.461615
H    -0.232263  4.980097  2.837782
N    -0.935209  -2.845928  4.709407
C    -1.074505  -3.691507  5.854400
H    -0.149436  -3.138679  3.335464
H    -2.015065  -4.306796  5.817215
H    -1.010339  -3.114030  6.813160
H    -0.265203  -4.431889  5.919680
Pb    -3.589755  -2.653168  7.015431
