35
Energy: -608357.640051 eV PBE+vdW (tier 2 basis)
C    -1.382954  0.335014  -1.791737
C    -1.121043  0.955968  -0.471487
O    -0.943845  2.222190  -0.383723
H    -1.426988  -0.757218  -1.765308
H    -0.558205  0.637649  -2.459290
H    -2.294035  0.748429  -2.248238
N    -1.028577  0.219470  0.661964
C    -2.045303  -0.755205  1.072897
C    -3.304032  0.071851  1.460837
O    -3.208816  1.345899  1.630100
H    -0.645127  0.748475  1.447483
H    -2.305297  -1.372453  0.199905
C    -1.519951  -1.675453  2.201481
C    -0.418046  -2.630853  1.700583
C    -0.031771  -3.792373  2.645287
C    0.856981  -3.400598  3.826234
N    1.354931  -4.636273  4.566686
H    -2.367459  -2.257699  2.589342
H    -1.175075  -1.050048  3.040927
H    0.483340  -2.062849  1.424718
H    -0.767958  -3.100652  0.769177
H    0.507634  -4.529812  2.030402
H    -0.940379  -4.298236  3.009049
H    1.758317  -2.865171  3.501703
H    0.339496  -2.790537  4.576686
H    1.957474  -4.381956  5.364344
H    1.910123  -5.250070  3.950839
H    0.578678  -5.203109  4.939853
N    -4.480282  -0.502527  1.607088
C    -4.870158  -1.905747  1.430590
H    -5.232967  0.135520  1.878082
H    -4.133084  -2.450360  0.834167
H    -5.831700  -1.931298  0.905531
H    -4.993155  -2.389954  2.408057
Pb    -2.349113  3.369578  0.984784
