35
Energy: -608356.739408 eV PBE+vdW (tier 2 basis)
C    0.205231  -0.300556  -0.140487
C    0.113558  -0.580294  1.310999
O    1.104033  -1.183787  1.875439
H    -0.643325  0.272735  -0.526336
H    0.294327  -1.249777  -0.688737
H    1.138148  0.250692  -0.332715
N    -0.960762  -0.213343  2.015763
C    -1.079425  -0.189396  3.493963
C    -1.129869  -1.635271  4.050967
O    -2.214065  -2.046689  4.685277
H    -1.737532  0.177804  1.486371
H    -0.132890  0.226829  3.876881
C    -2.257634  0.698499  3.918389
C    -2.141074  2.205427  3.591780
C    -1.330524  3.052865  4.596522
C    -1.451090  4.538509  4.246930
N    -0.752163  5.438389  5.257281
H    -2.404496  0.565307  4.999218
H    -3.173977  0.307002  3.451043
H    -3.167289  2.598439  3.558091
H    -1.738034  2.356445  2.577695
H    -0.269468  2.755635  4.602024
H    -1.721839  2.880645  5.612188
H    -2.498113  4.866819  4.230544
H    -1.003642  4.774784  3.273368
H    -0.854949  6.432190  4.999077
H    0.258157  5.244737  5.318015
H    -1.144556  5.330971  6.204411
N    -0.073089  -2.355741  3.856659
C    -0.017291  -3.706540  4.326568
H    0.818436  -1.646699  2.774137
H    -0.804162  -4.353879  3.853750
H    -0.069784  -3.762978  5.444552
H    0.933344  -4.191593  4.065829
Pb    -2.702114  -3.960885  5.587283
