35
Energy: -608356.937055 eV PBE+vdW (tier 2 basis)
C    0.544595  0.111433  0.117018
C    0.145346  0.675684  1.432708
O    1.086523  1.230014  2.185292
H    1.332703  -0.641207  0.262981
H    0.967579  0.908623  -0.512213
H    -0.288020  -0.351894  -0.418621
N    -1.067887  0.669019  1.907107
C    -2.344567  0.309680  1.265439
C    -3.333415  1.231624  2.052476
O    -2.954317  1.653401  3.155411
H    -1.326009  1.152863  2.812317
H    -2.306976  0.592825  0.204897
C    -2.714594  -1.193635  1.377817
C    -3.033144  -1.717465  2.789245
C    -3.232536  -3.249389  2.837011
C    -4.598010  -3.801049  2.418490
N    -5.598083  -3.827291  3.572708
H    -1.887195  -1.778244  0.945958
H    -3.568716  -1.349042  0.701036
H    -3.908113  -1.188161  3.201120
H    -2.204946  -1.472064  3.469209
H    -2.990080  -3.621249  3.845056
H    -2.491998  -3.733274  2.183220
H    -4.520647  -4.842572  2.085553
H    -5.076163  -3.224869  1.616706
H    -5.267627  -4.436285  4.336316
H    -6.511473  -4.196077  3.266880
H    -5.762613  -2.894180  3.974863
N    -4.521481  1.471939  1.491906
C    -5.535857  2.347045  2.089417
H    -4.687531  1.144343  0.544070
H    -5.553345  3.316081  1.574737
H    -5.291137  2.503210  3.143102
H    -6.522400  1.879467  1.999652
Pb    2.784304  2.250680  2.923329
