35
Energy: -608356.767530 eV PBE+vdW (tier 2 basis)
C    0.616051  -1.401179  1.211506
C    0.449945  0.049901  1.476821
O    1.506429  0.833808  1.501000
H    1.562315  -1.764136  1.627652
H    -0.202510  -2.000949  1.622444
H    0.628867  -1.556822  0.119807
N    -0.720174  0.611443  1.689403
C    -2.043343  -0.043773  1.649779
C    -2.274961  -0.654498  0.230590
O    -1.761391  -0.116569  -0.749265
H    -0.713207  1.625980  1.808628
H    -2.027655  -0.844417  2.403656
C    -3.149202  0.960692  2.045171
C    -3.541714  2.050291  1.014935
C    -4.818160  1.727546  0.208910
C    -5.228982  2.916629  -0.658926
N    -6.553566  2.676427  -1.372159
H    -2.837575  1.435188  2.987603
H    -4.031780  0.366076  2.317636
H    -2.714419  2.247065  0.314842
H    -3.709202  2.985127  1.567871
H    -5.631538  1.490446  0.914072
H    -4.660434  0.839197  -0.422143
H    -4.495992  3.131362  -1.446482
H    -5.373472  3.826584  -0.062706
H    -7.321272  2.507819  -0.705141
H    -6.510057  1.863339  -2.003423
H    -6.822357  3.491576  -1.943964
N    -3.067262  -1.744854  0.170971
C    -3.655955  -2.518138  1.267736
H    -3.189448  -2.105305  -0.773771
H    -4.191586  -3.366902  0.832618
H    -4.379663  -1.931718  1.847716
H    -2.891571  -2.927248  1.942964
Pb    3.579513  1.349830  1.430417
