35
Energy: -608356.749150 eV PBE+vdW (tier 2 basis)
C    -0.616144  -1.358570  1.238931
C    -0.106473  -0.282519  2.129724
O    0.958941  -0.484591  2.869241
H    0.188355  -2.053730  0.978437
H    -1.050458  -0.960149  0.314910
H    -1.401181  -1.930343  1.762127
N    -0.695059  0.898105  2.225973
C    -1.961377  1.338531  1.600100
C    -1.801646  2.052596  0.217654
O    -2.845780  2.350915  -0.369728
H    -0.272486  1.556484  2.886231
H    -2.544834  0.432730  1.388833
C    -2.748514  2.251415  2.589303
C    -4.218646  1.854104  2.834572
C    -5.180762  1.904115  1.635735
C    -5.440135  3.319331  1.101276
N    -5.603423  3.297531  -0.405543
H    -2.667420  3.292553  2.248267
H    -2.247627  2.220970  3.568549
H    -4.596325  2.505560  3.636889
H    -4.251333  0.836066  3.250943
H    -6.132989  1.450450  1.941388
H    -4.789071  1.274811  0.822614
H    -4.604777  4.003532  1.287500
H    -6.346969  3.767198  1.522722
H    -6.371335  2.678338  -0.700251
H    -4.718268  2.952467  -0.820504
H    -5.803218  4.233822  -0.784432
N    -0.576980  2.302967  -0.257981
C    -0.347975  2.999998  -1.531241
H    0.231405  2.097224  0.317181
H    0.686577  2.830102  -1.841881
H    -0.520636  4.078067  -1.422054
H    -1.024852  2.602351  -2.293877
Pb    2.556728  -1.504921  3.890820
