35
Energy: -608355.840565 eV PBE+vdW (tier 2 basis)
C    0.018057  0.060506  -0.144668
C    0.171351  -0.094789  1.339727
O    1.259608  -0.284584  1.882224
H    -0.894149  0.590206  -0.439375
H    0.044754  -0.922570  -0.638492
H    0.888192  0.616481  -0.515163
N    -0.959718  0.011015  2.159730
C    -2.211184  -0.661015  1.846812
C    -3.450345  0.236311  2.012446
O    -4.396811  0.129771  1.106860
H    -0.673515  -0.049325  3.136373
H    -2.194514  -0.900960  0.775470
C    -2.383290  -1.998888  2.636527
C    -1.130689  -2.913156  2.549451
C    -0.193605  -2.798291  3.769357
C    1.152464  -3.516532  3.686856
N    2.132100  -2.852221  2.719622
H    -3.260145  -2.523575  2.232824
H    -2.617583  -1.784255  3.690489
H    -0.595682  -2.711742  1.607233
H    -1.474609  -3.953456  2.470721
H    -0.704472  -3.227711  4.644404
H    0.003240  -1.748914  4.038468
H    1.058344  -4.564737  3.378670
H    1.636762  -3.498939  4.669407
H    3.100197  -2.945741  3.056595
H    1.928518  -1.833074  2.585067
H    2.106832  -3.285048  1.788397
N    -3.632162  1.082507  2.996323
C    -2.775507  1.379946  4.157428
H    -4.494661  1.628646  2.950852
H    -3.399449  1.876398  4.906897
H    -1.962062  2.055612  3.864780
H    -2.380030  0.458852  4.596013
Pb    -6.054596  0.090392  -0.260118
