35
Energy: -608356.597246 eV PBE+vdW (tier 2 basis)
C    -0.974266  0.721397  -0.407091
C    -0.634588  0.676214  1.066221
O    0.394345  1.517868  1.408140
H    -0.098881  0.464696  -1.014984
H    -1.775839  0.017186  -0.653729
H    -1.319298  1.731810  -0.657937
N    -1.727336  0.782933  1.991645
C    -2.208925  -0.561103  2.359798
C    -0.994377  -1.430913  2.037967
O    -0.102925  -0.806056  1.324358
H    -1.416741  1.301311  2.814002
H    -2.397163  -0.585748  3.443826
C    -3.487770  -1.045650  1.624880
C    -4.822567  -0.502780  2.181506
C    -5.211065  0.912951  1.723477
C    -6.508496  1.460150  2.319312
N    -7.767446  0.787127  1.775356
H    -3.521193  -2.141336  1.695792
H    -3.400791  -0.821259  0.552516
H    -4.805567  -0.545255  3.282813
H    -5.594048  -1.224350  1.868337
H    -5.255891  0.963662  0.622973
H    -4.431820  1.632577  2.013840
H    -6.628656  2.525363  2.089849
H    -6.552274  1.337245  3.409099
H    -8.613824  1.204740  2.191354
H    -7.797138  -0.220851  1.982084
H    -7.846938  0.897751  0.753862
N    -0.785898  -2.671373  2.388908
C    -1.627037  -3.523930  3.239467
H    0.074964  -3.097898  2.037547
H    -0.983609  -4.023425  3.972262
H    -2.126769  -4.285440  2.627873
H    -2.369428  -2.924488  3.772597
Pb    2.211925  2.499943  1.159428
