35
Energy: -608357.925758 eV PBE+vdW (tier 2 basis)
C    -1.138509  -1.141565  -0.106153
C    -1.479687  -0.281788  1.064308
O    -1.746872  0.953854  0.862645
H    -0.314511  -0.672725  -0.662952
H    -1.997360  -1.172699  -0.792990
H    -0.859740  -2.165994  0.161934
N    -1.482790  -0.842422  2.278798
C    -1.694912  -0.321279  3.653997
C    -3.028328  0.420660  3.866311
O    -3.337622  1.519268  3.282215
H    -1.257970  -1.835797  2.263926
H    -1.799071  -1.247964  4.234217
C    -0.454712  0.372782  4.293027
C    0.103945  1.669191  3.688029
C    1.231992  2.320540  4.529566
C    2.556661  1.553074  4.538769
N    3.633300  2.322832  5.293669
H    0.326175  -0.402781  4.308854
H    -0.723960  0.544950  5.347609
H    -0.694719  2.422715  3.624719
H    0.462940  1.497240  2.662135
H    0.877195  2.462705  5.562968
H    1.408702  3.326626  4.118909
H    2.952549  1.398535  3.526979
H    2.488295  0.578663  5.037248
H    3.817888  3.244212  4.868458
H    3.372799  2.488486  6.277723
H    4.527588  1.808000  5.299825
N    -3.846805  -0.094141  4.764744
C    -5.131063  0.476963  5.187756
H    -3.582777  -0.974878  5.203834
H    -5.254356  0.295535  6.260726
H    -5.951913  -0.015143  4.648773
H    -5.143678  1.550653  4.987219
Pb    -3.193702  2.567898  1.315527
