35
Energy: -608356.541554 eV PBE+vdW (tier 2 basis)
C    -0.034141  -1.335888  4.450065
C    0.199582  -1.039597  3.013952
O    1.411418  -1.134247  2.519717
H    -1.042801  -1.089806  4.794413
H    0.703685  -0.805880  5.067372
H    0.105965  -2.417364  4.612244
N    -0.764360  -0.703720  2.172413
C    -2.196797  -0.536326  2.486105
C    -2.915611  -1.913038  2.753781
O    -3.394710  -2.047201  3.875618
H    -0.478446  -0.572370  1.199355
H    -2.253751  -0.049186  3.465302
C    -2.899934  0.368617  1.456410
C    -4.403405  0.538329  1.760016
C    -5.072921  1.535184  0.796221
C    -6.598909  1.595884  0.838080
N    -7.156515  2.306226  2.069509
H    -2.776972  -0.028884  0.437911
H    -2.403941  1.351434  1.476937
H    -4.521281  0.859860  2.807840
H    -4.906119  -0.438356  1.680675
H    -4.834245  1.254491  -0.241394
H    -4.653355  2.546623  0.922680
H    -7.059283  0.599786  0.832030
H    -6.987946  2.157273  -0.019533
H    -8.186487  2.347277  2.031505
H    -6.818129  3.277626  2.131360
H    -6.906222  1.830773  2.947208
N    -2.975542  -2.866154  1.799254
C    -2.608426  -2.818832  0.387000
H    -3.486741  -3.693179  2.106947
H    -2.530343  -3.847963  0.021757
H    -1.628852  -2.351714  0.231289
H    -3.360421  -2.300973  -0.224106
Pb    3.540828  -1.436767  2.608352
