35
Energy: -608356.763426 eV PBE+vdW (tier 2 basis)
C    1.018472  0.298786  -0.876014
C    0.456568  0.721802  0.439367
O    1.042269  1.694735  1.116670
H    2.045642  -0.073276  -0.738417
H    1.047997  1.156361  -1.564457
H    0.432372  -0.498401  -1.344969
N    -0.601622  0.130800  0.920780
C    -1.308463  0.253702  2.202052
C    -1.823947  -1.206016  2.397565
O    -2.001136  -1.878411  1.372859
H    -1.001016  -0.709869  0.434175
H    -0.599026  0.552461  2.984983
C    -2.477213  1.281370  2.144953
C    -3.583828  1.021584  1.096224
C    -4.831329  0.218567  1.542222
C    -5.904407  1.108993  2.170022
N    -7.209254  0.350943  2.387827
H    -2.025596  2.265258  1.955973
H    -2.892941  1.340818  3.161941
H    -3.159858  0.506770  0.224244
H    -3.916102  1.995681  0.709730
H    -4.555195  -0.593365  2.232019
H    -5.251980  -0.266369  0.648029
H    -6.161169  1.952697  1.516923
H    -5.619218  1.508603  3.151317
H    -7.933725  0.959556  2.798363
H    -7.091360  -0.453468  3.020569
H    -7.585804  -0.013260  1.499435
N    -2.072910  -1.611355  3.648482
C    -2.510762  -2.970999  3.980559
H    -1.816165  -1.000209  4.418863
H    -2.890204  -3.450981  3.074470
H    -3.296038  -2.927822  4.743360
H    -1.670160  -3.559193  4.370700
Pb    2.778883  2.952806  1.207354
