35
Energy: -608356.951565 eV PBE+vdW (tier 2 basis)
C    -0.068494  -0.060285  -0.462379
C    0.141076  -0.150114  1.006388
O    1.385112  -0.131520  1.464322
H    0.360603  0.879984  -0.839051
H    -1.122597  -0.102238  -0.748329
H    0.461839  -0.885503  -0.959567
N    -0.815975  -0.246038  1.886708
C    -2.277926  -0.151170  1.712552
C    -2.717333  0.375204  3.108234
O    -1.976872  0.106957  4.067651
H    -0.625292  -0.263353  2.918753
H    -2.496038  0.577350  0.921637
C    -2.942107  -1.506707  1.345603
C    -2.957375  -2.633016  2.405023
C    -4.234535  -2.696193  3.270344
C    -4.241709  -3.963444  4.124953
N    -5.537916  -4.122175  4.909719
H    -2.434798  -1.875439  0.443010
H    -3.968123  -1.279173  1.022271
H    -2.073350  -2.573221  3.057245
H    -2.865951  -3.583681  1.860432
H    -5.114798  -2.697512  2.606868
H    -4.312117  -1.808797  3.916771
H    -3.435661  -3.969289  4.869160
H    -4.152904  -4.869386  3.512004
H    -5.530904  -4.988721  5.469021
H    -6.357759  -4.170284  4.286736
H    -5.692264  -3.340206  5.562497
N    -3.870085  1.049299  3.213495
C    -4.732220  1.550068  2.138691
H    -4.054962  1.395777  4.154503
H    -5.686107  1.854592  2.579357
H    -4.945252  0.772911  1.396161
H    -4.293329  2.425861  1.641582
Pb    3.468379  0.178182  1.672233
