35
Energy: -608356.427286 eV PBE+vdW (tier 2 basis)
C    -0.562623  0.702106  -0.595310
C    -0.327437  -0.084836  0.646067
O    0.824518  -0.677257  0.842564
H    0.377373  1.148277  -0.939628
H    -1.299830  1.502061  -0.466672
H    -0.927810  0.030023  -1.390257
N    -1.251086  -0.235484  1.581933
C    -2.610249  0.333204  1.548811
C    -2.657242  1.853631  1.958771
O    -3.231446  2.591697  1.165088
H    -0.973530  -0.776215  2.403696
H    -2.914174  0.358455  0.497308
C    -3.644518  -0.530231  2.309238
C    -5.074785  -0.035067  2.006360
C    -6.231603  -0.930723  2.501632
C    -6.580443  -0.754491  3.978903
N    -7.878361  -1.477565  4.321038
H    -3.437917  -0.524959  3.389895
H    -3.535939  -1.569533  1.961532
H    -5.185199  0.045854  0.915620
H    -5.214446  0.988337  2.385426
H    -6.017205  -1.989490  2.285299
H    -7.115273  -0.663309  1.900991
H    -6.750962  0.298889  4.235240
H    -5.821740  -1.161173  4.658721
H    -8.667389  -1.117346  3.762845
H    -8.128914  -1.359543  5.314181
H    -7.815027  -2.490016  4.138582
N    -2.129669  2.276129  3.126583
C    -1.384350  1.543924  4.144037
H    -2.225775  3.282071  3.261669
H    -1.404183  2.128904  5.069226
H    -0.329311  1.400786  3.867594
H    -1.843777  0.574674  4.373586
Pb    2.810484  -1.286436  0.257642
