35
Energy: -608356.512838 eV PBE+vdW (tier 2 basis)
C    0.257727  -0.082559  0.145770
C    0.154774  -0.149724  1.626891
O    1.244290  -0.255224  2.355641
H    1.169360  0.452306  -0.144861
H    -0.601686  0.410682  -0.319471
H    0.325454  -1.105353  -0.261990
N    -0.997770  -0.123369  2.268124
C    -2.354290  -0.101459  1.675238
C    -2.878664  1.299248  1.220465
O    -3.579613  1.308032  0.200464
H    -0.942989  -0.171025  3.288054
H    -2.291941  -0.675798  0.744582
C    -3.396450  -0.765218  2.625430
C    -4.271535  -1.854370  1.967851
C    -5.062989  -1.468253  0.706013
C    -6.152308  -0.411649  0.927826
N    -6.322138  0.436597  -0.317754
H    -2.869839  -1.239835  3.467076
H    -4.020155  0.018966  3.077573
H    -4.958883  -2.226081  2.741959
H    -3.635401  -2.712837  1.706973
H    -5.520003  -2.380740  0.299813
H    -4.367112  -1.109010  -0.067600
H    -5.906023  0.297864  1.726283
H    -7.126931  -0.855604  1.159609
H    -6.539174  -0.136539  -1.145236
H    -5.433277  0.945841  -0.488766
H    -7.081696  1.124178  -0.215669
N    -2.624181  2.405995  1.937610
C    -1.989851  2.556608  3.246302
H    -3.029775  3.247825  1.529599
H    -2.318362  3.509727  3.673138
H    -0.894060  2.587023  3.175764
H    -2.308260  1.772839  3.945429
Pb    3.309633  -0.576033  2.852838
