35
Energy: -608356.488914 eV PBE+vdW (tier 2 basis)
C    0.414529  -0.086580  0.027478
C    0.136538  -0.179196  1.500264
O    0.986570  -0.500090  2.339412
H    -0.486357  0.005696  -0.589012
H    0.985085  -0.969743  -0.284894
H    1.053165  0.788348  -0.165571
N    -1.144686  0.146035  1.900931
C    -1.508349  0.211306  3.314677
C    -2.932024  -0.338066  3.436660
O    -3.140821  -1.620050  3.273955
H    -1.751875  0.588166  1.214694
H    -0.855571  -0.527712  3.810711
C    -1.299259  1.577289  4.017501
C    0.176921  1.900689  4.353822
C    0.979200  2.593859  3.237925
C    2.494072  2.580099  3.422565
N    3.076311  1.164610  3.390520
H    -1.840894  1.547674  4.975689
H    -1.735779  2.392954  3.416705
H    0.657625  0.964084  4.675107
H    0.178250  2.553377  5.237642
H    0.690732  3.654235  3.187437
H    0.742052  2.184930  2.246505
H    2.808697  3.027969  4.372842
H    2.981683  3.133287  2.612318
H    2.483000  0.513286  2.825758
H    3.144367  0.761621  4.332978
H    4.029421  1.167505  3.003860
N    -3.942514  0.457795  3.684603
C    -5.355577  0.084997  3.816742
H    -3.710093  1.443080  3.822469
H    -5.945400  1.001266  3.909623
H    -5.506449  -0.520083  4.721093
H    -5.691256  -0.461123  2.926772
Pb    -3.585253  -3.706681  3.220085
