35
Energy: -608356.911904 eV PBE+vdW (tier 2 basis)
C    0.139022  0.626003  0.217074
C    -0.227062  0.530204  1.653532
O    0.493442  1.222586  2.526302
H    0.082108  1.674677  -0.108818
H    -0.509791  0.022151  -0.422763
H    1.179472  0.297960  0.079404
N    -1.207577  -0.181251  2.127517
C    -2.237340  -1.014602  1.478352
C    -3.347244  -0.981897  2.583625
O    -2.968134  -0.797182  3.747101
H    -1.449112  -0.195898  3.157794
H    -2.569660  -0.546717  0.541546
C    -1.675002  -2.448051  1.262939
C    -2.617907  -3.543326  0.723007
C    -3.054361  -3.397049  -0.749617
C    -3.286566  -4.708303  -1.502114
N    -4.472299  -5.523490  -0.991731
H    -1.289886  -2.788046  2.235188
H    -0.803911  -2.368667  0.593755
H    -3.490108  -3.642382  1.386988
H    -2.047848  -4.479552  0.834202
H    -2.257556  -2.901579  -1.326733
H    -3.937404  -2.746236  -0.855453
H    -2.417561  -5.374796  -1.430824
H    -3.492132  -4.524813  -2.563452
H    -4.574955  -6.393706  -1.536520
H    -5.359712  -5.007997  -1.080381
H    -4.363824  -5.797687  -0.005186
N    -4.614103  -1.181967  2.205251
C    -5.740664  -1.155946  3.146560
H    -4.827456  -1.177108  1.212927
H    -6.487248  -1.895772  2.840268
H    -6.205402  -0.161936  3.166406
H    -5.370648  -1.399340  4.146015
Pb    1.704306  2.468534  3.723377
