35
Energy: -608357.013203 eV PBE+vdW (tier 2 basis)
C    -0.492622  0.192327  -0.361242
C    -0.286150  0.476847  1.082059
O    0.963039  0.552981  1.525958
H    -0.024053  -0.768480  -0.618544
H    0.001857  0.967703  -0.963967
H    -1.551036  0.154804  -0.632202
N    -1.234455  0.662082  1.951090
C    -2.704355  0.706553  1.837048
C    -3.039054  1.567331  3.105126
O    -2.208429  1.546775  4.024532
H    -1.039446  0.902923  2.968024
H    -3.000889  1.210134  0.906825
C    -3.268993  -0.739782  1.945833
C    -4.792219  -0.933580  2.084700
C    -5.631404  -0.834471  0.793064
C    -7.065390  -1.287872  1.078194
N    -7.934857  -1.331006  -0.172127
H    -2.802973  -1.187335  2.835431
H    -2.898154  -1.313574  1.082225
H    -5.194361  -0.256181  2.852178
H    -4.922636  -1.945387  2.496590
H    -5.187705  -1.481684  0.018999
H    -5.635048  0.192439  0.392064
H    -7.580967  -0.621728  1.781125
H    -7.090514  -2.303916  1.491898
H    -8.891481  -1.644136  0.054756
H    -7.562228  -1.985209  -0.875954
H    -8.017397  -0.407922  -0.622078
N    -4.192193  2.240599  3.122440
C    -4.616188  3.080882  4.249283
H    -4.741931  2.280814  2.270381
H    -5.692879  2.959952  4.407664
H    -4.396764  4.136603  4.045635
H    -4.075676  2.766293  5.145666
Pb    2.994318  0.741147  2.052927
