35
Energy: -608356.488919 eV PBE+vdW (tier 2 basis)
C    0.422688  -1.098890  0.531668
C    0.006757  -0.037567  1.491929
O    0.878990  0.849450  1.909632
H    1.242558  -1.692273  0.964126
H    0.787240  -0.638363  -0.399346
H    -0.392037  -1.784161  0.272978
N    -1.237343  0.010767  1.925722
C    -1.877806  0.962166  2.855064
C    -2.681054  0.189678  3.964070
O    -3.882619  0.435384  4.123028
H    -1.854226  -0.698088  1.524736
H    -1.069848  1.522111  3.345402
C    -2.804911  1.944254  2.112280
C    -3.882979  1.312045  1.203302
C    -5.169038  2.164128  1.059675
C    -6.377811  1.699900  1.868122
N    -6.203162  1.843916  3.370989
H    -2.181462  2.632923  1.524767
H    -3.260027  2.557300  2.901904
H    -4.165800  0.312594  1.568494
H    -3.458841  1.159782  0.201461
H    -5.505820  2.136065  0.014255
H    -4.959129  3.226921  1.259383
H    -6.598195  0.639656  1.690387
H    -7.269260  2.279548  1.600624
H    -7.017502  1.460248  3.870384
H    -6.125144  2.832163  3.644737
H    -5.349010  1.338006  3.706381
N    -2.037595  -0.705768  4.731228
C    -0.614680  -1.018697  4.811311
H    -2.643048  -1.152122  5.421225
H    -0.393746  -1.360196  5.827761
H    -0.003965  -0.126036  4.626841
H    -0.332701  -1.822469  4.116644
Pb    2.873349  1.671543  1.731752
