35
Energy: -608356.888903 eV PBE+vdW (tier 2 basis)
C    -0.080692  -1.176594  0.371719
C    -0.028054  -0.127761  1.422516
O    1.130395  0.089225  2.030998
H    0.613602  -0.918543  -0.441477
H    -1.081581  -1.305809  -0.048505
H    0.252323  -2.135939  0.793142
N    -1.037983  0.604807  1.795889
C    -2.422562  0.693556  1.289833
C    -2.755739  2.174881  1.659457
O    -2.187933  2.623753  2.665344
H    -0.944812  1.356025  2.527310
H    -2.433818  0.509538  0.209233
C    -3.314025  -0.333291  2.045306
C    -4.825099  -0.356354  1.709322
C    -5.694036  0.567229  2.583068
C    -7.194539  0.544520  2.290804
N    -7.900642  -0.708917  2.804047
H    -3.173448  -0.171056  3.124599
H    -2.896039  -1.325820  1.825885
H    -5.144872  -1.402116  1.839453
H    -4.989487  -0.134287  0.644145
H    -5.391449  1.615645  2.449273
H    -5.521769  0.357065  3.651561
H    -7.417179  0.593590  1.217163
H    -7.701738  1.381766  2.784454
H    -8.912413  -0.665891  2.607603
H    -7.795448  -0.810468  3.824317
H    -7.545632  -1.570464  2.366932
N    -3.615996  2.888967  0.919216
C    -4.268997  2.569962  -0.347889
H    -3.737961  3.841371  1.266341
H    -5.352340  2.448017  -0.213939
H    -3.861242  1.655106  -0.786700
H    -4.102563  3.387803  -1.058767
Pb    3.123820  0.286973  2.697841
