35
Energy: -608356.867590 eV PBE+vdW (tier 2 basis)
C    -0.691412  -0.436087  1.271122
C    0.108525  0.701385  0.749079
O    1.392849  0.488817  0.488919
H    -0.226731  -0.823136  2.189101
H    -0.690821  -1.254454  0.536240
H    -1.725955  -0.156967  1.487741
N    -0.350643  1.896251  0.521698
C    -1.704868  2.476884  0.613680
C    -1.566604  3.632281  -0.437469
O    -0.421476  4.082012  -0.595888
H    0.249037  2.669841  0.115101
H    -2.455083  1.727318  0.336594
C    -1.915090  3.040966  2.049875
C    -3.183342  3.875235  2.330493
C    -4.475395  3.069812  2.547071
C    -5.736362  3.898800  2.798037
N    -5.764299  4.576562  4.165782
H    -1.042828  3.675054  2.263019
H    -1.864185  2.195862  2.754020
H    -3.328077  4.624615  1.538033
H    -2.948938  4.455056  3.237536
H    -4.344462  2.340622  3.363747
H    -4.711267  2.467009  1.657284
H    -6.633251  3.269012  2.768220
H    -5.859558  4.705536  2.064137
H    -6.644051  5.099488  4.295599
H    -4.994241  5.248474  4.289904
H    -5.706224  3.889777  4.932025
N    -2.635134  4.096445  -1.095706
C    -4.004255  3.595252  -1.137837
H    -2.410356  4.866890  -1.726669
H    -4.344328  3.567577  -2.179401
H    -4.686569  4.246144  -0.573973
H    -4.064577  2.576205  -0.743628
Pb    3.370154  -0.056792  0.000377
