35
Energy: -608357.302517 eV PBE+vdW (tier 2 basis)
C    0.302417  0.131472  0.109043
C    -0.028372  -0.074670  1.538341
O    0.892879  -0.386748  2.372307
H    0.754253  -0.809265  -0.252032
H    1.083526  0.895176  -0.011545
H    -0.565513  0.356503  -0.516813
N    -1.298017  0.025243  2.001610
C    -2.166335  1.184440  1.750583
C    -1.441540  2.391548  2.406690
O    -0.642575  2.179919  3.397071
H    -1.412084  -0.361842  2.940350
H    -2.240674  1.348020  0.667207
C    -3.572705  0.869255  2.332751
C    -4.682488  1.889126  2.028129
C    -6.077439  1.529205  2.596393
C    -6.827972  0.454997  1.805483
N    -8.258697  0.301768  2.306245
H    -3.478236  0.745501  3.424316
H    -3.830768  -0.118593  1.922360
H    -4.766788  2.047568  0.941720
H    -4.418501  2.862337  2.464260
H    -6.674696  2.454031  2.587563
H    -5.986604  1.228248  3.652191
H    -6.375757  -0.540888  1.886367
H    -6.910917  0.712413  0.741777
H    -8.767653  -0.420809  1.773944
H    -8.792585  1.179358  2.211400
H    -8.295471  0.029581  3.300106
N    -1.597491  3.627296  1.974582
C    -2.362334  4.155721  0.839803
H    -1.069347  4.324506  2.506643
H    -3.204070  4.757493  1.203878
H    -2.735953  3.350694  0.203407
H    -1.702186  4.801337  0.248381
Pb    1.147879  0.970106  4.178334
