35
Energy: -608357.864175 eV PBE+vdW (tier 2 basis)
C    -0.685656  0.600507  0.015458
C    -0.562571  0.174185  1.437137
O    0.583392  -0.174542  1.884077
H    -1.704313  0.875726  -0.277021
H    -0.334457  -0.220747  -0.627507
H    -0.011742  1.449214  -0.170136
N    -1.665651  0.156884  2.199175
C    -1.868426  -0.329001  3.586010
C    -1.051300  0.519351  4.583668
O    0.191947  0.286119  4.799441
H    -2.511679  0.464755  1.724091
H    -2.925990  -0.113138  3.782301
C    -1.652736  -1.852455  3.743857
C    -2.254079  -2.446711  5.040217
C    -3.770521  -2.752376  4.995292
C    -4.180808  -4.120984  4.439087
N    -4.116465  -5.232197  5.483725
H    -0.579930  -2.081300  3.702973
H    -2.093055  -2.331357  2.856811
H    -2.053934  -1.774044  5.887636
H    -1.688014  -3.359584  5.280056
H    -4.295376  -2.008618  4.376737
H    -4.207250  -2.626555  5.998138
H    -3.551449  -4.453701  3.603880
H    -5.222058  -4.112555  4.096317
H    -4.394509  -6.138380  5.075190
H    -4.759385  -5.048570  6.269194
H    -3.174348  -5.356508  5.880576
N    -1.639046  1.491243  5.254811
C    -3.034744  1.955541  5.198213
H    -1.021706  1.993248  5.897780
H    -3.120155  2.829759  5.849957
H    -3.723122  1.186245  5.569055
H    -3.308801  2.261832  4.181871
Pb    2.032583  -0.109733  3.566441
