35
Energy: -608356.702180 eV PBE+vdW (tier 2 basis)
C    -0.193446  -0.509482  -0.773979
C    -0.426050  -0.094439  0.640821
O    0.585611  0.353357  1.363388
H    0.532792  -1.336656  -0.803694
H    0.213091  0.335782  -1.349328
H    -1.108763  -0.850396  -1.268878
N    -1.621702  -0.178979  1.154906
C    -2.155594  0.059440  2.505021
C    -3.174249  -1.126458  2.616341
O    -3.741334  -1.434593  1.559191
H    -2.388587  -0.633176  0.605417
H    -1.342955  0.034711  3.239238
C    -2.923338  1.414411  2.522953
C    -3.639161  1.715324  3.851310
C    -4.469043  3.020275  3.864853
C    -5.824745  2.893840  3.168800
N    -6.670525  4.144409  3.376473
H    -3.641515  1.382021  1.689719
H    -2.204282  2.216039  2.296957
H    -2.893790  1.800465  4.654578
H    -4.294403  0.876761  4.130894
H    -3.889286  3.844626  3.419824
H    -4.636782  3.289541  4.919250
H    -6.416667  2.063722  3.574641
H    -5.746221  2.762822  2.082796
H    -7.589295  4.058873  2.915859
H    -6.214724  4.986596  2.995391
H    -6.847155  4.320677  4.377084
N    -3.411867  -1.730219  3.788235
C    -2.773050  -1.557479  5.089472
H    -4.085659  -2.494380  3.710410
H    -3.540354  -1.444473  5.865159
H    -2.139641  -0.666573  5.103736
H    -2.160847  -2.435088  5.335704
Pb    2.725465  0.561847  1.318564
