35
Energy: -608356.482539 eV PBE+vdW (tier 2 basis)
C    0.756194  -0.788739  0.428234
C    0.134268  -1.117201  1.753405
O    0.399845  -2.109255  2.417281
H    1.804099  -1.106978  0.427382
H    0.678954  0.270884  0.156580
H    0.249829  -1.378215  -0.351189
N    -0.855094  -0.227598  2.219113
C    -1.399089  -0.449944  3.545519
C    -2.882427  -0.796844  3.450020
O    -3.577377  -0.998472  4.532551
H    -0.851717  0.721537  1.850254
H    -0.926234  -1.407405  3.866459
C    -1.077529  0.650871  4.584335
C    0.273521  0.516936  5.317255
C    1.560582  0.834780  4.526845
C    2.748437  0.868408  5.491950
N    4.062878  1.207491  4.801303
H    -1.856633  0.630405  5.358209
H    -1.165143  1.636695  4.100528
H    0.351605  -0.494151  5.746045
H    0.220917  1.204348  6.175134
H    1.460061  1.812326  4.027834
H    1.738663  0.075934  3.749789
H    2.908178  -0.100996  5.980535
H    2.617544  1.629065  6.271851
H    4.312088  0.513547  4.081751
H    4.840114  1.232364  5.479395
H    4.030781  2.130957  4.344888
N    -3.431099  -0.956660  2.267974
C    -4.796888  -1.384104  2.009218
H    -2.785912  -0.792964  1.485867
H    -4.961904  -1.435927  0.927652
H    -5.519868  -0.658696  2.415912
H    -4.972283  -2.399750  2.407157
Pb    -5.379928  -1.751304  5.455681
