35
Energy: -608358.152486 eV PBE+vdW (tier 2 basis)
C    2.258358  -0.253129  0.011980
C    1.640662  -0.800040  1.250669
O    2.388051  -1.115961  2.239180
H    3.004416  -0.962262  -0.373069
H    2.808921  0.663426  0.274395
H    1.532761  -0.023917  -0.775416
N    0.307037  -0.923911  1.315814
C    -0.488254  -1.288964  2.500893
C    -0.490049  -2.827043  2.670035
O    0.582041  -3.406900  3.064062
H    -0.204462  -0.678743  0.471309
H    0.080042  -0.933781  3.374695
C    -1.847345  -0.539291  2.540861
C    -2.719400  -0.513287  1.266505
C    -4.152920  0.040735  1.466333
C    -4.229050  1.553570  1.690277
N    -5.673973  2.035872  1.699454
H    -1.607955  0.491382  2.839443
H    -2.416878  -0.960871  3.383759
H    -2.838506  -1.520468  0.837455
H    -2.230448  0.078092  0.475051
H    -4.640422  -0.485911  2.302265
H    -4.724283  -0.212420  0.559972
H    -3.733062  2.113319  0.887010
H    -3.803299  1.871562  2.649666
H    -5.727058  3.056238  1.844250
H    -6.226510  1.594690  2.450227
H    -6.152677  1.831884  0.808584
N    -1.564930  -3.548825  2.435392
C    -1.637875  -5.011769  2.584082
H    -2.406486  -3.068454  2.130881
H    -2.684227  -5.314390  2.495685
H    -1.251440  -5.306113  3.565916
H    -1.048495  -5.501378  1.799003
Pb    2.712554  -2.860360  3.598663
