35
Energy: -608356.783896 eV PBE+vdW (tier 2 basis)
C    -0.124784  -1.107010  0.623591
C    0.007340  0.048974  1.547036
O    1.181786  0.242488  2.134839
H    -1.130274  -1.196195  0.203920
H    0.122333  -2.035639  1.157751
H    0.596004  -1.004198  -0.200700
N    -0.939151  0.895582  1.826832
C    -2.324353  1.040372  1.336554
C    -2.537323  2.571197  1.601668
O    -1.870189  3.055834  2.527954
H    -0.790117  1.724626  2.470179
H    -2.378712  0.770113  0.275444
C    -3.261852  0.176685  2.229714
C    -4.789655  0.246908  2.018352
C    -5.342919  -0.504579  0.788755
C    -6.718599  -1.146916  0.973080
N    -7.859801  -0.147011  1.146091
H    -3.056236  0.472609  3.268592
H    -2.938274  -0.871772  2.136297
H    -5.123440  1.295589  2.029341
H    -5.213106  -0.207228  2.928494
H    -4.686945  -1.356254  0.549037
H    -5.343643  0.125777  -0.113594
H    -6.751701  -1.788923  1.862566
H    -6.991446  -1.753792  0.101506
H    -7.733606  0.452969  1.973313
H    -8.758494  -0.639516  1.266347
H    -7.961534  0.465522  0.324159
N    -3.407775  3.283181  0.876133
C    -4.139179  2.921095  -0.331732
H    -3.464206  4.259693  1.169124
H    -3.936980  3.657056  -1.119289
H    -5.221629  2.909277  -0.145169
H    -3.825927  1.940593  -0.701581
Pb    3.138718  0.458255  2.890061
