35
Energy: -608356.519926 eV PBE+vdW (tier 2 basis)
C    0.267755  0.671787  0.392204
C    -0.009938  0.482530  1.838648
O    0.966795  0.585787  2.708793
H    1.188146  0.143886  0.111642
H    0.423749  1.747160  0.203183
H    -0.549241  0.349370  -0.260518
N    -1.218066  0.242089  2.320937
C    -2.462258  0.075899  1.544366
C    -2.995178  1.428197  0.941548
O    -3.127963  1.447320  -0.278266
H    -1.285522  0.180907  3.339444
H    -2.201390  -0.497349  0.648059
C    -3.522572  -0.720804  2.329536
C    -4.745373  -1.069597  1.454375
C    -5.749794  -1.967159  2.201048
C    -6.818897  -2.642619  1.344018
N    -7.905284  -1.693846  0.842471
H    -3.841714  -0.172040  3.227929
H    -3.054811  -1.656297  2.674587
H    -4.395998  -1.587276  0.547003
H    -5.226613  -0.139538  1.111417
H    -6.222997  -1.423959  3.035350
H    -5.209255  -2.802456  2.672870
H    -7.349153  -3.409941  1.920296
H    -6.398081  -3.116893  0.448383
H    -8.614232  -2.207612  0.297109
H    -7.532140  -0.954962  0.230970
H    -8.398570  -1.236876  1.623232
N    -3.279135  2.482482  1.737438
C    -3.343135  2.586509  3.192278
H    -3.632407  3.281417  1.211333
H    -3.302687  3.647542  3.459596
H    -2.487137  2.104289  3.678162
H    -4.274137  2.170942  3.601779
Pb    3.017089  0.791816  3.332825
