35
Energy: -608356.327365 eV PBE+vdW (tier 2 basis)
C    0.978055  -0.215219  0.321201
C    0.396567  -0.594168  1.652988
O    0.882614  -1.442288  2.398151
H    2.070423  -0.185068  0.396489
H    0.603475  0.738392  -0.067983
H    0.732349  -1.007265  -0.401714
N    -0.771564  0.061845  2.027133
C    -1.402834  -0.225243  3.305688
C    -2.797193  -0.789996  3.019965
O    -3.851628  0.002061  3.039078
H    -1.098354  0.840303  1.462139
H    -0.809426  -1.064618  3.706828
C    -1.369704  0.931842  4.329127
C    -0.190304  0.883818  5.325743
C    1.233261  1.082411  4.765698
C    2.231556  1.134259  5.924330
N    3.669988  1.286903  5.447973
H    -2.282698  0.896463  4.941223
H    -1.388328  1.895364  3.797395
H    -0.232842  -0.071696  5.872171
H    -0.386194  1.664664  6.076064
H    1.282975  2.019479  4.187925
H    1.499229  0.255472  4.089120
H    2.212138  0.215006  6.523345
H    2.045690  1.983750  6.593491
H    4.322960  1.317442  6.246050
H    3.807473  2.155647  4.911210
H    3.960787  0.501565  4.847468
N    -2.981138  -2.052303  2.714484
C    -2.006364  -3.149752  2.619968
H    -3.942170  -2.321801  2.493111
H    -0.979843  -2.786690  2.712968
H    -2.135044  -3.635644  1.644662
H    -2.223994  -3.882532  3.408301
Pb    -5.719253  1.033011  3.108658
