35
Energy: -608356.828931 eV PBE+vdW (tier 2 basis)
C    0.716091  0.364925  2.757685
C    -0.351802  -0.583874  3.165328
O    -0.039979  -1.526210  4.047205
H    1.583076  -0.195163  2.380128
H    1.054930  0.936204  3.634610
H    0.382686  1.066104  1.988046
N    -1.575831  -0.565320  2.727999
C    -2.306126  0.377732  1.858751
C    -3.749796  0.208802  2.452171
O    -3.991340  -0.895485  2.967790
H    -2.322947  -1.226482  3.091349
H    -1.909108  1.391853  1.983743
C    -2.232316  -0.105327  0.381015
C    -3.143102  0.634801  -0.618277
C    -3.185376  -0.048614  -2.007805
C    -2.174957  0.412357  -3.059798
N    -2.675612  1.611470  -3.863592
H    -2.508757  -1.170745  0.378883
H    -1.179276  -0.051599  0.062516
H    -2.843472  1.692487  -0.703035
H    -4.168874  0.641747  -0.228174
H    -4.200391  0.033706  -2.427100
H    -3.035402  -1.130907  -1.884743
H    -1.990028  -0.370326  -3.804666
H    -1.209532  0.714057  -2.634820
H    -3.541672  1.379631  -4.373183
H    -1.981781  1.907624  -4.566799
H    -2.878683  2.428044  -3.270758
N    -4.643380  1.199916  2.387303
C    -4.496610  2.580650  1.935653
H    -5.543533  0.951316  2.800864
H    -4.760909  3.265214  2.750936
H    -5.162630  2.779773  1.086427
H    -3.466516  2.789632  1.634268
Pb    0.565631  -2.828611  5.590809
