35
Energy: -608356.705053 eV PBE+vdW (tier 2 basis)
C    0.756395  -0.403697  2.691375
C    -0.193170  0.727579  2.814872
O    0.272279  1.926212  3.111214
H    1.339141  -0.488802  3.620588
H    1.466710  -0.194368  1.877353
H    0.259514  -1.359389  2.502187
N    -1.497257  0.626869  2.656737
C    -2.348858  -0.527836  2.234738
C    -2.193509  -1.776042  3.167415
O    -1.606949  -2.786708  2.741739
H    -2.009176  1.502524  2.783125
H    -3.368577  -0.138414  2.361382
C    -2.150080  -0.931084  0.767315
C    -3.354541  -1.762654  0.263273
C    -3.018730  -2.815567  -0.820278
C    -3.037863  -4.267848  -0.355481
N    -1.890611  -4.621273  0.581118
H    -1.213493  -1.498612  0.681807
H    -2.038746  -0.028203  0.151894
H    -4.108718  -1.070266  -0.131310
H    -3.847264  -2.268944  1.108744
H    -2.065363  -2.584605  -1.321485
H    -3.772939  -2.763440  -1.617588
H    -2.963155  -4.956428  -1.205587
H    -3.960273  -4.503649  0.190248
H    -0.991926  -4.597063  0.082191
H    -2.001637  -5.576778  0.947356
H    -1.821775  -3.966814  1.397220
N    -2.726581  -1.710739  4.392775
C    -3.507273  -0.629091  4.997581
H    -2.613273  -2.563555  4.940882
H    -3.864292  -0.973616  5.972359
H    -4.388936  -0.377746  4.393474
H    -2.898924  0.269069  5.167412
Pb    1.574026  3.572074  3.528356
