35
Energy: -608356.393504 eV PBE+vdW (tier 2 basis)
C    0.239974  0.660224  0.309835
C    0.064232  0.294622  1.734406
O    1.127338  0.213277  2.512549
H    -0.625416  0.365935  -0.287093
H    1.131152  0.161321  -0.090476
H    0.399080  1.747514  0.228311
N    -1.094607  0.053137  2.314895
C    -2.510424  0.108507  1.836003
C    -2.827326  -1.176553  1.015723
O    -2.341285  -1.317407  -0.121711
H    -1.014108  -0.186779  3.304773
H    -3.058471  0.053422  2.781506
C    -2.929154  1.447964  1.146144
C    -3.225269  1.484338  -0.362308
C    -4.603603  0.921396  -0.772696
C    -4.674917  0.503922  -2.239011
N    -4.055649  -0.878749  -2.452030
H    -2.160144  2.195873  1.384572
H    -3.824702  1.792690  1.682664
H    -2.426311  0.985128  -0.926342
H    -3.184741  2.538854  -0.670070
H    -5.372566  1.690295  -0.614549
H    -4.916253  0.075670  -0.138459
H    -4.128320  1.199437  -2.887236
H    -5.705303  0.441506  -2.605452
H    -3.676235  -0.986010  -3.402030
H    -3.299559  -1.074077  -1.756413
H    -4.765167  -1.613310  -2.334095
N    -3.641801  -2.079009  1.581116
C    -4.297194  -2.061371  2.896442
H    -3.785207  -2.914300  1.014388
H    -4.946938  -2.939415  2.957939
H    -4.929693  -1.174363  3.023233
H    -3.569927  -2.131447  3.715713
Pb    3.129441  0.306801  3.254315
