35
Energy: -608357.336231 eV PBE+vdW (tier 2 basis)
C    -0.114063  -0.406928  -0.071655
C    -0.086372  -0.139787  1.391728
O    1.025913  0.138303  1.961296
H    0.795258  0.000607  -0.527217
H    -0.999155  0.016112  -0.556083
H    -0.111235  -1.494796  -0.258363
N    -1.201034  -0.187201  2.159296
C    -2.182215  -1.295622  2.128568
C    -1.364016  -2.613854  2.319573
O    -0.171732  -2.563301  2.795562
H    -1.037802  0.179441  3.097574
H    -2.738566  -1.183256  3.074103
C    -3.233247  -1.284661  0.997370
C    -4.259629  -0.122646  1.038506
C    -3.852179  1.171099  0.311014
C    -4.862488  2.319880  0.394551
N    -6.113818  2.116587  -0.456041
H    -3.821731  -2.206697  1.108080
H    -2.756765  -1.359073  0.010892
H    -4.515538  0.104059  2.085861
H    -5.181870  -0.523306  0.590275
H    -3.616719  0.963400  -0.746075
H    -2.929077  1.580188  0.747853
H    -4.417634  3.254644  0.033694
H    -5.220354  2.486025  1.418649
H    -6.739596  2.933834  -0.378771
H    -6.663078  1.293934  -0.170312
H    -5.885762  2.008351  -1.455589
N    -1.912030  -3.779711  2.057682
C    -1.272412  -5.084178  2.297399
H    -2.857513  -3.793149  1.682738
H    -2.003635  -5.867096  2.081044
H    -0.955426  -5.159447  3.343709
H    -0.404851  -5.207859  1.638099
Pb    1.774636  -1.499664  3.351214
