35
Energy: -608357.987946 eV PBE+vdW (tier 2 basis)
C    -0.205496  -0.207192  0.116819
C    0.097743  -0.094174  1.571281
O    1.307440  0.094782  1.940881
H    -1.261675  -0.396556  -0.101603
H    0.404889  -1.017855  -0.308282
H    0.109061  0.715264  -0.392717
N    -0.911508  -0.210029  2.446383
C    -0.907070  -0.240101  3.930281
C    -0.464677  1.113206  4.526128
O    0.759353  1.491108  4.520364
H    -1.826624  -0.327392  2.016920
H    -1.968803  -0.358688  4.187998
C    -0.132004  -1.435929  4.538205
C    -0.724668  -2.824049  4.198695
C    -1.945357  -3.266483  5.040793
C    -1.647338  -4.019761  6.342159
N    -1.400148  -5.510216  6.122597
H    -0.097328  -1.283870  5.628379
H    0.910451  -1.403609  4.195106
H    0.089789  -3.558811  4.291306
H    -0.996965  -2.852664  3.134081
H    -2.625547  -3.873065  4.423004
H    -2.552702  -2.395614  5.330531
H    -2.497874  -3.970845  7.032059
H    -0.761390  -3.640005  6.866742
H    -0.605129  -5.696841  5.495062
H    -2.227597  -5.973233  5.716317
H    -1.198863  -5.986774  7.015699
N    -1.388157  1.865626  5.091754
C    -1.165733  3.167054  5.735484
H    -2.350764  1.533115  5.070565
H    -1.787102  3.221054  6.635846
H    -1.460256  3.973735  5.050972
H    -0.112087  3.270587  6.003534
Pb    2.612134  1.314222  3.270660
