35
Energy: -608356.770769 eV PBE+vdW (tier 2 basis)
C    0.437135  -0.751323  -0.022343
C    0.347442  -0.056912  1.288273
O    1.444009  0.470184  1.805029
H    -0.512876  -1.175770  -0.355834
H    1.172122  -1.567003  0.047719
H    0.794237  -0.048023  -0.789580
N    -0.761091  0.068350  1.975320
C    -2.134132  -0.325358  1.598185
C    -3.050049  0.660460  2.369992
O    -2.718753  1.013713  3.519871
H    -0.745036  0.567356  2.879273
H    -2.247427  -0.159925  0.518775
C    -2.487722  -1.813849  1.902259
C    -2.005437  -2.486496  3.202477
C    -2.356690  -1.868762  4.568122
C    -3.853434  -1.661156  4.831582
N    -4.059875  -0.431060  5.695680
H    -3.581395  -1.884471  1.801650
H    -2.095862  -2.417981  1.071271
H    -0.910881  -2.594319  3.171988
H    -2.386081  -3.517773  3.159819
H    -1.845842  -0.901462  4.670884
H    -1.941134  -2.521398  5.348179
H    -4.315609  -2.509573  5.348572
H    -4.429357  -1.471883  3.918011
H    -5.054151  -0.270405  5.909735
H    -3.685424  0.393731  5.180822
H    -3.565901  -0.509835  6.595735
N    -4.161915  1.037579  1.736857
C    -5.164569  1.949523  2.294492
H    -4.324348  0.698972  0.791685
H    -5.451122  2.678992  1.529244
H    -4.732632  2.477919  3.148820
H    -6.062320  1.398041  2.603332
Pb    3.461429  1.166799  1.869634
