35
Energy: -608356.674301 eV PBE+vdW (tier 2 basis)
C    -0.019490  0.887308  0.419956
C    -0.043035  0.460193  1.854951
O    0.931012  -0.134007  2.387662
H    -0.842458  1.554708  0.142464
H    -0.080783  -0.003034  -0.224177
H    0.938094  1.377011  0.203933
N    -1.163917  0.743925  2.564264
C    -1.534156  0.317746  3.925981
C    -0.598284  0.852619  5.016828
O    -1.144267  1.313528  6.121826
H    -1.882277  1.269088  2.072485
H    -2.486075  0.830376  4.115984
C    -1.845056  -1.200865  4.121352
C    -0.757236  -2.257682  3.839043
C    -0.819611  -2.878917  2.427361
C    0.408197  -3.714982  2.063358
N    1.523042  -2.861133  1.457664
H    -2.736139  -1.404566  3.508968
H    -2.187375  -1.301635  5.162444
H    -0.895171  -3.073171  4.562791
H    0.242910  -1.852900  4.046798
H    -0.999113  -2.123121  1.646689
H    -1.689871  -3.548204  2.374598
H    0.176750  -4.484914  1.319466
H    0.836015  -4.215376  2.940499
H    2.449184  -3.285340  1.603880
H    1.526411  -1.891465  1.843510
H    1.398616  -2.774872  0.440308
N    0.693376  0.818477  4.866634
C    1.696195  1.295558  5.818330
H    0.994232  0.404845  3.935551
H    1.552261  2.364478  6.026743
H    2.685291  1.162185  5.372076
H    1.649505  0.719513  6.752194
Pb    -1.853501  2.249798  7.899423
