35
Energy: -608357.624496 eV PBE+vdW (tier 2 basis)
C    -0.054325  -0.320789  0.231515
C    -0.200339  0.012560  1.668229
O    0.811675  -0.076777  2.451985
H    -0.994411  -0.295905  -0.326815
H    0.353672  -1.345114  0.181926
H    0.700332  0.317821  -0.249770
N    -1.389745  0.376798  2.203387
C    -2.224629  1.435098  1.629244
C    -1.607200  2.781899  2.128415
O    -0.518075  2.793295  2.806770
H    -1.383947  0.362816  3.224261
H    -2.060079  1.424634  0.540705
C    -3.740558  1.226040  1.861250
C    -4.210193  1.139969  3.323571
C    -5.746163  1.114098  3.517366
C    -6.419681  -0.196307  3.103086
N    -7.901803  -0.188558  3.455690
H    -4.001175  0.312173  1.307903
H    -4.276436  2.038582  1.345081
H    -3.844034  2.014396  3.883292
H    -3.777685  0.253708  3.815068
H    -6.200467  1.957308  2.972687
H    -5.941441  1.291461  4.586226
H    -5.992555  -1.061585  3.625907
H    -6.372868  -0.385533  2.023771
H    -8.356361  -1.074466  3.185169
H    -8.409883  0.571067  2.977991
H    -8.054265  -0.066903  4.468617
N    -2.196511  3.912700  1.802004
C    -1.694180  5.257757  2.123002
H    -3.040855  3.862222  1.235368
H    -2.514121  5.969909  1.996765
H    -0.876044  5.528767  1.443011
H    -1.338769  5.286015  3.157506
Pb    1.422764  1.804985  3.552877
