35
Energy: -608357.249100 eV PBE+vdW (tier 2 basis)
C    0.146742  0.725384  0.180785
C    0.042831  0.205041  1.569937
O    1.033200  -0.455265  2.053149
H    1.207970  0.902969  -0.036335
H    -0.421140  1.644513  0.021403
H    -0.196047  -0.038318  -0.536992
N    -1.023862  0.412696  2.375361
C    -2.439365  0.163947  2.033143
C    -2.569798  -1.379390  1.850852
O    -1.514977  -2.101335  1.709954
H    -0.812053  0.170763  3.345385
H    -2.995413  0.427271  2.946531
C    -3.026778  1.002557  0.871786
C    -2.976724  2.523805  1.131084
C    -3.412947  3.373133  -0.090110
C    -4.883048  3.797937  -0.174773
N    -5.162256  5.115033  0.546374
H    -4.066941  0.679088  0.728670
H    -2.517025  0.757830  -0.069409
H    -1.951502  2.811595  1.401822
H    -3.584619  2.763871  2.019214
H    -3.199952  2.820799  -1.017036
H    -2.778062  4.269895  -0.159660
H    -5.574085  3.063288  0.256983
H    -5.183664  3.975065  -1.213994
H    -6.157301  5.377543  0.468932
H    -4.616580  5.888330  0.135958
H    -4.934484  5.078934  1.549948
N    -3.747361  -1.972997  1.858868
C    -5.085674  -1.417160  2.083444
H    -3.708533  -2.983596  1.704734
H    -5.653971  -2.133534  2.687259
H    -5.607847  -1.276798  1.128100
H    -5.032577  -0.471594  2.630734
Pb    0.644891  -2.664445  2.281097
