35
Energy: -608356.796903 eV PBE+vdW (tier 2 basis)
C    -0.145170  0.507773  -0.073270
C    -0.629965  -0.848777  0.311681
O    -0.439165  -1.868723  -0.496540
H    0.944168  0.484375  -0.230019
H    -0.361395  1.269097  0.684088
H    -0.625032  0.821105  -1.013210
N    -1.249474  -1.026315  1.457394
C    -1.820729  -2.241933  2.076510
C    -3.174523  -1.788087  2.710720
O    -3.126862  -1.085682  3.735632
H    -1.340644  -0.190412  2.042975
H    -1.962994  -2.993988  1.290369
C    -0.887504  -2.741617  3.201905
C    -1.538280  -3.817594  4.096665
C    -1.063990  -3.811648  5.563027
C    -1.246384  -2.524581  6.366403
N    -2.682207  -2.025742  6.393121
H    -0.615945  -1.860114  3.799294
H    0.045227  -3.115789  2.758557
H    -1.336853  -4.815551  3.685264
H    -2.635323  -3.722696  4.072040
H    0.010632  -4.043302  5.614833
H    -1.560946  -4.641502  6.088123
H    -0.653828  -1.686386  5.980303
H    -0.946769  -2.687405  7.408361
H    -2.784051  -1.246607  7.058046
H    -3.333016  -2.763572  6.694519
H    -2.973718  -1.675894  5.448464
N    -4.294883  -2.176693  2.098575
C    -5.644075  -1.839671  2.565286
H    -4.221913  -2.782979  1.286912
H    -6.266757  -1.576929  1.703412
H    -5.582189  -0.986351  3.245693
H    -6.097303  -2.695524  3.082018
Pb    0.427239  -2.506328  -2.369436
