35
Energy: -608356.932801 eV PBE+vdW (tier 2 basis)
C    0.231819  -0.266825  0.088980
C    0.083553  -0.225068  1.566583
O    1.165184  -0.272054  2.319727
H    0.922004  -1.075458  -0.187097
H    0.672606  0.679097  -0.263504
H    -0.712500  -0.427065  -0.437472
N    -1.073044  -0.135464  2.187410
C    -2.440903  -0.052310  1.612811
C    -3.245696  0.943307  2.509698
O    -3.716048  0.531046  3.583543
H    -1.041209  -0.155046  3.212042
H    -2.356245  0.336828  0.590738
C    -3.124423  -1.430393  1.638499
C    -4.594198  -1.360249  1.172294
C    -5.526907  -2.412448  1.800256
C    -5.652434  -2.428077  3.322677
N    -6.053280  -1.082263  3.905360
H    -3.057639  -1.803066  2.670407
H    -2.554197  -2.130290  1.011789
H    -4.640607  -1.480773  0.081707
H    -5.004816  -0.354795  1.358753
H    -5.203315  -3.425146  1.516083
H    -6.526310  -2.295331  1.354339
H    -4.718673  -2.698535  3.830276
H    -6.418102  -3.149791  3.630520
H    -5.270884  -0.389997  3.814617
H    -6.891534  -0.705429  3.442456
H    -6.277165  -1.170121  4.905991
N    -3.365867  2.192462  2.050620
C    -4.097789  3.255010  2.746219
H    -2.985874  2.415280  1.134694
H    -3.538958  4.192846  2.658213
H    -4.201826  2.985371  3.800493
H    -5.091194  3.393657  2.299806
Pb    3.230386  -0.376692  2.871838
