35
Energy: -608356.926839 eV PBE+vdW (tier 2 basis)
C    0.527881  -1.826761  0.927393
C    0.196176  -0.474658  1.445845
O    1.187906  0.296221  1.868081
H    -0.358249  -2.410082  0.663762
H    1.103004  -2.379744  1.683545
H    1.165331  -1.732445  0.035545
N    -1.008884  0.018618  1.514015
C    -2.303542  -0.506596  1.041248
C    -3.059519  0.824133  0.730290
O    -2.791138  1.794436  1.449834
H    -1.184106  0.990870  1.864411
H    -2.152473  -1.118186  0.141710
C    -2.997551  -1.331833  2.160917
C    -4.408140  -1.860481  1.806688
C    -5.591241  -0.955568  2.222845
C    -6.127468  -1.154012  3.641517
N    -7.056265  -2.361213  3.756257
H    -3.028908  -0.713692  3.071118
H    -2.338873  -2.182489  2.385892
H    -4.510093  -2.856448  2.265541
H    -4.472862  -2.058275  0.727225
H    -6.421057  -1.066112  1.507247
H    -5.306558  0.103622  2.154733
H    -6.729916  -0.296445  3.963000
H    -5.334004  -1.311383  4.383132
H    -7.398431  -2.476854  4.722284
H    -6.595187  -3.242461  3.489482
H    -7.885509  -2.253757  3.153090
N    -3.949349  0.808503  -0.268742
C    -4.726393  1.983757  -0.675227
H    -4.014445  -0.021724  -0.850398
H    -4.360522  2.368611  -1.635206
H    -4.617511  2.757900  0.088791
H    -5.782375  1.710518  -0.781451
Pb    3.020472  1.269293  2.277213
