35
Energy: -608356.928257 eV PBE+vdW (tier 2 basis)
C    -0.550867  0.422161  -0.226956
C    -0.160179  0.432597  1.207338
O    0.964919  1.052795  1.542200
H    -1.454619  -0.162210  -0.418309
H    0.270305  0.008552  -0.829550
H    -0.720096  1.453838  -0.570380
N    -0.840879  -0.123374  2.167858
C    -2.198345  -0.699005  2.160243
C    -2.637817  -0.417249  3.631263
O    -1.727845  -0.209327  4.452821
H    -0.580616  -0.023201  3.191459
H    -2.816960  -0.141604  1.445981
C    -2.256516  -2.208537  1.806034
C    -1.747234  -3.201536  2.867522
C    -1.846932  -4.648854  2.347279
C    -1.290865  -5.747544  3.252025
N    -2.221979  -6.125330  4.402127
H    -1.708159  -2.358207  0.863130
H    -3.308615  -2.429085  1.572608
H    -2.330493  -3.072621  3.794003
H    -0.701413  -2.980073  3.131287
H    -1.274079  -4.734221  1.411183
H    -2.884939  -4.890983  2.063678
H    -0.335568  -5.471379  3.715756
H    -1.141788  -6.676214  2.688708
H    -1.815650  -6.885489  4.968721
H    -3.131457  -6.462851  4.053876
H    -2.403480  -5.337536  5.038600
N    -3.935604  -0.435113  3.947643
C    -5.100651  -0.618837  3.082001
H    -4.117216  -0.247043  4.933790
H    -5.912627  0.019528  3.445894
H    -5.449243  -1.660244  3.092001
H    -4.882587  -0.320066  2.051534
Pb    2.586740  2.400198  1.674182
