35
Energy: -608357.363947 eV PBE+vdW (tier 2 basis)
C    -0.471964  0.508890  -0.049752
C    -0.193812  0.156933  1.366324
O    1.028010  0.184412  1.769715
H    -0.229516  -0.336530  -0.713079
H    0.223722  1.315537  -0.324049
H    -1.496512  0.837669  -0.227401
N    -1.143201  -0.128960  2.287529
C    -2.201955  -1.159840  2.205539
C    -1.457584  -2.497796  2.475621
O    -0.227086  -2.618261  2.115337
H    -0.765452  -0.057864  3.235255
H    -2.870554  -0.950475  3.052278
C    -3.046086  -1.123208  0.905035
C    -4.401948  -1.854399  0.964218
C    -5.270878  -1.529095  -0.272101
C    -6.635346  -2.217985  -0.200013
N    -7.514548  -1.868939  -1.393319
H    -2.457745  -1.502639  0.057991
H    -3.242779  -0.058334  0.715933
H    -4.947773  -1.550501  1.870870
H    -4.252964  -2.942510  1.024058
H    -4.744774  -1.841151  -1.188379
H    -5.412996  -0.438295  -0.336301
H    -7.204092  -1.915776  0.688410
H    -6.549913  -3.311821  -0.200253
H    -7.701365  -0.856624  -1.452745
H    -8.429747  -2.341505  -1.330083
H    -7.087519  -2.155673  -2.286839
N    -2.039444  -3.513689  3.085226
C    -3.357858  -3.632143  3.715578
H    -1.441327  -4.339554  3.172635
H    -3.989666  -4.320254  3.141047
H    -3.848201  -2.659858  3.796947
H    -3.221007  -4.044818  4.722336
Pb    1.927903  -1.807380  2.295222
