35
Energy: -608356.084323 eV PBE+vdW (tier 2 basis)
C    0.302661  -0.712284  0.249837
C    -0.036128  -0.765375  1.709522
O    0.640694  -1.353998  2.553625
H    1.240902  -0.154721  0.121942
H    -0.476788  -0.248369  -0.364135
H    0.491149  -1.733286  -0.106192
N    -1.191779  -0.106547  2.116294
C    -1.459574  -0.047770  3.546855
C    -2.944480  -0.319397  3.753600
O    -3.753254  0.628939  4.178403
H    -1.639662  0.541985  1.474447
H    -0.924365  -0.941131  3.925369
C    -0.860820  1.172820  4.274471
C    -0.429830  0.914570  5.742491
C    1.095226  0.890987  6.001350
C    1.807511  -0.373458  5.521932
N    3.292440  -0.321325  5.861570
H    -1.548506  2.028010  4.219058
H    0.009652  1.476939  3.678047
H    -0.879431  -0.017727  6.122396
H    -0.831732  1.710859  6.381486
H    1.248463  0.997167  7.086642
H    1.549313  1.780200  5.534686
H    1.744651  -0.531286  4.437397
H    1.422028  -1.272449  6.019936
H    3.779831  -1.174557  5.549395
H    3.450329  -0.233722  6.876935
H    3.761310  0.479090  5.412273
N    -3.457139  -1.501972  3.493210
C    -2.767558  -2.699525  2.994669
H    -4.468771  -1.592354  3.597386
H    -3.321870  -3.577277  3.341461
H    -1.740673  -2.746145  3.368417
H    -2.755841  -2.689302  1.896374
Pb    -5.276356  2.006249  4.766387
