35
Energy: -608356.801144 eV PBE+vdW (tier 2 basis)
C    0.206933  -0.441166  -0.296682
C    0.084229  -0.397701  1.182870
O    1.176588  -0.492501  1.916997
H    -0.755443  -0.494212  -0.811441
H    0.802137  -1.318369  -0.587027
H    0.744156  0.453392  -0.647989
N    -1.056243  -0.266834  1.824676
C    -2.429898  -0.132668  1.277511
C    -3.170254  0.866915  2.215826
O    -3.525711  0.452308  3.335513
H    -1.010719  -0.289467  2.849316
H    -2.355051  0.257937  0.257662
C    -3.173003  -1.480053  1.311966
C    -4.628659  -1.357341  0.798840
C    -5.653877  -2.258729  1.522168
C    -6.465661  -1.611643  2.641326
N    -5.666344  -1.293487  3.897007
H    -3.145592  -1.844913  2.348361
H    -2.617800  -2.212267  0.709377
H    -4.640223  -1.600432  -0.270921
H    -4.974913  -0.312490  0.857617
H    -5.182822  -3.190201  1.874852
H    -6.406952  -2.586779  0.791480
H    -7.279082  -2.275044  2.958937
H    -6.912702  -0.662465  2.319089
H    -4.865877  -0.636864  3.712438
H    -6.271118  -0.855975  4.605909
H    -5.288582  -2.151485  4.319254
N    -3.390211  2.112539  1.788031
C    -3.045487  2.723298  0.499056
H    -3.892356  2.697449  2.456776
H    -3.314325  3.782442  0.546285
H    -3.608757  2.270996  -0.327375
H    -1.968200  2.665185  0.299973
Pb    3.243146  -0.671000  2.440304
