35
Energy: -608356.558125 eV PBE+vdW (tier 2 basis)
C    0.081780  -0.777302  0.200395
C    0.020474  -0.241150  1.594609
O    1.062678  0.054481  2.241434
H    0.565696  -1.765312  0.216222
H    0.716748  -0.122401  -0.410461
H    -0.897609  -0.886162  -0.277154
N    -1.208398  -0.066822  2.142918
C    -1.555786  0.244300  3.538411
C    -1.053246  1.607045  4.025280
O    -1.869348  2.319673  4.774547
H    -1.999400  -0.289320  1.543852
H    -2.645053  0.377956  3.516843
C    -1.313837  -0.925903  4.562344
C    -0.054009  -1.800013  4.452606
C    1.233370  -1.287985  5.124304
C    2.468835  -2.111786  4.754571
N    3.085341  -1.657966  3.428669
H    -2.179983  -1.588646  4.432669
H    -1.409770  -0.513323  5.579365
H    0.117411  -2.056488  3.397191
H    -0.313151  -2.758339  4.926892
H    1.121744  -1.356504  6.215877
H    1.427768  -0.226081  4.912242
H    2.223698  -3.174713  4.641643
H    3.261515  -2.030365  5.505717
H    3.508907  -2.444195  2.917783
H    2.384978  -1.186453  2.812710
H    3.837933  -0.976224  3.590392
N    0.132039  2.045147  3.721034
C    0.707166  3.337446  4.092686
H    0.690578  1.347023  3.141389
H    0.070173  4.158753  3.737971
H    0.836527  3.407785  5.181058
H    1.685156  3.430333  3.612895
Pb    -3.200281  3.637483  5.789517
