35
Energy: -608356.927167 eV PBE+vdW (tier 2 basis)
C    -0.188367  -0.625355  -0.163059
C    -0.152887  -0.285766  1.282501
O    0.952736  -0.551374  1.962574
H    0.603430  -0.073229  -0.690350
H    -1.148955  -0.393547  -0.630481
H    0.017813  -1.697540  -0.293246
N    -1.135724  0.263295  1.940180
C    -2.460970  0.742725  1.499808
C    -2.731375  1.857690  2.555797
O    -2.294290  1.663810  3.695288
H    -1.049632  0.491868  2.957999
H    -2.395390  1.143282  0.479319
C    -3.481730  -0.424889  1.583654
C    -4.971217  -0.110103  1.315581
C    -5.773453  0.424852  2.527028
C    -7.183988  -0.138494  2.689691
N    -8.167725  0.326163  1.617071
H    -3.382503  -0.889412  2.576282
H    -3.154601  -1.179713  0.853846
H    -5.409619  -1.068256  0.994526
H    -5.067277  0.562974  0.449195
H    -5.804977  1.524329  2.540019
H    -5.262662  0.145591  3.461330
H    -7.624460  0.174665  3.643850
H    -7.197840  -1.235208  2.649459
H    -9.102146  -0.079954  1.778595
H    -7.877006  0.045676  0.670180
H    -8.279694  1.350224  1.620530
N    -3.428974  2.928861  2.154994
C    -3.722270  4.062876  3.037660
H    -3.621922  3.039110  1.163877
H    -3.665952  3.725691  4.076289
H    -4.726274  4.444106  2.822752
H    -2.995595  4.870926  2.884190
Pb    2.886165  -1.013101  2.682863
