35
Energy: -608357.442134 eV PBE+vdW (tier 2 basis)
C    0.089474  -1.934666  0.284966
C    0.288321  -0.829866  1.260548
O    1.448580  -0.632890  1.767963
H    -0.272501  -2.837427  0.807070
H    1.057172  -2.192139  -0.161000
H    -0.628282  -1.678801  -0.499668
N    -0.723135  -0.025884  1.656665
C    -2.057007  -0.512364  2.060884
C    -1.807512  -1.584159  3.163962
O    -0.695734  -1.601031  3.803988
H    -0.404589  0.793493  2.174496
H    -2.496921  0.342938  2.600139
C    -3.027976  -0.859019  0.895135
C    -4.491577  -0.457587  1.185285
C    -5.516149  -0.763072  0.066219
C    -5.511049  0.246184  -1.084775
N    -6.678615  0.005705  -2.033483
H    -2.960936  -1.925883  0.634560
H    -2.660636  -0.302152  0.022338
H    -4.531823  0.614676  1.434643
H    -4.860255  -0.969534  2.087740
H    -6.512761  -0.755008  0.533885
H    -5.362885  -1.782398  -0.322456
H    -4.607502  0.196161  -1.704397
H    -5.628260  1.276159  -0.724493
H    -6.648679  -0.933387  -2.458149
H    -6.680873  0.689168  -2.806440
H    -7.586274  0.092817  -1.550853
N    -2.754993  -2.442390  3.476270
C    -2.665547  -3.437277  4.557653
H    -3.624923  -2.404254  2.951582
H    -1.914089  -4.197941  4.313622
H    -3.641726  -3.917171  4.663155
H    -2.397682  -2.944340  5.498842
Pb    1.535563  -1.064342  3.993310
