35
Energy: -608355.984587 eV PBE+vdW (tier 2 basis)
C    0.225289  0.329338  -0.516267
C    0.114170  -0.379219  0.781418
O    0.796375  -1.499772  0.939563
H    -0.548462  1.083904  -0.661959
H    1.208643  0.821293  -0.585318
H    0.167330  -0.403373  -1.332379
N    -0.620904  -0.005514  1.809824
C    -1.408892  1.211820  2.190588
C    -2.929454  0.994058  2.452086
O    -3.425819  1.825734  3.224810
H    -0.559514  -0.661305  2.593316
H    -1.041297  1.377862  3.213966
C    -1.158485  2.534824  1.426246
C    -2.062898  2.949513  0.245173
C    -3.452573  3.569267  0.534104
C    -3.478033  4.774017  1.495007
N    -4.227321  4.455495  2.776578
H    -0.105536  2.556072  1.113742
H    -1.206451  3.309802  2.204085
H    -2.236284  2.108764  -0.444822
H    -1.488790  3.685160  -0.336791
H    -4.158880  2.803876  0.884095
H    -3.853517  3.897011  -0.433427
H    -3.977246  5.640742  1.049264
H    -2.475517  5.099187  1.798031
H    -3.921858  3.526157  3.152525
H    -5.240977  4.400196  2.608626
H    -4.083018  5.179693  3.493305
N    -3.655104  0.015171  1.892405
C    -3.321267  -0.961600  0.856262
H    -4.616120  -0.001144  2.234864
H    -4.260381  -1.365253  0.465128
H    -2.740827  -1.805385  1.252709
H    -2.796339  -0.492047  0.016273
Pb    2.276426  -3.031457  0.692497
