35
Energy: -608356.970915 eV PBE+vdW (tier 2 basis)
C    -0.782488  0.735900  0.076567
C    -0.485598  0.479104  1.509244
O    0.767214  0.627817  1.920838
H    -0.170983  0.071808  -0.551105
H    -0.506584  1.769554  -0.177891
H    -1.836996  0.581738  -0.167148
N    -1.361968  0.119874  2.400651
C    -2.823936  -0.064502  2.343727
C    -3.182949  0.193742  3.848370
O    -2.292414  -0.037423  4.677567
H    -1.110173  -0.013652  3.421752
H    -3.274442  0.683268  1.677228
C    -3.143786  -1.525274  1.910755
C    -4.614929  -1.989802  1.957847
C    -5.521427  -1.454180  0.836044
C    -6.979296  -1.917483  0.887332
N    -7.169527  -3.388536  0.525968
H    -2.562245  -2.184064  2.571291
H    -2.743011  -1.670723  0.895333
H    -5.052514  -1.758259  2.940738
H    -4.568569  -3.089675  1.909852
H    -5.094465  -1.686529  -0.153825
H    -5.578665  -0.354761  0.871839
H    -7.594224  -1.361011  0.170157
H    -7.421433  -1.796923  1.884593
H    -8.169474  -3.641862  0.546517
H    -6.686124  -4.021855  1.178189
H    -6.825967  -3.595878  -0.423449
N    -4.416325  0.619827  4.135261
C    -4.869289  0.906384  5.502142
H    -5.024743  0.893625  3.370110
H    -5.899471  0.556215  5.625322
H    -4.828517  1.984614  5.701997
H    -4.216117  0.383799  6.205635
Pb    2.779013  1.034660  2.406011
