35
Energy: -608355.630806 eV PBE+vdW (tier 2 basis)
C    -0.001978  -2.332090  1.531482
C    -0.167728  -0.841833  1.542941
O    0.758500  -0.069347  1.292279
H    0.631417  -2.598712  2.391891
H    0.545658  -2.645563  0.635147
H    -0.939814  -2.893047  1.612727
N    -1.387969  -0.292546  1.934432
C    -2.720707  -0.716450  1.505227
C    -3.330695  -1.770342  2.455178
O    -3.968827  -2.809310  1.965449
H    -1.299016  0.715943  2.047434
H    -3.359832  0.167117  1.681643
C    -2.842206  -1.076587  -0.005211
C    -1.841607  -0.371839  -0.945290
C    -1.814198  1.169839  -0.977141
C    -0.577971  1.728662  -1.694614
N    0.626664  1.889204  -0.772259
H    -3.872746  -0.859160  -0.322380
H    -2.685889  -2.155942  -0.141345
H    -2.074263  -0.725897  -1.960385
H    -0.834565  -0.763584  -0.747309
H    -1.881658  1.621920  0.025485
H    -2.696859  1.543201  -1.514956
H    -0.259786  1.073504  -2.514791
H    -0.770675  2.720571  -2.117669
H    0.720409  1.124176  -0.056603
H    0.570037  2.772789  -0.248329
H    1.502190  1.928995  -1.312894
N    -3.260302  -1.652423  3.760004
C    -2.713065  -0.554103  4.574929
H    -3.669074  -2.421403  4.294045
H    -3.143477  -0.646637  5.576982
H    -2.995970  0.416989  4.156231
H    -1.621359  -0.633191  4.639458
Pb    -5.275008  -4.396158  1.353792
