35
Energy: -608357.064799 eV PBE+vdW (tier 2 basis)
C    -0.023239  -1.593490  2.201393
C    0.046867  -0.118548  2.034427
O    1.217769  0.474262  2.234535
H    0.661470  -2.077712  1.489440
H    -1.029675  -1.990784  2.045834
H    0.313121  -1.866163  3.211983
N    -0.955231  0.643462  1.704732
C    -2.306979  0.305082  1.227715
C    -2.610490  1.557532  0.335643
O    -1.909998  2.565062  0.523700
H    -0.843071  1.681606  1.500886
H    -2.258004  -0.604840  0.614255
C    -3.360649  0.108390  2.351102
C    -3.691412  1.364019  3.174119
C    -4.726822  1.158022  4.303701
C    -6.169749  1.035796  3.812999
N    -7.148671  1.009739  4.981092
H    -3.011553  -0.699908  3.012634
H    -4.259033  -0.283797  1.850653
H    -4.032595  2.174915  2.512405
H    -2.774893  1.740530  3.650228
H    -4.655558  2.028512  4.974285
H    -4.459042  0.274640  4.905592
H    -6.359515  0.115938  3.246705
H    -6.465927  1.893046  3.195201
H    -8.123972  0.932595  4.654956
H    -7.084467  1.868218  5.548733
H    -6.973983  0.213610  5.612072
N    -3.614001  1.461890  -0.537815
C    -3.998564  2.543283  -1.451639
H    -4.065149  0.560159  -0.665617
H    -5.090006  2.633850  -1.471207
H    -3.639155  2.329799  -2.466243
H    -3.554414  3.477763  -1.099773
Pb    3.244327  1.059369  2.312825
