35
Energy: -608356.866245 eV PBE+vdW (tier 2 basis)
C    -1.402573  -1.186935  -0.213307
C    -0.646709  -0.485157  0.856781
O    0.671029  -0.642027  0.892727
H    -1.206745  -2.267306  -0.153746
H    -1.050547  -0.846298  -1.198234
H    -2.481363  -1.022150  -0.150283
N    -1.179205  0.275043  1.769249
C    -2.552338  0.796355  1.899616
C    -2.276316  2.134916  2.656017
O    -1.191998  2.218041  3.258540
H    -0.602092  0.828915  2.468048
H    -2.962820  0.979751  0.898857
C    -3.514021  -0.137670  2.681981
C    -3.205049  -0.341618  4.176225
C    -4.108259  -1.405189  4.841257
C    -5.499541  -0.963517  5.302830
N    -5.488506  -0.373787  6.711787
H    -3.522431  -1.113933  2.172818
H    -4.524398  0.275696  2.544317
H    -3.263095  0.620701  4.711073
H    -2.163370  -0.671629  4.295473
H    -3.577193  -1.860810  5.691860
H    -4.265887  -2.238821  4.141197
H    -6.190218  -1.813086  5.355306
H    -5.951914  -0.199800  4.658170
H    -6.432620  -0.073896  6.999002
H    -4.868075  0.443467  6.793974
H    -5.170741  -1.070196  7.402610
N    -3.197483  3.102705  2.651324
C    -4.468299  3.177485  1.932077
H    -2.919278  3.929474  3.180824
H    -4.580180  4.182576  1.510514
H    -5.317960  2.988253  2.601627
H    -4.498932  2.464709  1.102214
Pb    2.724840  -0.862896  0.453220
