35
Energy: -608356.604530 eV PBE+vdW (tier 2 basis)
C    0.374107  0.723435  2.443995
C    -0.030108  -0.619321  1.948664
O    0.837519  -1.603910  1.939019
H    1.088065  0.617855  3.269396
H    -0.471322  1.327653  2.788453
H    0.878687  1.274355  1.632599
N    -1.241769  -0.880185  1.492447
C    -2.358286  0.078513  1.354300
C    -3.134581  0.345909  2.688608
O    -3.384755  1.526146  2.926266
H    -1.408897  -1.843465  1.192897
H    -1.912065  1.051008  1.120886
C    -3.284856  -0.324607  0.180906
C    -4.124704  0.826060  -0.419943
C    -5.419862  1.221637  0.319409
C    -6.177384  2.269395  -0.496581
N    -7.467519  2.705202  0.184823
H    -3.935266  -1.163935  0.468866
H    -2.636300  -0.694126  -0.627492
H    -4.390226  0.506321  -1.438431
H    -3.484550  1.713521  -0.542821
H    -5.187311  1.625688  1.315579
H    -6.052955  0.329956  0.456542
H    -6.471559  1.894122  -1.484925
H    -5.589345  3.185105  -0.637249
H    -7.289926  3.116071  1.112948
H    -8.117459  1.916339  0.315097
H    -7.961411  3.416757  -0.374865
N    -3.528225  -0.671122  3.481828
C    -3.373201  -2.113443  3.319196
H    -4.011209  -0.353480  4.321171
H    -2.382541  -2.465611  3.640780
H    -3.570610  -2.434465  2.288862
H    -4.118040  -2.609536  3.949815
Pb    2.762906  -2.549230  2.104713
