35
Energy: -608356.641282 eV PBE+vdW (tier 2 basis)
C    1.114910  1.176430  0.248593
C    0.708258  1.049366  1.670437
O    1.642722  0.969626  2.551684
H    1.843286  0.387340  0.014045
H    1.644365  2.131812  0.114538
H    0.276094  1.123507  -0.452317
N    -0.590772  1.036771  1.988580
C    -1.314278  0.765315  3.259125
C    -0.778684  1.530708  4.476006
O    -1.720115  2.074439  5.239713
H    -1.212970  1.151580  1.190761
H    -2.309630  1.196636  3.091373
C    -1.549817  -0.758396  3.493878
C    -0.311831  -1.652325  3.678177
C    -0.551229  -3.159164  3.421257
C    -1.419224  -3.870470  4.458607
N    -1.484259  -5.366633  4.174542
H    -2.124290  -1.098453  2.617863
H    -2.236271  -0.840531  4.350708
H    0.128253  -1.509214  4.676658
H    0.469451  -1.361616  2.963621
H    0.437330  -3.643669  3.393814
H    -0.991456  -3.289030  2.419212
H    -2.459620  -3.522887  4.463852
H    -1.013120  -3.775425  5.473676
H    -0.548059  -5.798972  4.196241
H    -1.887685  -5.564055  3.246321
H    -2.063931  -5.860929  4.869738
N    0.485924  1.623574  4.715808
C    0.964777  2.389723  5.832213
H    1.277682  1.149218  3.533877
H    0.625157  1.970149  6.808663
H    0.681888  3.470223  5.741787
H    2.061893  2.392552  5.876213
Pb    -1.710451  3.440013  6.909036
