35
Energy: -608356.074274 eV PBE+vdW (tier 2 basis)
C    0.092578  0.991193  0.193653
C    -0.031020  0.373975  1.562309
O    0.894648  0.327548  2.361113
H    0.760461  1.857204  0.250320
H    -0.868118  1.292602  -0.240883
H    0.566412  0.257760  -0.476406
N    -1.301353  -0.142653  1.857875
C    -1.624363  -1.089632  2.920959
C    -3.119166  -1.029454  3.277861
O    -3.723024  -2.178801  3.473162
H    -1.901994  -0.204662  1.038184
H    -1.501230  -2.120163  2.542101
C    -0.738786  -1.028616  4.205907
C    -0.659342  0.300082  4.975403
C    0.505970  0.360867  5.992047
C    1.863198  0.652130  5.348344
N    2.945565  0.826574  6.407624
H    0.256950  -1.343104  3.873269
H    -1.105533  -1.823282  4.875152
H    -1.589167  0.463574  5.538955
H    -0.555864  1.142896  4.280199
H    0.552264  -0.577008  6.569059
H    0.275679  1.159612  6.713908
H    2.213737  -0.145364  4.684041
H    1.852411  1.584478  4.771559
H    3.064884  -0.020037  6.982893
H    2.730203  1.603512  7.050240
H    3.859114  1.033220  5.976411
N    -3.843645  0.055977  3.415004
C    -3.488300  1.479110  3.320764
H    -4.825098  -0.117307  3.647601
H    -4.197382  1.964799  2.638983
H    -2.471405  1.596705  2.950277
H    -3.591265  1.932298  4.315049
Pb    -4.631470  -4.127975  3.477995
