35
Energy: -608356.725655 eV PBE+vdW (tier 2 basis)
C    -0.551834  1.690231  -0.103095
C    -0.370405  0.885183  1.131924
O    0.782390  0.292897  1.357708
H    0.346656  2.293268  -0.287175
H    -1.416794  2.358106  -0.058332
H    -0.679395  1.014058  -0.964426
N    -1.317490  0.719139  2.034403
C    -2.719046  1.192941  1.978998
C    -2.975868  2.666654  2.422635
O    -3.840190  3.269362  1.767378
H    -1.064051  0.150175  2.846154
H    -3.011424  1.192309  0.923952
C    -3.623330  0.209791  2.766282
C    -5.080853  0.672101  2.931170
C    -5.933234  0.693165  1.642948
C    -7.115732  1.658365  1.716289
N    -6.689196  3.086149  1.383243
H    -3.199673  0.060858  3.772091
H    -3.588594  -0.765829  2.258229
H    -5.089887  1.656282  3.424333
H    -5.554873  -0.008086  3.651822
H    -5.333833  0.932675  0.750453
H    -6.340589  -0.309791  1.457600
H    -7.559343  1.684962  2.718992
H    -7.907335  1.398401  1.005232
H    -7.323452  3.780377  1.800104
H    -6.703407  3.241421  0.366794
H    -5.712131  3.282012  1.695170
N    -2.350523  3.213897  3.473880
C    -1.413945  2.623210  4.428699
H    -2.625402  4.181212  3.644745
H    -0.388649  2.591126  4.035688
H    -1.735193  1.624538  4.748204
H    -1.404075  3.251773  5.324782
Pb    2.752149  -0.485678  1.003761
