35
Energy: -608357.869380 eV PBE+vdW (tier 2 basis)
C    0.269754  -0.927601  0.047068
C    -0.178803  -0.560620  1.415888
O    0.617457  0.054560  2.202958
H    -0.491541  -1.460748  -0.531949
H    1.177558  -1.544205  0.113532
H    0.555415  -0.010277  -0.489429
N    -1.424822  -0.870233  1.814687
C    -1.972848  -0.439807  3.103690
C    -1.225875  -1.137149  4.273405
O    -0.492284  -0.377403  5.013150
H    -2.030916  -1.329350  1.138544
H    -1.654412  0.605266  3.229589
C    -3.522908  -0.338163  3.144880
C    -4.414551  -1.572287  2.918830
C    -5.897938  -1.241821  2.616225
C    -6.698515  -0.726677  3.814400
N    -8.176938  -0.595229  3.470422
H    -3.764990  0.423402  2.386003
H    -3.755523  0.128118  4.113903
H    -4.367090  -2.250754  3.782033
H    -4.063238  -2.153670  2.052979
H    -6.364502  -2.169777  2.250793
H    -5.953438  -0.517108  1.788184
H    -6.382473  0.268053  4.151428
H    -6.650859  -1.414565  4.668276
H    -8.337306  0.062107  2.692126
H    -8.720659  -0.249943  4.276502
H    -8.587803  -1.500166  3.193686
N    -1.250823  -2.427299  4.541781
C    -1.878326  -3.555283  3.851671
H    -0.687642  -2.680409  5.358779
H    -1.123448  -4.340838  3.724538
H    -2.247912  -3.261344  2.868998
H    -2.698368  -3.961068  4.456694
Pb    1.245281  0.839791  4.226197
