35
Energy: -608358.161120 eV PBE+vdW (tier 2 basis)
C    -0.110095  0.696823  0.022622
C    -0.411372  0.170719  1.383221
O    0.287192  -0.799490  1.842429
H    -0.763367  1.518856  -0.287974
H    -0.200402  -0.129111  -0.699074
H    0.937045  1.029480  -0.017125
N    -1.415684  0.721538  2.075348
C    -2.033367  0.338968  3.369623
C    -1.051578  0.518303  4.546685
O    -0.090402  -0.300763  4.764059
H    -1.880061  1.492729  1.599358
H    -2.820624  1.093526  3.506093
C    -2.738880  -1.039609  3.333796
C    -3.669407  -1.249947  4.544378
C    -4.514150  -2.546904  4.538705
C    -5.753822  -2.485016  3.642776
N    -6.650008  -3.699597  3.851668
H    -1.997813  -1.849992  3.275118
H    -3.302967  -1.067478  2.390129
H    -4.344155  -0.384491  4.647445
H    -3.068596  -1.269756  5.465403
H    -4.838846  -2.722193  5.575968
H    -3.887457  -3.408553  4.259133
H    -5.516891  -2.469603  2.572021
H    -6.379400  -1.612998  3.872141
H    -6.979690  -3.767131  4.826855
H    -6.166564  -4.583214  3.631875
H    -7.488390  -3.654525  3.251884
N    -1.256579  1.534509  5.361378
C    -0.447668  1.875070  6.538135
H    -2.033477  2.160093  5.153274
H    -1.118785  2.195582  7.342267
H    0.231924  2.702346  6.293155
H    0.126199  1.002293  6.857045
Pb    1.402134  -1.523463  3.615189
