35
Energy: -608356.108461 eV PBE+vdW (tier 2 basis)
C    -1.218657  -0.596283  -0.759571
C    -0.819625  -0.555335  0.690210
O    0.347885  -0.614764  1.070285
H    -2.205323  -0.159636  -0.954984
H    -1.235029  -1.646368  -1.088178
H    -0.459231  -0.079427  -1.355604
N    -1.864848  -0.445403  1.597189
C    -1.830603  -0.675416  3.036467
C    -1.978636  0.617616  3.861362
O    -2.765732  0.556825  4.914670
H    -2.794637  -0.451745  1.186548
H    -2.773751  -1.197650  3.255298
C    -0.727505  -1.640120  3.588855
C    0.681763  -1.118226  3.934525
C    1.715032  -2.258728  3.820797
C    3.134096  -1.784204  4.125607
N    4.149882  -2.904103  3.936865
H    -0.661820  -2.430882  2.828372
H    -1.156287  -2.124246  4.478253
H    0.693774  -0.699328  4.952679
H    0.978817  -0.326775  3.238681
H    1.675114  -2.650704  2.791785
H    1.443412  -3.084822  4.497845
H    3.251952  -1.441902  5.161253
H    3.450944  -0.976877  3.453487
H    5.107639  -2.580393  4.140351
H    4.148188  -3.260907  2.969693
H    3.960149  -3.704060  4.558497
N    -1.411015  1.767843  3.597501
C    -0.490079  2.155628  2.519960
H    -1.666230  2.527075  4.232908
H    0.197127  2.904114  2.928637
H    -1.061747  2.610995  1.700129
H    0.072946  1.295808  2.149397
Pb    -4.363362  0.546159  6.349941
