35
Energy: -608356.771982 eV PBE+vdW (tier 2 basis)
C    -1.090378  0.449017  -0.232893
C    -0.503991  0.216929  1.114903
O    0.684187  0.747845  1.356770
H    -2.038525  -0.066435  -0.385075
H    -0.391426  0.125225  -1.011820
H    -1.265586  1.532243  -0.340196
N    -1.175733  -0.193447  2.196772
C    -2.070745  -1.356608  2.178636
C    -1.237101  -2.460417  1.421603
O    -0.332303  -2.084989  0.662055
H    -0.646647  -0.089831  3.063245
H    -2.195104  -1.635118  3.234363
C    -3.477868  -1.111964  1.563573
C    -4.605393  -1.962250  2.183874
C    -5.959449  -1.650653  1.515776
C    -7.139452  -2.547526  1.888236
N    -7.760361  -2.224812  3.245938
H    -3.455684  -1.298838  0.480906
H    -3.714547  -0.047165  1.702569
H    -4.644209  -1.773684  3.269846
H    -4.388567  -3.033936  2.051079
H    -5.852460  -1.768096  0.426359
H    -6.232053  -0.592517  1.662558
H    -6.868604  -3.610353  1.924503
H    -7.955893  -2.429853  1.166004
H    -8.569312  -2.837557  3.431860
H    -8.103893  -1.253646  3.282184
H    -7.100674  -2.351465  4.025329
N    -1.578023  -3.732746  1.627285
C    -0.909223  -4.863184  0.970088
H    -2.251067  -3.945629  2.355871
H    -0.021000  -5.171637  1.536217
H    -0.609803  -4.568157  -0.039470
H    -1.608748  -5.702418  0.912916
Pb    2.649905  1.345407  0.855507
