35
Energy: -608358.055910 eV PBE+vdW (tier 2 basis)
C    -0.770782  1.045688  0.201308
C    -0.761568  0.461252  1.572004
O    0.112528  -0.426755  1.863190
H    0.198929  1.525548  0.004137
H    -1.572193  1.773389  0.036136
H    -0.864812  0.228776  -0.529568
N    -1.682905  0.876739  2.451439
C    -1.984936  0.413513  3.828703
C    -0.831599  0.719278  4.806198
O    0.263621  0.053995  4.802312
H    -2.303067  1.602504  2.098553
H    -2.825419  1.052097  4.134515
C    -2.470061  -1.054750  3.917602
C    -3.818480  -1.298018  3.208199
C    -4.280056  -2.775754  3.238468
C    -5.126841  -3.229974  4.433269
N    -6.624826  -3.039724  4.204426
H    -2.542779  -1.305843  4.987400
H    -1.710716  -1.726897  3.492673
H    -3.729640  -0.996780  2.155129
H    -4.588138  -0.638254  3.643004
H    -3.400086  -3.434589  3.212014
H    -4.817704  -3.010114  2.306783
H    -4.891877  -2.695234  5.362071
H    -5.004116  -4.302883  4.620971
H    -6.952859  -3.593682  3.398429
H    -6.881866  -2.058753  4.026120
H    -7.168555  -3.352829  5.023773
N    -1.024236  1.671513  5.697611
C    -0.069470  2.090813  6.731774
H    -1.905945  2.180809  5.666382
H    -0.624692  2.306129  7.650974
H    0.450206  3.002586  6.408294
H    0.653877  1.292544  6.911723
Pb    1.626062  -1.017336  3.383985
