35
Energy: -608356.852102 eV PBE+vdW (tier 2 basis)
C    -0.477663  0.687550  -0.189389
C    -0.362680  0.742203  1.288326
O    0.738414  1.178929  1.789016
H    -0.421174  1.710324  -0.591075
H    -1.397007  0.207632  -0.538907
H    0.395502  0.154149  -0.592287
N    -1.387670  0.355659  2.057606
C    -1.432778  0.107557  3.520893
C    -1.063578  1.345993  4.354801
O    -1.898004  1.656555  5.335765
H    -2.232548  0.101393  1.551794
H    -2.488514  -0.099583  3.736472
C    -0.574757  -1.110908  3.957371
C    -0.979755  -2.458670  3.328597
C    -0.036301  -3.587347  3.793267
C    -0.161381  -4.935483  3.082985
N    -1.343642  -5.781797  3.550419
H    -0.651431  -1.176365  5.053940
H    0.483008  -0.901852  3.737201
H    -0.933021  -2.385814  2.230751
H    -2.027709  -2.683016  3.588365
H    -0.104436  -3.730815  4.884222
H    1.004053  -3.275087  3.613450
H    0.723949  -5.553370  3.274228
H    -0.274827  -4.832035  1.996496
H    -1.356301  -6.690304  3.061316
H    -2.251436  -5.331292  3.372792
H    -1.286937  -5.984990  4.559259
N    0.028043  1.986203  4.094577
C    0.404590  3.135594  4.864550
H    0.613445  1.495315  2.799178
H    1.346904  3.571654  4.506555
H    0.590992  2.877833  5.936824
H    -0.344769  3.964373  4.773193
Pb    -1.935441  3.278003  6.770034
