35
Energy: -608356.701886 eV PBE+vdW (tier 2 basis)
C    1.368318  -2.228118  0.706341
C    0.579068  -2.138873  1.967199
O    0.931710  -2.857245  3.015484
H    1.344544  -3.260721  0.325469
H    2.416659  -1.955938  0.899551
H    0.981775  -1.570718  -0.079498
N    -0.466911  -1.354837  2.039578
C    -1.432068  -1.136156  3.125259
C    -2.756736  -0.795056  2.388166
O    -2.691048  -0.134394  1.332587
H    -0.749579  -0.837291  1.191899
H    -1.532873  -2.072358  3.689713
C    -1.021663  0.002706  4.114797
C    -0.294995  1.261168  3.595960
C    -0.915620  2.115171  2.474614
C    -2.318776  2.666504  2.757921
N    -3.102787  2.772520  1.463213
H    -0.367402  -0.448175  4.873871
H    -1.939283  0.272201  4.658742
H    0.714816  0.983305  3.258585
H    -0.127816  1.891857  4.481807
H    -0.951038  1.529755  1.545697
H    -0.232940  2.953801  2.279797
H    -2.297717  3.662981  3.213280
H    -2.916653  2.013991  3.404966
H    -2.622598  3.366790  0.772409
H    -3.205166  1.816198  1.065691
H    -4.039258  3.175305  1.608789
N    -3.882434  -1.216370  2.964966
C    -5.225737  -0.979206  2.426454
H    -3.817909  -1.755647  3.824226
H    -5.731230  -0.178545  2.982065
H    -5.816378  -1.896577  2.520636
H    -5.145374  -0.711656  1.369300
Pb    2.234540  -4.367175  3.823110
