35
Energy: -608356.784428 eV PBE+vdW (tier 2 basis)
C    1.010967  0.418315  0.505905
C    0.535788  -0.186144  1.772486
O    1.329375  -1.014274  2.424418
H    0.275567  1.087470  0.050497
H    1.241135  -0.384961  -0.210591
H    1.945457  0.967553  0.692086
N    -0.649229  0.031733  2.306133
C    -1.764200  0.949978  1.910235
C    -2.255312  0.731702  0.436893
O    -1.960498  1.559584  -0.442024
H    -0.814649  -0.469801  3.181453
H    -2.577983  0.650732  2.586324
C    -1.442515  2.431524  2.147006
C    -2.740362  3.273879  2.178586
C    -2.590245  4.729538  1.677171
C    -3.161833  5.013006  0.292271
N    -2.380204  4.354622  -0.836791
H    -0.902446  2.544872  3.096529
H    -0.766549  2.770451  1.349503
H    -3.115114  3.287459  3.209775
H    -3.531802  2.777185  1.594380
H    -1.543981  5.068602  1.739390
H    -3.141366  5.399401  2.351778
H    -4.193112  4.649295  0.200258
H    -3.162457  6.088434  0.077845
H    -2.853129  4.502673  -1.738926
H    -1.443141  4.769289  -0.921331
H    -2.263838  3.321760  -0.698079
N    -2.992902  -0.361039  0.219591
C    -3.578708  -0.709650  -1.078676
H    -3.260300  -0.935123  1.014911
H    -4.612330  -0.344881  -1.143920
H    -3.581002  -1.798900  -1.188919
H    -2.983470  -0.256406  -1.875731
Pb    2.989465  -2.210668  3.047419
