35
Energy: -608357.833394 eV PBE+vdW (tier 2 basis)
C    -0.056358  -1.086658  0.415067
C    -0.104018  -0.532232  1.793657
O    0.936908  0.008641  2.298932
H    -0.996369  -1.551830  0.100232
H    0.758032  -1.821603  0.344179
H    0.196275  -0.274713  -0.283730
N    -1.247396  -0.593101  2.499744
C    -1.385837  0.032941  3.817150
C    -0.470303  -0.675550  4.852597
O    0.505797  0.024735  5.321559
H    -2.058289  -1.007042  2.046331
H    -0.902290  1.016748  3.728302
C    -2.836944  0.399215  4.233401
C    -3.897605  -0.683566  4.493381
C    -5.248719  -0.136359  5.020793
C    -6.126747  0.560174  3.979211
N    -7.487045  0.916846  4.565829
H    -3.179496  1.097312  3.453377
H    -2.724661  1.009276  5.143158
H    -3.540656  -1.370875  5.269480
H    -4.083169  -1.296085  3.596088
H    -5.059975  0.543255  5.867239
H    -5.802548  -0.995590  5.429426
H    -6.334158  -0.085465  3.116282
H    -5.704376  1.504291  3.614378
H    -8.089234  1.379778  3.867597
H    -7.405882  1.557819  5.369644
H    -7.992977  0.080043  4.894580
N    -0.584776  -1.927151  5.249913
C    -1.483650  -3.006911  4.836845
H    0.122068  -2.196712  5.940455
H    -2.086498  -2.713917  3.977058
H    -2.134801  -3.293428  5.671913
H    -0.872848  -3.876297  4.563307
Pb    2.141850  0.872155  4.011680
