35
Energy: -608356.623251 eV PBE+vdW (tier 2 basis)
C    -0.038353  0.242194  -0.005570
C    -0.181827  0.052320  1.475681
O    0.775600  -0.127407  2.240557
H    0.690622  -0.479079  -0.393706
H    0.369807  1.245407  -0.200048
H    -0.981166  0.147019  -0.555494
N    -1.467078  0.096550  1.981292
C    -1.684985  0.148106  3.422489
C    -2.904460  -0.705898  3.763527
O    -2.907358  -1.977942  3.450732
H    -2.195646  0.451669  1.365174
H    -0.817876  -0.386655  3.853297
C    -1.731912  1.582974  4.003700
C    -0.433592  2.388918  3.801215
C    0.721362  2.014991  4.751924
C    2.090938  2.516743  4.285066
N    2.794994  1.500641  3.391756
H    -1.943390  1.531011  5.084946
H    -2.555236  2.141403  3.527324
H    -0.681180  3.448236  3.955906
H    -0.124047  2.320512  2.748398
H    0.777369  0.928149  4.924314
H    0.530829  2.457512  5.739327
H    2.767611  2.705099  5.125532
H    2.010656  3.445255  3.706776
H    3.517870  1.947051  2.811451
H    2.126791  0.983689  2.772893
H    3.271063  0.788138  3.960618
N    -3.941634  -0.188536  4.373585
C    -5.163126  -0.885382  4.789220
H    -3.880936  0.808900  4.586420
H    -5.825543  -0.161083  5.271462
H    -4.923824  -1.675148  5.513720
H    -5.680379  -1.304735  3.916449
Pb    -3.085937  -4.068210  3.083678
