35
Energy: -608356.481172 eV PBE+vdW (tier 2 basis)
C    -0.900810  0.062585  -0.668457
C    -0.170686  0.177509  0.622813
O    1.127558  -0.002083  0.665581
H    -1.211959  -0.984722  -0.821120
H    -0.244124  0.341690  -1.499682
H    -1.800211  0.686925  -0.707571
N    -0.780929  0.443876  1.764820
C    -2.231168  0.638440  1.955111
C    -2.745466  2.072815  1.583044
O    -3.784520  2.099583  0.927718
H    -0.179117  0.515185  2.588280
H    -2.734207  -0.000891  1.222043
C    -2.673150  0.182797  3.366234
C    -4.211275  0.080842  3.540759
C    -4.904092  1.357627  4.051495
C    -6.431361  1.333163  4.027682
N    -7.051797  0.410969  5.075781
H    -2.245016  0.838073  4.140130
H    -2.243481  -0.816221  3.527354
H    -4.385357  -0.747528  4.244059
H    -4.665154  -0.227320  2.586100
H    -4.640726  2.214924  3.416515
H    -4.548036  1.614274  5.062733
H    -6.826457  0.999797  3.059671
H    -6.840525  2.327826  4.239753
H    -8.081357  0.460479  5.041078
H    -6.768370  0.676536  6.030273
H    -6.793234  -0.575346  4.936576
N    -2.102657  3.179917  2.008329
C    -0.909794  3.319029  2.837656
H    -2.537383  4.041523  1.680013
H    -0.895631  4.334843  3.245668
H    0.017573  3.183128  2.262765
H    -0.924385  2.636015  3.696271
Pb    3.073996  -0.540266  -0.083602
