35
Energy: -608356.363457 eV PBE+vdW (tier 2 basis)
C    -0.136246  -0.081516  -0.409566
C    -0.388117  -0.275705  1.055626
O    0.025377  -1.249909  1.700260
H    -0.642628  0.790409  -0.837534
H    -0.460338  -0.984246  -0.944239
H    0.944227  0.018803  -0.583152
N    -1.120907  0.707769  1.688201
C    -1.384330  0.647088  3.120750
C    -2.806160  1.121729  3.428996
O    -3.625481  0.269623  4.009497
H    -1.323052  1.546110  1.153426
H    -1.371789  -0.426059  3.357694
C    -0.337468  1.352432  4.038995
C    1.098158  0.824698  3.861818
C    1.406091  -0.525404  4.537014
C    2.694815  -1.181834  4.030429
N    2.442693  -2.081097  2.824601
H    -0.660334  1.231115  5.085609
H    -0.336051  2.432534  3.843516
H    1.770265  1.584171  4.286729
H    1.340366  0.797754  2.789338
H    0.573925  -1.238522  4.425560
H    1.522833  -0.368865  5.618232
H    3.161608  -1.813627  4.793580
H    3.434977  -0.434463  3.720019
H    3.288208  -2.185662  2.248497
H    1.653785  -1.731594  2.225408
H    2.174156  -3.026352  3.126981
N    -3.263083  2.326607  3.184364
C    -2.617959  3.492075  2.561862
H    -4.235309  2.490212  3.457154
H    -1.550875  3.326974  2.407904
H    -2.750846  4.355820  3.225603
H    -3.115127  3.705636  1.605824
Pb    -5.114935  -1.022481  4.845250
