35
Energy: -608356.769600 eV PBE+vdW (tier 2 basis)
C    -0.041896  0.109850  -0.080667
C    -0.198462  -0.238130  1.360624
O    0.830631  -0.693014  2.042593
H    0.727794  0.888222  -0.195387
H    -0.968301  0.480274  -0.532910
H    0.276772  -0.780034  -0.644920
N    -1.363866  -0.093719  1.950678
C    -1.788563  -0.358770  3.342161
C    -3.214742  -0.978451  3.224030
O    -4.136928  -0.227761  2.857022
H    -2.114072  0.283505  1.362971
H    -1.067219  -1.047829  3.799177
C    -1.899661  0.968856  4.121701
C    -2.505712  0.796491  5.534742
C    -3.418196  1.956601  5.992883
C    -4.921195  1.774015  5.793390
N    -5.379272  1.820055  4.342794
H    -2.515450  1.645397  3.512200
H    -0.906565  1.434224  4.183667
H    -1.686100  0.690818  6.256303
H    -3.070338  -0.147057  5.604289
H    -3.085493  2.914592  5.562144
H    -3.301454  2.083881  7.078618
H    -5.473993  2.566592  6.311859
H    -5.266932  0.809961  6.187966
H    -6.400077  1.698895  4.285646
H    -4.936556  1.067160  3.757935
H    -5.166222  2.731273  3.916377
N    -3.349231  -2.273824  3.509725
C    -4.622403  -3.000126  3.455835
H    -2.533067  -2.790411  3.824632
H    -4.466277  -3.964018  2.959222
H    -5.345151  -2.408434  2.888369
H    -5.002973  -3.180324  4.469402
Pb    2.930081  -1.191048  1.978122
