35
Energy: -608356.719272 eV PBE+vdW (tier 2 basis)
C    0.226875  1.283259  1.528675
C    0.164029  -0.174978  1.815580
O    1.228266  -0.789561  2.287176
H    -0.475953  1.594138  0.749169
H    1.238639  1.561781  1.213453
H    -0.006608  1.850662  2.444443
N    -0.919976  -0.904643  1.637028
C    -2.250672  -0.467509  1.148001
C    -3.361094  -1.003962  2.119078
O    -4.082635  -1.950698  1.779835
H    -0.822760  -1.902013  1.844397
H    -2.265223  0.626999  1.205397
C    -2.516880  -0.888735  -0.308588
C    -2.378263  -2.388037  -0.644807
C    -3.303532  -2.873142  -1.779475
C    -4.809584  -2.743253  -1.559136
N    -5.285268  -3.459804  -0.307914
H    -3.534589  -0.528338  -0.516729
H    -1.859911  -0.296012  -0.961296
H    -2.554158  -3.001841  0.250275
H    -1.346627  -2.602217  -0.958584
H    -3.059158  -3.922089  -2.005942
H    -3.086847  -2.320330  -2.706069
H    -5.141933  -1.703862  -1.447918
H    -5.356123  -3.175404  -2.405464
H    -6.310733  -3.422142  -0.229490
H    -5.020003  -4.453821  -0.316531
H    -4.878160  -3.006738  0.541753
N    -3.506476  -0.382629  3.300267
C    -2.824651  0.803212  3.814213
H    -4.263029  -0.762745  3.869519
H    -1.792728  0.580337  4.119881
H    -3.363928  1.147267  4.701694
H    -2.836359  1.627080  3.088514
Pb    3.257685  -1.082395  2.928841
