35
Energy: -608356.800703 eV PBE+vdW (tier 2 basis)
C    -0.092339  1.308186  1.348182
C    -0.109887  -0.034599  1.982834
O    0.970252  -0.500637  2.565783
H    0.570004  1.982269  1.903261
H    -1.087833  1.759948  1.288402
H    0.304470  1.219412  0.322619
N    -1.178438  -0.811330  1.978684
C    -2.482389  -0.568760  1.310427
C    -3.440424  0.392989  2.073076
O    -4.197197  1.087128  1.379392
H    -1.070857  -1.726006  2.426679
H    -2.273479  -0.061965  0.361281
C    -3.145078  -1.947663  1.062274
C    -4.610212  -1.977367  0.579578
C    -4.909918  -1.737658  -0.913345
C    -4.861522  -0.326127  -1.493795
N    -5.829381  0.621952  -0.812675
H    -3.117542  -2.497297  2.018683
H    -2.512629  -2.508282  0.356682
H    -5.236468  -1.343332  1.225436
H    -4.956176  -2.999239  0.788630
H    -5.909352  -2.153609  -1.117474
H    -4.229797  -2.345018  -1.530219
H    -5.131333  -0.352788  -2.556159
H    -3.878245  0.152189  -1.409433
H    -5.948662  1.488054  -1.354991
H    -5.441447  0.879897  0.123831
H    -6.762348  0.202302  -0.701303
N    -3.428416  0.401294  3.409454
C    -4.353042  1.206441  4.218918
H    -2.834949  -0.259353  3.901094
H    -3.865042  1.466042  5.163213
H    -5.272390  0.645578  4.431154
H    -4.605685  2.119407  3.672407
Pb    3.016660  -0.701003  3.200126
