35
Energy: -608357.432715 eV PBE+vdW (tier 2 basis)
C    -0.487876  0.014188  0.009542
C    -0.651917  -0.102311  1.479474
O    0.264895  -0.655120  2.181309
H    -0.240710  -0.989671  -0.373165
H    0.381190  0.642252  -0.237286
H    -1.378715  0.382428  -0.506338
N    -1.762821  0.344619  2.113160
C    -2.312277  1.692236  1.913223
C    -1.225616  2.685768  2.416887
O    -0.267375  2.258260  3.163948
H    -1.816381  0.034965  3.085901
H    -2.473253  1.858686  0.838522
C    -3.630993  1.862449  2.705187
C    -4.843494  1.010650  2.268329
C    -5.531933  1.457824  0.959710
C    -7.046710  1.246238  0.891023
N    -7.484504  -0.213138  0.798669
H    -3.912249  2.924559  2.681514
H    -3.414695  1.646621  3.763885
H    -5.561649  1.092418  3.099084
H    -4.557789  -0.051720  2.219629
H    -5.052186  1.014093  0.073030
H    -5.420056  2.547182  0.839598
H    -7.465769  1.731662  0.001501
H    -7.555582  1.654293  1.773695
H    -8.513155  -0.276442  0.738672
H    -7.199261  -0.765858  1.619039
H    -7.107376  -0.676330  -0.041032
N    -1.267322  3.964987  2.106800
C    -2.226746  4.699768  1.276252
H    -0.520831  4.527464  2.523714
H    -2.914873  5.271626  1.912668
H    -2.791482  4.020881  0.631728
H    -1.670469  5.401133  0.644183
Pb    1.245829  0.651189  3.766453
