35
Energy: -608357.396574 eV PBE+vdW (tier 2 basis)
C    -0.789207  -0.571724  -0.716854
C    -0.689662  -0.605833  0.763298
O    0.360035  -1.078310  1.322279
H    -0.537746  -1.578262  -1.088566
H    -0.023955  0.095135  -1.142382
H    -1.779240  -0.290278  -1.085653
N    -1.696522  -0.163788  1.556685
C    -2.331869  1.149762  1.379969
C    -1.222076  2.209651  1.649034
O    -0.130974  1.858961  2.238835
H    -1.558406  -0.405327  2.539993
H    -2.657365  1.249881  0.334304
C    -3.536573  1.336229  2.332212
C    -4.869259  0.639233  1.971511
C    -4.956692  -0.878691  2.235963
C    -6.352710  -1.413456  2.568507
N    -7.340331  -1.393473  1.404430
H    -3.741689  2.413207  2.389934
H    -3.227119  1.052795  3.352074
H    -5.128639  0.873240  0.926391
H    -5.627168  1.146190  2.589215
H    -4.366962  -1.129250  3.131903
H    -4.511105  -1.464309  1.417096
H    -6.828561  -0.835477  3.371116
H    -6.301875  -2.461221  2.887736
H    -8.250647  -1.781364  1.698711
H    -7.014721  -1.965117  0.611409
H    -7.522055  -0.442616  1.053924
N    -1.374098  3.466845  1.288558
C    -2.492051  4.120765  0.598763
H    -0.593978  4.078492  1.543447
H    -2.081227  4.794793  -0.161495
H    -3.078011  4.714215  1.313030
H    -3.137555  3.388429  0.106900
Pb    1.548557  0.362393  2.628492
