35
Energy: -608356.725985 eV PBE+vdW (tier 2 basis)
C    0.364912  -1.245171  1.137572
C    -0.412165  0.012686  1.267294
O    0.023875  1.055650  0.659473
H    0.349934  -1.566126  0.085135
H    -0.006813  -2.057494  1.769847
H    1.418297  -1.038581  1.375407
N    -1.537593  0.034667  1.993729
C    -2.354978  1.193534  2.432435
C    -2.882394  2.044213  1.263576
O    -4.163899  2.370023  1.314642
H    -1.841032  -0.868523  2.348198
H    -3.239746  0.750989  2.907263
C    -1.640824  2.118996  3.454602
C    -1.359929  1.565951  4.870069
C    -0.141215  0.628692  5.017001
C    0.591244  0.703331  6.358696
N    -0.211945  0.182460  7.547944
H    -2.297323  2.994024  3.573266
H    -0.710669  2.503489  3.009747
H    -2.271970  1.093125  5.268505
H    -1.188871  2.458627  5.492505
H    0.629651  0.909665  4.282325
H    -0.398816  -0.417867  4.790837
H    0.864663  1.735001  6.614380
H    1.508037  0.102184  6.340145
H    0.341219  0.254051  8.416286
H    -0.467485  -0.809470  7.436628
H    -1.079532  0.715127  7.701210
N    -2.066294  2.436151  0.341037
C    -2.521302  3.257806  -0.743940
H    -0.762717  1.780798  0.504457
H    -1.706723  3.489367  -1.443147
H    -2.889645  4.251497  -0.387245
H    -3.294747  2.738920  -1.365298
Pb    -5.453054  3.515681  0.004671
