35
Energy: -608356.859789 eV PBE+vdW (tier 2 basis)
C    -0.986530  -2.716165  3.046040
C    -0.421140  -1.384857  3.378800
O    0.536726  -1.292116  4.277440
H    -1.034562  -3.346472  3.941445
H    -0.324936  -3.201183  2.309467
H    -1.985886  -2.655079  2.604228
N    -0.827737  -0.266023  2.819289
C    -1.834431  -0.116833  1.749617
C    -1.394531  -0.943391  0.494616
O    -0.199277  -1.113227  0.263682
H    -0.328934  0.579918  3.100951
H    -2.780038  -0.521309  2.142862
C    -2.052049  1.377279  1.424695
C    -0.942291  2.115594  0.633318
C    -1.234367  2.265705  -0.875174
C    -0.196885  3.168349  -1.541968
N    -0.533910  3.451625  -3.000504
H    -2.239577  1.897719  2.375897
H    -3.006001  1.442691  0.883024
H    0.032065  1.618446  0.763447
H    -0.838222  3.120404  1.066077
H    -2.236969  2.706757  -0.999011
H    -1.245778  1.279840  -1.365549
H    0.805500  2.722514  -1.544015
H    -0.138082  4.150196  -1.055269
H    0.167803  4.072622  -3.431449
H    -1.449369  3.915726  -3.096988
H    -0.564643  2.589900  -3.564269
N    -2.417849  -1.382839  -0.261187
C    -2.238854  -2.132611  -1.506237
H    -3.369990  -1.211997  0.050148
H    -1.167835  -2.260092  -1.685036
H    -2.694119  -1.593504  -2.346006
H    -2.713115  -3.117936  -1.424395
Pb    1.890331  -1.976442  5.782356
