35
Energy: -608356.660188 eV PBE+vdW (tier 2 basis)
C    0.677871  -0.291665  0.172391
C    0.486728  -0.381322  1.659210
O    1.278224  -0.955284  2.414449
H    1.744818  -0.177477  -0.048843
H    0.115165  0.521184  -0.301294
H    0.347211  -1.237166  -0.285362
N    -0.662645  0.228240  2.146027
C    -1.261064  0.126734  3.475313
C    -1.061590  1.436520  4.259781
O    -1.891585  1.740555  5.223254
H    -1.274490  0.613685  1.430205
H    -2.349562  0.032606  3.329329
C    -0.794314  -1.063876  4.364402
C    -1.054698  -2.440550  3.726569
C    -0.330233  -3.611940  4.418881
C    1.198093  -3.605693  4.465877
N    1.850937  -3.598607  3.095060
H    -1.349941  -0.995836  5.311794
H    0.266420  -0.926615  4.600565
H    -0.795534  -2.421170  2.659570
H    -2.132020  -2.658193  3.756170
H    -0.672276  -4.547719  3.950148
H    -0.655054  -3.688160  5.467859
H    1.554285  -4.505597  4.980948
H    1.611508  -2.736272  4.990991
H    1.467629  -4.335388  2.487567
H    1.722354  -2.664988  2.634515
H    2.862780  -3.770678  3.173105
N    -0.051059  2.214071  3.978179
C    0.336072  3.460416  4.643836
H    0.508489  1.904419  3.178445
H    1.362857  3.701316  4.353282
H    0.297401  3.339621  5.732575
H    -0.317734  4.283596  4.323356
Pb    -3.326547  2.540568  6.594133
