35
Energy: -608356.654151 eV PBE+vdW (tier 2 basis)
C    -0.446896  0.257613  1.897593
C    -0.556027  -0.944532  2.764346
O    0.570230  -1.531354  3.133363
H    -1.415902  0.654317  1.595249
H    0.124096  0.018063  0.993488
H    0.094571  1.034479  2.461816
N    -1.649185  -1.356504  3.399448
C    -3.007674  -1.354542  2.841963
C    -2.859183  -2.081587  1.452515
O    -1.772102  -2.011434  0.869156
H    -1.476257  -2.099589  4.077244
H    -3.575598  -2.002921  3.518551
C    -3.727326  0.041863  2.804527
C    -4.232966  0.541377  1.438460
C    -4.861711  1.954343  1.456699
C    -6.269224  2.004531  2.052915
N    -6.895651  3.382122  1.872905
H    -3.038621  0.781816  3.235763
H    -4.561660  -0.023891  3.515646
H    -4.959041  -0.165199  1.010712
H    -3.403601  0.570507  0.716740
H    -4.908220  2.302821  0.413183
H    -4.202180  2.655447  1.993312
H    -6.292185  1.805937  3.131236
H    -6.949304  1.301717  1.554993
H    -7.849088  3.416983  2.264719
H    -6.966343  3.639876  0.876856
H    -6.346990  4.119170  2.340015
N    -3.924252  -2.742279  0.981290
C    -5.185727  -3.038360  1.663662
H    -3.762662  -3.201777  0.085940
H    -5.896417  -3.409874  0.919449
H    -5.622958  -2.141840  2.119390
H    -5.060598  -3.814894  2.430741
Pb    2.561391  -2.241068  3.012477
