35
Energy: -608356.143562 eV PBE+vdW (tier 2 basis)
C    0.641392  -0.460943  0.248749
C    0.389359  -0.347124  1.722803
O    1.289165  -0.227155  2.559933
H    1.149873  0.446244  -0.106379
H    -0.264299  -0.606932  -0.350348
H    1.331715  -1.296269  0.070437
N    -0.939112  -0.378853  2.126151
C    -1.287934  -0.107365  3.505661
C    -2.259641  -1.139635  4.067531
O    -3.014439  -1.859399  3.268313
H    -1.628465  -0.179251  1.406627
H    -0.338443  -0.246311  4.052619
C    -1.823343  1.352886  3.767210
C    -0.816294  2.348091  4.375316
C    0.439804  2.689322  3.530346
C    1.746536  2.330288  4.249741
N    2.864254  2.042022  3.267390
H    -2.699110  1.318382  4.431211
H    -2.202661  1.732987  2.806951
H    -0.510567  1.994438  5.371890
H    -1.381127  3.269714  4.568587
H    0.440906  3.760252  3.289730
H    0.399023  2.167548  2.565708
H    1.651165  1.412995  4.841631
H    2.088953  3.133429  4.912756
H    3.758667  1.873698  3.749525
H    3.015748  2.819803  2.610335
H    2.611220  1.181952  2.734824
N    -2.398010  -1.311709  5.361406
C    -1.672131  -0.653010  6.455549
H    -3.125544  -1.966077  5.655026
H    -2.196685  0.262694  6.759406
H    -0.649315  -0.415276  6.149785
H    -1.641509  -1.343547  7.304556
Pb    -4.067758  -3.330164  2.133592
