35
Energy: -608357.179873 eV PBE+vdW (tier 2 basis)
C    -0.272339  -0.176455  -0.021739
C    -0.354829  0.377052  1.355700
O    0.629032  1.076308  1.794953
H    0.371597  0.485853  -0.614585
H    -1.245731  -0.276305  -0.506961
H    0.222530  -1.161887  -0.006398
N    -1.423451  0.221019  2.172045
C    -2.088340  -1.053575  2.511403
C    -1.046783  -1.873530  3.332647
O    0.191938  -1.529968  3.322636
H    -1.374996  0.855225  2.971893
H    -2.894947  -0.769472  3.205429
C    -2.717192  -1.833585  1.330481
C    -3.788601  -1.037934  0.545795
C    -5.215123  -1.042822  1.147470
C    -6.164212  -2.142227  0.659104
N    -6.823205  -1.808338  -0.676895
H    -3.154762  -2.755167  1.738381
H    -1.926824  -2.174134  0.651039
H    -3.804826  -1.438999  -0.479499
H    -3.460513  0.005083  0.438353
H    -5.691456  -0.062702  0.991534
H    -5.172102  -1.145985  2.242297
H    -6.996167  -2.285935  1.358511
H    -5.666347  -3.109886  0.516600
H    -7.454619  -2.567753  -0.976651
H    -6.141635  -1.666104  -1.435787
H    -7.394362  -0.951896  -0.611335
N    -1.409372  -2.913988  4.057261
C    -2.741353  -3.471289  4.311153
H    -0.634650  -3.389746  4.526239
H    -2.780176  -3.795895  5.356913
H    -2.921572  -4.343590  3.669427
H    -3.518512  -2.717350  4.156259
Pb    1.863298  0.054643  3.381411
