35
Energy: -608356.396068 eV PBE+vdW (tier 2 basis)
C    -0.169876  0.112177  0.199121
C    -0.378583  -0.794749  1.364081
O    0.507506  -1.715864  1.645185
H    -0.980179  0.838284  0.071959
H    -0.097243  -0.480990  -0.725118
H    0.771255  0.669128  0.322555
N    -1.458663  -0.669784  2.113687
C    -1.898051  -1.459586  3.273928
C    -3.350706  -2.028254  3.017216
O    -4.243687  -1.728590  3.803254
H    -2.079962  0.093013  1.839286
H    -1.204422  -2.305600  3.366726
C    -1.882942  -0.640712  4.580564
C    -2.668844  0.688345  4.563097
C    -3.188754  1.138253  5.946245
C    -4.452669  0.393563  6.377450
N    -4.992088  0.946708  7.691136
H    -0.836228  -0.450646  4.857755
H    -2.286632  -1.323854  5.339679
H    -3.530912  0.621375  3.883588
H    -2.022984  1.491782  4.181443
H    -3.409440  2.215297  5.889817
H    -2.396899  1.019337  6.703350
H    -4.293224  -0.678524  6.540560
H    -5.262793  0.504536  5.646628
H    -4.310170  0.853149  8.458051
H    -5.849722  0.454274  7.982253
H    -5.227004  1.947563  7.613656
N    -3.554871  -2.830225  1.950256
C    -2.589729  -3.433283  1.040756
H    -4.520133  -3.151182  1.874441
H    -3.017472  -4.361060  0.647719
H    -1.661351  -3.698616  1.563469
H    -2.366899  -2.778169  0.185664
Pb    2.450299  -2.571615  1.211490
