35
Energy: -608357.591215 eV PBE+vdW (tier 2 basis)
C    1.654477  1.774939  2.633733
C    0.911294  0.494610  2.571297
O    1.489368  -0.598205  2.914645
H    2.571845  1.641011  2.034824
H    2.001409  1.982085  3.656400
H    1.100340  2.627912  2.232511
N    -0.364832  0.424283  2.126197
C    -1.444271  1.286826  2.613445
C    -1.720154  0.829072  4.079792
O    -1.234775  -0.273037  4.522730
H    -0.667083  -0.529432  1.918898
H    -1.070817  2.321183  2.651288
C    -2.648973  1.224904  1.634992
C    -3.731977  2.300578  1.853261
C    -4.616425  2.617280  0.623297
C    -5.626239  1.531227  0.250152
N    -6.552804  2.010764  -0.860471
H    -3.085121  0.213779  1.658635
H    -2.203931  1.356885  0.637142
H    -3.244014  3.253644  2.111483
H    -4.380243  2.037139  2.703287
H    -3.971911  2.843913  -0.240792
H    -5.163338  3.544370  0.855498
H    -6.279498  1.266943  1.091472
H    -5.156588  0.614812  -0.127569
H    -7.087828  2.845915  -0.576898
H    -7.238681  1.285260  -1.119852
H    -6.034199  2.259228  -1.716447
N    -2.445617  1.599067  4.864745
C    -2.774195  1.313141  6.269980
H    -2.772800  2.486841  4.489145
H    -3.650765  1.905743  6.546359
H    -1.935436  1.594219  6.920256
H    -2.996348  0.249025  6.391315
Pb    0.492291  -1.801127  4.553718
