35
Energy: -608357.027304 eV PBE+vdW (tier 2 basis)
C    0.344879  0.438730  0.153304
C    -0.021572  0.409051  1.592661
O    0.954240  0.446199  2.489166
H    1.036616  -0.386635  -0.067747
H    0.872207  1.377389  -0.072643
H    -0.522394  0.356525  -0.506929
N    -1.241747  0.354112  2.046521
C    -2.540352  0.377881  1.347712
C    -3.458630  0.973289  2.460918
O    -3.148065  0.728001  3.632374
H    -1.450474  0.355681  3.074957
H    -2.477768  1.028554  0.465090
C    -2.962533  -1.063798  0.956840
C    -4.312898  -1.198066  0.207412
C    -5.443781  -1.827421  1.046806
C    -6.680852  -2.085915  0.186265
N    -7.764484  -2.839001  0.947345
H    -2.967800  -1.671173  1.873822
H    -2.163497  -1.472734  0.323398
H    -4.142569  -1.827592  -0.676926
H    -4.641295  -0.225420  -0.189273
H    -5.700152  -1.175928  1.897354
H    -5.084794  -2.781172  1.466219
H    -6.446749  -2.705907  -0.688478
H    -7.148601  -1.158725  -0.167733
H    -8.590171  -3.005413  0.351885
H    -8.086839  -2.320537  1.777231
H    -7.433291  -3.759955  1.270750
N    -4.528133  1.679314  2.071120
C    -5.441524  2.323503  3.021646
H    -4.608501  1.937756  1.092424
H    -6.447867  2.352041  2.591886
H    -5.118087  3.349946  3.237818
H    -5.447833  1.751291  3.953549
Pb    2.741789  0.643137  3.596434
