35
Energy: -608356.546282 eV PBE+vdW (tier 2 basis)
C    0.248924  1.333367  1.644686
C    0.308928  -0.151389  1.595647
O    1.467721  -0.765293  1.686481
H    1.058494  1.724230  2.271145
H    -0.704737  1.707963  2.031014
H    0.384354  1.739903  0.627996
N    -0.763659  -0.906320  1.449216
C    -2.147218  -0.442746  1.203304
C    -3.015432  -0.114050  2.453050
O    -3.892616  0.743454  2.272281
H    -0.601113  -1.915586  1.431597
H    -2.063073  0.513017  0.674624
C    -2.921849  -1.440187  0.299101
C    -4.013374  -0.740421  -0.561438
C    -5.435377  -1.322529  -0.482173
C    -6.224771  -1.122690  0.808571
N    -6.445891  0.344202  1.140351
H    -3.351572  -2.239803  0.920988
H    -2.202253  -1.927409  -0.373360
H    -3.703662  -0.797377  -1.612567
H    -4.033624  0.335274  -0.333419
H    -5.411836  -2.407493  -0.664795
H    -6.019898  -0.911522  -1.320389
H    -5.733326  -1.552842  1.690624
H    -7.216001  -1.582219  0.719815
H    -7.159711  0.455126  1.873105
H    -6.769070  0.875838  0.320403
H    -5.557838  0.760150  1.497730
N    -2.864319  -0.753043  3.624368
C    -2.029867  -1.899227  3.983162
H    -3.500322  -0.412610  4.345223
H    -2.433215  -2.332414  4.904005
H    -0.989563  -1.610324  4.183455
H    -2.070590  -2.686787  3.219713
Pb    3.603835  -1.013781  1.701610
