35
Energy: -608356.245748 eV PBE+vdW (tier 2 basis)
C    0.236854  -0.348911  0.296152
C    0.036120  0.186747  1.685432
O    0.952194  0.656034  2.375787
H    0.917137  0.310370  -0.255314
H    -0.692301  -0.478254  -0.270247
H    0.723998  -1.333826  0.360326
N    -1.243187  0.131546  2.184699
C    -1.587905  0.346989  3.588739
C    -1.770107  1.836947  3.917942
O    -2.248395  2.648041  3.011534
H    -1.925528  -0.379887  1.632247
H    -2.627199  -0.022707  3.665851
C    -0.782230  -0.505244  4.627546
C    0.515008  0.041376  5.277704
C    1.581161  -1.038787  5.560845
C    2.298628  -1.665963  4.368510
N    3.117758  -0.663486  3.572145
H    -0.574964  -1.440745  4.090359
H    -1.483287  -0.802061  5.421234
H    0.289277  0.474529  6.266789
H    0.945496  0.848764  4.673247
H    1.129481  -1.873385  6.118360
H    2.332158  -0.616535  6.246523
H    1.617065  -2.133850  3.646922
H    2.993548  -2.438728  4.717581
H    3.744850  -1.144349  2.912928
H    3.713282  -0.089863  4.184888
H    2.484328  -0.037030  3.019255
N    -1.562488  2.282163  5.129991
C    -1.832183  3.634254  5.630348
H    -1.157941  1.615649  5.789582
H    -1.555331  3.670576  6.687544
H    -2.901795  3.866944  5.543689
H    -1.231716  4.372319  5.083241
Pb    -3.193248  4.002250  1.668040
