35
Energy: -608356.769223 eV PBE+vdW (tier 2 basis)
C    -0.767619  -0.042075  -0.887068
C    -0.939873  -0.133825  0.584471
O    -0.750173  -1.280350  1.137973
H    -1.322017  -0.861434  -1.364837
H    0.293043  -0.207805  -1.129915
H    -1.089471  0.916379  -1.305853
N    -1.263014  0.957905  1.283724
C    -1.657077  1.144827  2.703685
C    -0.714263  0.492777  3.721552
O    -0.415895  1.262681  4.762333
H    -1.340556  1.806269  0.726112
H    -1.526720  2.221205  2.873890
C    -3.168062  0.864011  2.958245
C    -3.730511  -0.525242  2.616010
C    -5.261316  -0.564231  2.826198
C    -5.863497  -1.909181  2.419406
N    -7.378867  -1.918945  2.576535
H    -3.713240  1.626810  2.381724
H    -3.357713  1.104324  4.016254
H    -3.250935  -1.304535  3.227636
H    -3.514660  -0.772008  1.565744
H    -5.725575  0.240542  2.233506
H    -5.495270  -0.357028  3.882601
H    -5.491089  -2.737214  3.035313
H    -5.670763  -2.149285  1.366225
H    -7.776924  -2.832229  2.308529
H    -7.830877  -1.205655  1.985011
H    -7.666942  -1.735833  3.549198
N    -0.268056  -0.707428  3.562032
C    0.648892  -1.280444  4.508928
H    -0.599634  -1.193429  2.190583
H    0.191435  -1.395295  5.519101
H    1.599870  -0.692850  4.567824
H    0.959959  -2.288075  4.204781
Pb    0.942105  1.138146  6.427575
