35
Energy: -608356.639992 eV PBE+vdW (tier 2 basis)
C    0.269938  -0.363447  0.017580
C    0.120899  -0.563417  1.478846
O    1.092410  -1.115618  2.116002
H    0.386766  -1.341849  -0.470876
H    1.206631  0.182845  -0.168328
H    -0.567861  0.175769  -0.435031
N    -0.991957  -0.177024  2.113227
C    -1.194854  -0.085626  3.578857
C    -1.212028  -1.498240  4.226296
O    -2.266598  -1.881648  4.921737
H    -1.757652  0.152736  1.530411
H    -0.286971  0.386346  3.992065
C    -2.411239  0.791738  3.915281
C    -2.167425  2.311855  4.043775
C    -2.098984  3.153904  2.751241
C    -2.066348  4.639810  3.122947
N    -2.091627  5.563553  1.912286
H    -2.780852  0.453174  4.890967
H    -3.234320  0.577079  3.214026
H    -1.259488  2.482274  4.643563
H    -2.997560  2.700171  4.652071
H    -2.986228  2.948464  2.129799
H    -1.207934  2.897972  2.155463
H    -1.161630  4.904392  3.684468
H    -2.937789  4.920891  3.727644
H    -2.940237  5.430414  1.342596
H    -1.278318  5.422361  1.295933
H    -2.078437  6.552815  2.206196
N    -0.140451  -2.207613  4.072581
C    -0.032529  -3.508193  4.661313
H    0.760062  -1.553974  3.025975
H    -0.804918  -4.219757  4.267400
H    -0.060746  -3.460350  5.781247
H    0.930742  -3.982655  4.429122
Pb    -2.665021  -3.698814  6.045509
