35
Energy: -608357.523908 eV PBE+vdW (tier 2 basis)
C    -3.248392  -1.953564  -1.181281
C    -2.026244  -1.112198  -1.079711
O    -1.281331  -0.952481  -2.109692
H    -4.076954  -1.560653  -0.584421
H    -3.029719  -2.980544  -0.841146
H    -3.544909  -2.023106  -2.234266
N    -1.656720  -0.507139  0.071725
C    -1.601104  -1.173172  1.389883
C    -0.709333  -2.437951  1.204619
O    0.071924  -2.532987  0.191055
H    -0.921954  0.187071  -0.066092
H    -0.992736  -0.489405  2.004793
C    -2.948903  -1.354976  2.130234
C    -3.736909  -0.032782  2.226280
C    -5.108429  -0.099377  2.938558
C    -5.033749  -0.083154  4.467052
N    -6.416626  0.086645  5.084326
H    -2.714424  -1.718412  3.143439
H    -3.556092  -2.135802  1.651094
H    -3.926513  0.336835  1.209084
H    -3.112352  0.738408  2.704740
H    -5.673772  -0.980808  2.596274
H    -5.679093  0.782197  2.607777
H    -4.437781  0.760539  4.837685
H    -4.628444  -1.008659  4.893882
H    -6.369380  0.103253  6.114805
H    -7.056830  -0.677521  4.821271
H    -6.859427  0.969997  4.787869
N    -0.714390  -3.384920  2.117897
C    0.153615  -4.574013  2.101530
H    -1.345460  -3.281947  2.908406
H    -0.004219  -5.125298  3.031834
H    1.204182  -4.270097  2.031483
H    -0.101146  -5.218420  1.251648
Pb    0.771735  -1.897711  -1.902518
