35
Energy: -608358.085877 eV PBE+vdW (tier 2 basis)
C    0.103515  1.455281  0.336558
C    0.142510  0.799248  1.673381
O    1.133701  0.041488  1.965419
H    1.010422  2.061345  0.199395
H    -0.779446  2.083276  0.178356
H    0.133400  0.673378  -0.437485
N    -0.870304  1.012158  2.520948
C    -1.195410  0.405646  3.836180
C    -0.151213  0.755865  4.915453
O    1.014749  0.223795  4.942184
H    -1.587401  1.641750  2.165062
H    -2.120314  0.923235  4.125935
C    -1.553813  -1.100722  3.750744
C    -2.263297  -1.603098  5.029152
C    -3.283587  -2.750881  4.846347
C    -2.682734  -4.132427  4.588284
N    -3.765870  -5.204937  4.606472
H    -0.660907  -1.697893  3.518359
H    -2.226211  -1.195342  2.885054
H    -2.841988  -0.771895  5.460293
H    -1.525943  -1.878327  5.798388
H    -3.985583  -2.490726  4.037993
H    -3.878744  -2.794603  5.771964
H    -1.963834  -4.421262  5.365566
H    -2.194102  -4.216436  3.609718
H    -4.486641  -5.038517  3.887930
H    -4.249233  -5.241487  5.517194
H    -3.374480  -6.143455  4.433439
N    -0.515980  1.601424  5.859467
C    0.313590  2.048807  6.985085
H    -1.449630  2.005031  5.799407
H    -0.321217  2.133593  7.873489
H    0.742433  3.034818  6.761040
H    1.112736  1.326267  7.164934
Pb    2.642279  -0.393980  3.525226
