35
Energy: -608356.657005 eV PBE+vdW (tier 2 basis)
C    0.276827  0.354210  0.532647
C    -0.021797  -0.026301  1.936472
O    0.966174  -0.239938  2.774681
H    0.936950  -0.397516  0.076606
H    -0.614583  0.475399  -0.089079
H    0.817255  1.313777  0.532966
N    -1.247666  -0.148721  2.413394
C    -2.520337  0.022705  1.684073
C    -2.864029  1.519259  1.348496
O    -3.106762  1.747495  0.165315
H    -1.317254  -0.380964  3.407418
H    -2.381562  -0.419119  0.692202
C    -3.656095  -0.717152  2.423204
C    -5.084325  -0.406471  1.933205
C    -5.444672  -0.882222  0.510593
C    -6.930891  -0.636561  0.247581
N    -7.357405  -1.093964  -1.140944
H    -3.619462  -0.461636  3.493166
H    -3.460747  -1.798066  2.354218
H    -5.277788  0.674276  2.015804
H    -5.763685  -0.886807  2.652562
H    -5.222188  -1.957135  0.411790
H    -4.843238  -0.343472  -0.238461
H    -7.188107  0.428602  0.304201
H    -7.569775  -1.183270  0.952584
H    -8.361409  -0.916813  -1.297309
H    -7.202802  -2.103753  -1.276324
H    -6.841628  -0.599353  -1.883317
N    -2.895729  2.462730  2.311975
C    -2.850199  2.323165  3.765890
H    -3.154834  3.380783  1.951859
H    -2.774614  3.325878  4.197868
H    -1.965446  1.767229  4.099865
H    -3.756599  1.852495  4.169688
Pb    2.995733  -0.496802  3.434614
