30
Energy: -573016.543755 eV PBE+vdW (tier 2 basis)
C    0.138414  -0.989549  -0.433277
C    -0.870514  -1.562596  0.479099
O    -0.478833  -2.257200  1.493203
H    0.587054  -1.834480  -0.987704
H    0.946802  -0.508451  0.128418
H    -0.303618  -0.314858  -1.173412
N    -2.214191  -1.453765  0.238574
C    -2.982308  -0.192373  0.122163
C    -2.164410  0.938447  0.783277
O    -1.487751  0.672192  1.799198
H    -2.755637  -2.245058  0.589201
H    -3.201840  0.022300  -0.933126
C    -4.351383  -0.374629  0.862909
C    -4.472102  -0.165374  2.356755
N    -3.753555  -0.795043  3.389945
C    -5.448974  0.572566  2.978967
C    -4.271007  -0.427312  4.568126
N    -5.304334  0.391274  4.335181
H    -4.745279  -1.370907  0.598071
H    -5.057491  0.331378  0.407291
H    -6.245397  1.178462  2.562800
H    -3.920945  -0.730663  5.548136
H    -5.895291  0.801728  5.056219
N    -2.269167  2.150788  0.239564
C    -1.628356  3.352687  0.777310
H    -2.791913  2.246935  -0.627377
H    -0.886936  3.731065  0.063170
H    -1.131823  3.096675  1.716294
H    -2.382586  4.128353  0.953120
Hg    -1.923520  -1.666957  2.947488
