30
Energy: -573015.840036 eV PBE+vdW (tier 2 basis)
C    0.015200  -0.833766  0.433122
C    -0.183884  -0.501121  1.881534
O    0.831140  -0.131053  2.544035
H    0.275137  0.085666  -0.109926
H    -0.878369  -1.285142  -0.012057
H    0.866199  -1.518698  0.332924
N    -1.419950  -0.638500  2.395189
C    -1.807670  -0.179065  3.720412
C    -1.112167  -0.972203  4.859091
O    -0.366088  -0.352187  5.679752
H    -2.215605  -0.727334  1.727748
H    -1.448591  0.857533  3.861930
C    -3.351050  -0.150373  3.909016
C    -4.103973  0.440925  2.761243
N    -3.913673  -0.012058  1.482717
C    -5.134327  1.395310  2.773506
C    -4.790645  0.637383  0.725300
N    -5.545857  1.491842  1.482004
H    -3.565754  0.400161  4.833374
H    -3.727374  -1.172824  4.062181
H    -5.585247  1.965869  3.577884
H    -4.919079  0.524962  -0.346644
H    -6.294082  2.089804  1.137065
N    -1.296540  -2.275640  5.037018
C    -2.161492  -3.226030  4.338947
H    -0.790212  -2.644652  5.845730
H    -1.621796  -4.178152  4.268364
H    -2.391333  -2.885628  3.327522
H    -3.086625  -3.398677  4.906011
Hg    1.078705  1.048646  4.540006
