30
Energy: -573015.536792 eV PBE+vdW (tier 2 basis)
C    -1.017129  1.432854  1.743576
C    -1.051969  0.555240  2.949486
O    -0.299900  0.828999  3.930582
H    -0.467433  2.347764  1.988569
H    -2.023110  1.689902  1.394729
H    -0.470602  0.926043  0.932737
N    -1.890720  -0.512831  3.063499
C    -2.172267  -1.526173  2.047691
C    -0.813863  -2.215917  1.701069
O    0.274585  -1.720302  2.121529
H    -1.928977  -0.868171  4.019176
H    -2.796937  -2.274082  2.556374
C    -2.992101  -0.987263  0.835694
C    -3.861137  -2.008764  0.183294
N    -3.481000  -3.309764  -0.002845
C    -5.154888  -1.824607  -0.350347
C    -4.484700  -3.910677  -0.628854
N    -5.512736  -3.030830  -0.850745
H    -2.316449  -0.546869  0.083123
H    -3.627081  -0.168745  1.199482
H    -5.802762  -0.955618  -0.389536
H    -4.516959  -4.949790  -0.941443
H    -6.392876  -3.248824  -1.314953
N    -0.851242  -3.306069  0.949382
C    0.306546  -4.123730  0.622316
H    -1.781228  -3.544783  0.522559
H    0.651275  -3.895492  -0.397839
H    0.016528  -5.180357  0.657927
H    1.121533  -3.923591  1.322555
Hg    1.135797  -1.000343  4.309533
