30
Energy: -573015.857771 eV PBE+vdW (tier 2 basis)
C    0.203641  -0.378208  0.128504
C    0.084226  -0.250167  1.619883
O    1.171538  -0.129561  2.264284
H    0.538771  0.585612  -0.280615
H    -0.750806  -0.654521  -0.333082
H    0.971173  -1.122099  -0.114232
N    -1.147552  -0.274853  2.150408
C    -1.497423  0.059369  3.521734
C    -1.207469  -1.106498  4.520403
O    -0.238505  -0.980066  5.333762
H    -1.974339  -0.349926  1.511361
H    -0.795750  0.833901  3.877907
C    -2.899517  0.715811  3.642808
C    -3.982741  0.337398  2.683527
N    -3.735479  -0.161447  1.428357
C    -5.362287  0.528958  2.842509
C    -4.915329  -0.276954  0.831782
N    -5.916881  0.134826  1.664554
H    -2.729960  1.800566  3.523090
H    -3.254100  0.605302  4.677994
H    -5.951892  0.910765  3.668585
H    -5.091615  -0.640965  -0.175236
H    -6.908771  0.156204  1.436514
N    -1.926304  -2.217634  4.580006
C    -3.128813  -2.611527  3.846493
H    -1.604929  -2.868119  5.299818
H    -3.137467  -3.704766  3.785779
H    -3.118764  -2.207014  2.831553
H    -4.033585  -2.283607  4.373817
Hg    1.547433  0.213624  4.495102
