30
Energy: -573015.994115 eV PBE+vdW (tier 2 basis)
C    -0.022109  1.400851  0.599967
C    0.005032  0.710120  1.930471
O    1.113251  0.246272  2.330919
H    0.543155  2.340405  0.677304
H    -1.043973  1.612381  0.266246
H    0.489730  0.776203  -0.142262
N    -1.153723  0.600314  2.607007
C    -1.266783  0.145344  3.986334
C    -0.885936  -1.354116  4.140069
O    0.119317  -1.700631  4.826120
H    -1.946189  1.198593  2.294818
H    -0.539728  0.687745  4.619226
C    -2.689265  0.420005  4.546063
C    -3.164830  1.821359  4.336264
N    -3.191106  2.370511  3.082989
C    -3.724620  2.721681  5.257330
C    -3.745572  3.570469  3.216135
N    -4.083945  3.806268  4.521204
H    -2.693950  0.164570  5.612863
H    -3.413938  -0.254528  4.059656
H    -3.899426  2.652835  6.325335
H    -3.924539  4.285856  2.419593
H    -4.534976  4.646634  4.877169
N    -1.659531  -2.264508  3.566449
C    -1.442985  -3.710076  3.650474
H    -2.500987  -1.945264  3.090507
H    -2.001465  -4.131536  4.497347
H    -0.376771  -3.908116  3.794616
H    -1.797107  -4.169550  2.722117
Hg    1.942547  -0.325784  4.431240
