30
Energy: -573016.594882 eV PBE+vdW (tier 2 basis)
C    -0.159973  0.120558  -0.177039
C    -0.104003  0.220864  1.308853
O    1.027523  -0.145496  1.832167
H    0.655790  0.710835  -0.615559
H    -1.119847  0.454557  -0.585433
H    0.010322  -0.926840  -0.466890
N    -1.179217  0.650146  1.976681
C    -1.493487  0.610468  3.422675
C    -3.001200  0.302918  3.698451
O    -3.241337  -0.487219  4.596074
H    -1.980637  0.834719  1.373689
H    -1.032228  -0.297886  3.838937
C    -1.054413  1.890752  4.241247
C    -0.407725  1.595617  5.563382
N    0.836903  0.955026  5.647435
C    -0.783186  1.870701  6.851533
C    1.191216  0.837668  6.933316
N    0.221089  1.396780  7.669265
H    -1.932664  2.522767  4.422007
H    -0.377592  2.510806  3.629851
H    -1.665435  2.360876  7.245391
H    2.095853  0.383190  7.320448
H    0.234354  1.462948  8.686256
N    -3.918526  0.940305  2.930927
C    -5.357758  0.723817  3.133742
H    -3.655878  1.767969  2.403095
H    -5.885014  0.964534  2.205873
H    -5.743593  1.348876  3.949391
H    -5.521865  -0.327474  3.387358
Hg    1.387925  0.219978  3.817244
