30
Energy: -573015.655964 eV PBE+vdW (tier 2 basis)
C    0.547885  -0.316274  0.029936
C    -0.122626  0.514769  1.090851
O    0.480942  1.617336  1.394653
H    0.237856  -1.362360  0.122542
H    1.636051  -0.225720  0.102688
H    0.246229  0.050477  -0.962387
N    -1.255102  0.050242  1.623449
C    -2.031751  0.931830  2.405732
C    -1.363034  1.363766  3.784128
O    -1.135700  2.574811  4.007026
H    -5.358779  -1.008975  4.084646
H    -2.113971  1.942209  1.922810
C    -3.515055  0.479293  2.578767
C    -3.835571  -0.981806  2.566061
N    -4.817870  -1.521132  3.391246
C    -3.423805  -2.021011  1.766785
C    -5.004122  -2.819202  3.119268
N    -4.156348  -3.131163  2.135902
H    -4.066826  0.938002  1.743331
H    -3.930556  0.942157  3.485785
H    -2.679974  -2.043083  0.983522
H    -5.709304  -3.485300  3.603070
H    -4.078524  -4.056335  1.717889
N    -1.084325  0.449946  4.709649
C    -1.236451  -1.000544  4.664987
H    -0.707198  0.843597  5.573012
H    -0.347521  -1.449910  5.123126
H    -1.297906  -1.343956  3.629595
H    -2.118638  -1.320536  5.234974
Hg    -0.476007  3.580873  1.923957
