30
Energy: -573015.697776 eV PBE+vdW (tier 2 basis)
C    -0.220463  -0.985930  2.618275
C    0.032821  0.348611  2.004257
O    1.170163  0.887047  2.131373
H    0.377945  -1.069660  3.534020
H    0.135122  -1.773546  1.935472
H    -1.278486  -1.145827  2.852510
N    -0.932567  1.013518  1.318877
C    -1.882411  0.410914  0.395435
C    -1.141248  0.272574  -0.970567
O    0.128423  0.318573  -1.017292
H    -0.670652  1.974787  1.092995
H    -2.099708  -0.609363  0.744943
C    -3.196666  1.245558  0.387270
C    -4.424502  0.512934  -0.028724
N    -4.458522  -0.305880  -1.121411
C    -5.702203  0.547505  0.563512
C    -5.704636  -0.758779  -1.216820
N    -6.477930  -0.259388  -0.204469
H    -3.058535  2.121784  -0.272829
H    -3.344391  1.645175  1.399539
H    -6.079171  1.064554  1.439268
H    -6.088708  -1.422138  -1.985656
H    -7.468182  -0.449874  -0.062020
N    -1.856210  0.020823  -2.055183
C    -1.290514  -0.130011  -3.390091
H    -2.873045  -0.206188  -1.909345
H    -2.047457  0.164525  -4.124168
H    -1.013130  -1.179042  -3.571420
H    -0.395230  0.490151  -3.493996
Hg    1.915933  1.609336  0.015293
