30
Energy: -573016.87478 eV PBE+vdW (tier 2 basis)
C    0.384194  -0.996712  -1.190433
C    0.145468  0.132669  -0.248402
O    1.235453  0.766740  0.113062
H    0.853882  -0.616369  -2.107892
H    -0.539669  -1.529779  -1.436592
H    1.098546  -1.695389  -0.731600
N    -1.088521  0.402665  0.138672
C    -1.696643  1.219456  1.200809
C    -3.013398  0.387302  1.487289
O    -3.347383  -0.437607  0.635906
H    -1.858579  -0.241742  -0.183934
H    -1.068914  1.206519  2.105744
C    -2.089360  2.692925  0.769473
C    -1.556617  3.839187  1.584751
N    -0.187989  4.080086  1.765842
C    -2.207673  4.886235  2.185924
C    -0.021081  5.218019  2.450477
N    -1.238125  5.716935  2.706454
H    -3.183504  2.777748  0.766124
H    -1.801601  2.829207  -0.285559
H    -3.263731  5.115759  2.263874
H    0.920193  5.665807  2.748138
H    -1.411323  6.589626  3.203638
N    -3.703968  0.635682  2.607169
C    -3.404292  1.555743  3.696824
H    -4.558633  0.085048  2.684703
H    -3.733011  1.106134  4.639826
H    -3.923855  2.515989  3.572197
H    -2.326515  1.735766  3.779767
Hg    0.945140  2.552574  1.024423
