30
Energy: -573016.096635 eV PBE+vdW (tier 2 basis)
C    0.900454  2.052045  1.318928
C    0.719150  1.072123  2.457177
O    1.918309  0.831039  3.001219
H    -0.038988  2.146620  0.764150
H    1.693581  1.711528  0.643308
H    1.209527  3.029590  1.714514
N    -0.477706  0.648941  2.734135
C    -0.880691  -0.084498  3.930904
C    -0.724966  -1.624923  3.813741
O    0.284299  -2.235714  4.332194
H    -1.881000  2.490719  2.633454
H    -0.284953  0.181736  4.830385
C    -2.350851  0.301329  4.260751
C    -2.554290  1.759238  4.501593
N    -2.314133  2.720241  3.529881
C    -3.056784  2.439441  5.581833
C    -2.644958  3.933399  3.981750
N    -3.099823  3.773192  5.229856
H    -2.696234  -0.248785  5.145648
H    -2.996742  0.013037  3.415794
H    -3.397047  2.087292  6.547595
H    -2.562699  4.870515  3.443560
H    -3.438472  4.530009  5.820639
N    -1.637568  -2.336117  3.183318
C    -1.578223  -3.788219  2.982294
H    -2.456457  -1.849545  2.828009
H    -0.533320  -4.104783  2.918794
H    -2.103669  -4.031080  2.053940
H    -2.059683  -4.307841  3.820848
Hg    1.950937  -0.823533  4.275784
