30
Energy: -573015.997911 eV PBE+vdW (tier 2 basis)
C    0.608910  0.991526  0.367934
C    0.204340  0.683483  1.779908
O    0.782925  1.338016  2.699484
H    0.266135  2.005611  0.118403
H    0.208365  0.277338  -0.359681
H    1.704751  1.000142  0.306566
N    -0.721568  -0.272642  1.969180
C    -1.202372  -0.949581  3.187897
C    -2.352260  -0.178574  3.877407
O    -2.335597  1.086030  4.022576
H    -1.097784  -0.661218  1.108267
H    -1.635394  -1.885229  2.813655
C    -0.090520  -1.361886  4.186449
C    -0.374372  -2.682858  4.809873
N    -1.625551  -3.238209  4.810198
C    0.531235  -3.561517  5.433924
C    -1.505240  -4.415289  5.408818
N    -0.207922  -4.640017  5.792622
H    0.031107  -0.587175  4.986793
H    0.885983  -1.379183  3.682833
H    1.599730  -3.498440  5.609236
H    -2.304740  -5.126574  5.592044
H    0.138102  -5.469786  6.271066
N    -3.371727  -0.904582  4.301257
C    -4.545124  -0.379084  4.991142
H    -3.265075  -1.922811  4.210533
H    -5.395771  -0.332047  4.297382
H    -4.334879  0.626695  5.364958
H    -4.801184  -1.052405  5.816571
Hg    -0.298374  1.952627  4.604981
