30
Energy: -573017.101469 eV PBE+vdW (tier 2 basis)
C    -1.156952  -0.303968  -0.613583
C    -0.646830  -0.353976  0.792746
O    0.551851  -0.792745  0.909903
H    -0.517323  0.379108  -1.190541
H    -2.197374  0.029752  -0.686993
H    -1.056512  -1.298092  -1.068598
N    -1.485231  0.057151  1.763613
C    -1.433566  0.276454  3.240996
C    -0.387637  1.349726  3.592838
O    0.814118  1.182644  3.284427
H    -2.383238  0.335011  1.376614
H    -2.426622  0.690682  3.436300
C    -1.359449  -1.044649  4.128026
C    -0.270206  -1.230735  5.147913
N    1.053488  -1.532481  4.808388
C    -0.340340  -1.285219  6.517533
C    1.755592  -1.739867  5.922622
N    0.922552  -1.601209  6.967573
H    -1.376577  -1.913912  3.451218
H    -2.310259  -1.105781  4.671067
H    -1.175983  -1.155770  7.194810
H    2.809871  -1.982345  5.989035
H    1.188466  -1.733604  7.941662
N    -0.795315  2.450075  4.230155
C    -2.152796  2.861229  4.603194
H    -0.042149  3.112355  4.416636
H    -2.074585  3.776841  5.196229
H    -2.647844  2.106567  5.226459
H    -2.765829  3.085368  3.720401
Hg    1.358944  -1.133438  2.796357
