30
Energy: -573015.901353 eV PBE+vdW (tier 2 basis)
C    -0.408342  1.277472  0.649603
C    0.179971  0.200098  1.543911
O    1.515864  0.218159  1.360628
H    -0.252661  1.006773  -0.403571
H    0.113389  2.227094  0.816723
H    -1.473502  1.406654  0.860100
N    -0.613414  -0.499729  2.279026
C    -0.590082  -1.718558  3.085461
C    0.319479  -1.891956  4.346995
O    1.590838  -2.109031  4.346096
H    -2.164971  -1.105819  1.073463
H    -1.599515  -1.751262  3.528943
C    -0.482288  -2.989300  2.188007
C    -1.671610  -3.149066  1.290488
N    -2.399475  -2.073569  0.804337
C    -2.266256  -4.270764  0.769490
C    -3.395952  -2.501377  0.023396
N    -3.320280  -3.836810  -0.008189
H    -0.397044  -3.888202  2.814191
H    0.433749  -2.946135  1.576608
H    -2.029899  -5.321171  0.884648
H    -4.129589  -1.887327  -0.485661
H    -3.955001  -4.437805  -0.530398
N    -0.305277  -1.911143  5.509330
C    0.341747  -2.114257  6.808865
H    -1.317603  -1.807780  5.502547
H    0.371130  -3.183798  7.054774
H    -0.237180  -1.582906  7.570154
H    1.363915  -1.727118  6.772916
Hg    2.428859  -1.058365  2.680120
