30
Energy: -573015.908877 eV PBE+vdW (tier 2 basis)
C    0.695024  1.882988  1.018444
C    0.587430  1.032567  2.251006
O    1.626032  0.923869  2.959886
H    1.595960  1.605209  0.459677
H    0.811905  2.930342  1.331932
H    -0.187378  1.800046  0.373387
N    -0.605574  0.458196  2.511624
C    -1.064024  -0.107059  3.785064
C    -0.858156  -1.636970  3.806089
O    0.290284  -2.126868  4.041651
H    -1.324523  0.628964  1.812810
H    -0.407615  0.300501  4.571610
C    -2.480967  0.384926  4.117091
C    -2.477348  1.823101  4.545210
N    -1.321085  2.478249  4.838074
C    -3.583294  2.668558  4.773296
C    -1.684575  3.692267  5.240326
N    -3.048351  3.836042  5.210270
H    -2.876292  -0.226094  4.947048
H    -3.175031  0.238907  3.271971
H    -4.651820  2.517918  4.663824
H    -1.016608  4.487340  5.557042
H    -3.569387  4.670077  5.474050
N    -1.873808  -2.448294  3.559770
C    -1.765677  -3.912898  3.535804
H    -2.776564  -2.040250  3.335360
H    -1.341481  -4.249035  2.581098
H    -2.766275  -4.335486  3.660498
H    -1.117286  -4.244793  4.352974
Hg    2.024487  -0.697320  4.526116
