30
Energy: -573016.691965 eV PBE+vdW (tier 2 basis)
C    -0.201440  0.826518  0.021993
C    -0.152344  0.300209  1.415015
O    0.997504  -0.182637  1.780109
H    0.136845  0.040622  -0.668386
H    0.507175  1.660929  -0.076220
H    -1.204415  1.157023  -0.268708
N    -1.254160  0.341956  2.167359
C    -1.537711  -0.224040  3.505639
C    -3.086167  -0.557169  3.540572
O    -3.829614  0.193042  4.154944
H    -2.046703  0.807837  1.724502
H    -1.001170  -1.183454  3.589222
C    -1.216145  0.755788  4.681899
C    -0.496645  0.172368  5.858890
N    0.820022  -0.305736  5.763984
C    -0.847584  0.055189  7.178394
C    1.240957  -0.701911  6.971670
N    0.240145  -0.481439  7.835961
H    -2.193719  1.147692  5.008684
H    -0.658593  1.628786  4.305097
H    -1.763913  0.320719  7.692607
H    2.210119  -1.118725  7.220032
H    0.289375  -0.673003  8.835763
N    -3.486410  -1.642989  2.848009
C    -2.674561  -2.646692  2.163727
H    -4.492626  -1.797122  2.884289
H    -3.349424  -3.399490  1.746456
H    -1.994137  -3.167354  2.852553
H    -2.104875  -2.221472  1.326340
Hg    1.376302  -0.389911  3.791784
