30
Energy: -573016.978741 eV PBE+vdW (tier 2 basis)
C    -0.396267  -1.692096  0.339723
C    -0.376685  -0.258219  0.744184
O    0.301641  0.517385  -0.067030
H    -0.856563  -1.786365  -0.653419
H    -0.934015  -2.315664  1.061114
H    0.639488  -2.049110  0.247614
N    -1.010999  0.114373  1.841795
C    -1.037278  1.332134  2.662964
C    -1.369141  0.729737  4.087918
O    -1.847898  -0.402952  4.120661
H    -1.468524  -0.629103  2.428337
H    -0.035642  1.790666  2.707378
C    -2.152803  2.382156  2.259133
C    -1.713513  3.802836  2.044549
N    -0.797890  4.166789  1.046946
C    -2.128056  4.974188  2.625472
C    -0.662461  5.497968  1.030734
N    -1.466375  5.997746  1.979587
H    -2.928647  2.385943  3.034972
H    -2.667611  2.017786  1.355094
H    -2.846700  5.160484  3.414867
H    -0.024801  6.078832  0.374061
H    -1.576291  6.991336  2.178351
N    -1.145624  1.525895  5.138453
C    -1.438567  1.128258  6.520685
H    -0.661621  2.406284  4.993607
H    -1.969995  1.938303  7.031740
H    -0.508903  0.904637  7.058043
H    -2.066735  0.234084  6.499968
Hg    0.032364  2.514458  0.172487
