30
Energy: -573016.221143 eV PBE+vdW (tier 2 basis)
C    -1.877071  -2.785516  1.152461
C    -1.638152  -1.530921  1.931824
O    -0.521489  -0.954452  1.837460
H    -2.846152  -3.244667  1.378216
H    -1.070561  -3.498554  1.364928
H    -1.826985  -2.551669  0.079886
N    -2.654049  -1.062679  2.721719
C    -2.458176  0.206851  3.383221
C    -1.733184  0.071692  4.744731
O    -0.520602  0.431249  4.840618
H    -3.531162  -1.575511  2.748017
H    -1.702203  0.607238  2.717022
C    -3.498829  1.329439  3.284175
C    -2.779169  2.665685  3.193314
N    -1.446820  2.866125  2.796831
C    -3.332251  3.912385  3.361138
C    -1.225080  4.183560  2.745109
N    -2.353331  4.832392  3.072589
H    -4.211049  1.352012  4.119209
H    -4.085666  1.170790  2.365897
H    -4.343016  4.205618  3.620323
H    -0.289552  4.668349  2.491934
H    -2.460820  5.844394  3.103002
N    -2.385089  -0.437451  5.776553
C    -1.795675  -0.659383  7.102930
H    -3.367644  -0.669082  5.654522
H    -0.720864  -0.830851  6.995779
H    -2.269554  -1.536538  7.553635
H    -1.961573  0.214550  7.745499
Hg    0.194770  1.234946  2.779457
