30
Energy: -573017.220837 eV PBE+vdW (tier 2 basis)
C    -0.321261  1.052335  0.035360
C    -0.237874  0.868216  1.518321
O    0.631814  1.608842  2.100868
H    0.669735  0.878221  -0.404539
H    -0.584229  2.099367  -0.171300
H    -1.055073  0.395420  -0.443369
N    -1.066604  -0.036688  2.072517
C    -1.410544  -0.499086  3.452421
C    -1.992676  0.661592  4.282525
O    -1.297443  1.666218  4.550486
H    -1.643325  -0.488839  1.367865
H    -2.220289  -1.209662  3.253969
C    -0.279168  -1.357788  4.174050
C    0.216473  -0.986874  5.543913
N    1.081190  0.088983  5.774822
C    0.073146  -1.633535  6.745813
C    1.427999  0.104275  7.061917
N    0.830962  -0.938849  7.662761
H    0.579995  -1.442320  3.489396
H    -0.668167  -2.380454  4.246471
H    -0.473371  -2.530077  7.012833
H    2.078870  0.820510  7.549795
H    0.946184  -1.185510  8.644040
N    -3.258890  0.525807  4.681531
C    -3.978382  1.531201  5.466095
H    -3.781698  -0.292591  4.383830
H    -3.260737  2.259625  5.851362
H    -4.498459  1.041482  6.296556
H    -4.713208  2.046662  4.834918
Hg    1.070028  1.337518  4.117774
