30
Energy: -573016.672727 eV PBE+vdW (tier 2 basis)
C    -1.828732  -2.280494  0.833860
C    -1.748148  -1.116001  1.770901
O    -1.089967  -1.066846  2.793162
H    -2.790974  -2.347706  0.311690
H    -1.634605  -3.204469  1.387491
H    -1.036933  -2.177661  0.075317
N    -2.527492  0.031207  1.430572
C    -2.133261  1.281076  2.080419
C    -2.211583  1.090558  3.618423
O    -3.236779  0.567046  4.217852
H    -2.787617  0.118321  0.447577
H    -1.077585  1.506795  1.863119
C    -2.999999  2.505729  1.566247
C    -4.212383  2.258212  0.704001
N    -5.333850  1.520372  1.111346
C    -4.527692  2.785721  -0.524381
C    -6.274766  1.592583  0.167059
N    -5.803468  2.362829  -0.826770
H    -2.329333  3.151294  0.986613
H    -3.299575  3.119651  2.431580
H    -3.965950  3.437791  -1.183153
H    -7.249945  1.119516  0.186029
H    -6.323265  2.605325  -1.669026
N    -1.237737  1.574397  4.354479
C    -1.169688  1.484500  5.817100
H    -0.393569  1.868642  3.867168
H    -2.169656  1.607048  6.242365
H    -0.510458  2.277405  6.181208
H    -0.765799  0.506278  6.110309
Hg    -4.835190  0.451882  2.849441
