30
Energy: -573016.80121 eV PBE+vdW (tier 2 basis)
C    0.188682  -0.429239  -0.083572
C    0.057872  -0.292139  1.394566
O    1.042123  -0.789862  2.080299
H    0.356447  -1.487129  -0.330988
H    1.078804  0.120256  -0.421044
H    -0.694080  -0.066251  -0.620839
N    -1.029669  0.295807  1.901125
C    -1.494494  0.452016  3.298059
C    -3.084488  0.501725  3.303736
O    -3.642256  1.483735  3.767663
H    -1.672721  0.657429  1.196512
H    -1.230569  -0.467726  3.848387
C    -0.966714  1.741616  4.007596
C    -0.465488  1.572654  5.409256
N    0.690218  0.833671  5.705261
C    -0.897848  2.093637  6.600520
C    0.939499  0.898682  7.019275
N    -0.013088  1.665580  7.568673
H    -1.827208  2.430434  4.030817
H    -0.193900  2.228067  3.390631
H    -1.744133  2.731725  6.826734
H    1.758721  0.429510  7.551588
H    -0.061709  1.903131  8.558556
N    -3.693600  -0.570485  2.764973
C    -5.154378  -0.690641  2.700787
H    -3.143315  -1.382389  2.503945
H    -5.424024  -1.302884  1.834870
H    -5.588548  0.307743  2.595409
H    -5.548866  -1.155497  3.613510
Hg    1.282504  -0.195169  4.034872
