30
Energy: -573016.41014 eV PBE+vdW (tier 2 basis)
C    0.326544  0.836007  0.670131
C    0.157771  0.728847  2.142524
O    1.153454  1.201701  2.865890
H    -0.545396  0.468293  0.119848
H    1.199313  0.221767  0.390794
H    0.569159  1.866436  0.381418
N    -0.943665  0.188833  2.646588
C    -1.240156  -0.645815  3.833233
C    -2.524483  -1.412372  3.326585
O    -3.091090  -0.978040  2.318579
H    -1.748870  -0.014174  1.990496
H    -0.412471  -1.363186  3.942562
C    -1.458166  -0.046510  5.273374
C    -2.134528  1.269375  5.522910
N    -1.393301  2.458994  5.559207
C    -3.407148  1.600201  5.911406
C    -2.192735  3.469672  5.920110
N    -3.411558  2.958713  6.147770
H    -0.483763  -0.017483  5.789565
H    -2.021424  -0.811756  5.824126
H    -4.288762  0.987920  6.058590
H    -1.914803  4.511724  6.030009
H    -4.211229  3.498232  6.477090
N    -2.912954  -2.479029  4.032681
C    -4.062904  -3.307684  3.650125
H    -2.301996  -2.843409  4.757785
H    -3.736204  -4.166966  3.050853
H    -4.753564  -2.701662  3.058083
H    -4.564663  -3.665613  4.554719
Hg    0.320592  2.209983  4.449946
