30
Energy: -573016.395203 eV PBE+vdW (tier 2 basis)
C    0.333253  -1.238717  -0.431357
C    0.500183  -1.756975  0.945501
O    1.438402  -2.648177  1.146459
H    -0.355582  -0.390968  -0.481198
H    0.010497  -2.043815  -1.107793
H    1.324484  -0.923102  -0.795104
N    -0.235943  -1.372278  1.991399
C    -1.655054  -1.066493  2.160884
C    -1.670094  -0.419683  3.574387
O    -0.744820  -0.753386  4.334836
H    0.155244  -1.375208  2.974183
H    -2.037954  -0.409621  1.371170
C    -2.491273  -2.401309  2.175776
C    -2.339167  -3.328837  3.353921
N    -1.248674  -4.180617  3.626452
C    -3.267206  -3.595693  4.329263
C    -1.516117  -4.898401  4.725432
N    -2.736778  -4.559480  5.155612
H    -2.291458  -2.943875  1.237785
H    -3.553717  -2.127077  2.127655
H    -4.262989  -3.195931  4.479206
H    -0.868798  -5.633151  5.190266
H    -3.202086  -4.972356  5.962586
N    -2.678177  0.384512  3.919850
C    -3.723207  0.941681  3.056325
H    -2.601637  0.760158  4.864345
H    -4.468547  1.424913  3.694354
H    -4.238788  0.160368  2.485168
H    -3.320392  1.697468  2.369124
Hg    0.529402  -3.872582  2.608583
