30
Energy: -573016.578154 eV PBE+vdW (tier 2 basis)
C    1.198822  -1.170609  1.736472
C    0.336820  -1.245330  2.959663
O    0.639377  -1.805197  3.999622
H    2.190427  -0.799159  2.023248
H    0.785969  -0.543110  0.938583
H    1.345628  -2.187959  1.348125
N    -0.942987  -0.636445  2.860826
C    -1.725313  -0.575373  4.065765
C    -2.849242  -1.644955  4.091433
O    -3.518510  -1.938187  5.171474
H    -1.096912  0.048924  2.125798
H    -1.002452  -0.963859  4.825852
C    -2.199957  0.883610  4.429434
C    -1.562724  1.503849  5.646351
N    -1.792959  1.013193  6.936731
C    -0.760028  2.605087  5.795714
C    -1.148606  1.774412  7.826916
N    -0.523757  2.747098  7.147562
H    -3.297276  0.925142  4.539092
H    -1.990282  1.534752  3.572354
H    -0.359471  3.298330  5.065802
H    -1.127425  1.641526  8.902453
H    0.039483  3.480676  7.575679
N    -3.081952  -2.324499  3.001111
C    -4.028318  -3.431515  2.839414
H    -2.493191  -2.055215  2.207814
H    -4.361017  -3.780130  3.819746
H    -3.526993  -4.243847  2.302300
H    -4.892820  -3.092447  2.254938
Hg    -2.847246  -0.773988  6.778601
