30
Energy: -573016.14216 eV PBE+vdW (tier 2 basis)
C    -0.184530  0.785747  -0.118277
C    -0.027586  0.604344  1.360536
O    1.029517  1.135013  1.864246
H    0.682588  0.353360  -0.633896
H    -0.188918  1.862198  -0.341815
H    -1.113450  0.336562  -0.485659
N    -0.973312  -0.067888  2.018417
C    -1.279702  -0.080679  3.460667
C    -0.668644  -1.304639  4.177651
O    0.541398  -1.293622  4.615366
H    -1.761198  -0.487199  1.459516
H    -0.814587  0.798678  3.938803
C    -2.813344  0.093349  3.642834
C    -3.642059  -0.917287  2.907490
N    -3.384777  -1.203891  1.581737
C    -4.782285  -1.604450  3.317331
C    -4.341412  -2.032173  1.189084
N    -5.204289  -2.290176  2.212041
H    -3.057893  1.102272  3.276507
H    -3.048554  0.088701  4.715215
H    -5.325870  -1.617770  4.255498
H    -4.448616  -2.463686  0.199127
H    -6.033747  -2.876886  2.156361
N    -1.400829  -2.378744  4.375822
C    -0.929696  -3.596918  5.046331
H    -2.374809  -2.337343  4.055640
H    -0.839065  -3.425531  6.126475
H    0.047803  -3.888677  4.647524
H    -1.657540  -4.391252  4.862832
Hg    1.722406  0.379588  3.795593
