30
Energy: -573016.201767 eV PBE+vdW (tier 2 basis)
C    -0.194691  0.959608  -0.028802
C    -0.088326  0.687823  1.442870
O    0.966759  1.106337  2.013960
H    -0.215267  2.047940  -0.182449
H    -1.093543  0.516904  -0.472375
H    0.701418  0.578014  -0.533417
N    -1.104831  0.041607  2.039878
C    -1.375083  -0.096179  3.475896
C    -0.689676  -1.351601  4.085110
O    0.407969  -1.226356  4.752491
H    -1.855218  -0.266893  1.423949
H    -0.900957  0.756028  3.987997
C    -2.889901  0.061072  3.769030
C    -3.837403  -0.759888  2.953289
N    -3.605535  -2.084716  2.659792
C    -5.080071  -0.390001  2.442610
C    -4.674285  -2.520672  2.003379
N    -5.581135  -1.515980  1.855624
H    -3.139116  1.123873  3.646011
H    -3.034295  -0.156273  4.840792
H    -5.620942  0.549328  2.460209
H    -4.833861  -3.528888  1.635608
H    -6.488503  -1.597544  1.402015
N    -1.244087  -2.530042  3.949950
C    -0.676769  -3.769511  4.478293
H    -2.181760  -2.560440  3.446131
H    0.416784  -3.737956  4.436180
H    -1.057313  -4.602498  3.879783
H    -0.984803  -3.912140  5.523195
Hg    1.646443  0.480043  4.068999
