30
Energy: -573017.042256 eV PBE+vdW (tier 2 basis)
C    -1.139609  -2.408884  -0.001325
C    -1.568514  -1.164080  0.715850
O    -1.028610  -0.851008  1.801126
H    -0.079647  -2.305629  -0.272559
H    -1.719740  -2.619967  -0.905997
H    -1.208297  -3.260821  0.686369
N    -2.524063  -0.405899  0.115111
C    -3.069332  0.881814  0.552002
C    -1.951775  1.916997  0.897716
O    -1.486507  2.165606  2.063205
H    -2.879346  -0.757324  -0.768991
H    -3.523032  1.296051  -0.357593
C    -4.291857  0.820468  1.561144
C    -4.483488  -0.311454  2.530738
N    -3.717958  -0.493766  3.683938
C    -5.492155  -1.243005  2.583045
C    -4.224587  -1.503748  4.391124
N    -5.308365  -1.963265  3.741890
H    -5.189285  0.822519  0.929731
H    -4.335735  1.778846  2.105137
H    -6.328391  -1.426031  1.918858
H    -3.844865  -1.893129  5.328564
H    -5.909409  -2.714950  4.074533
N    -1.486198  2.621484  -0.119802
C    -0.419876  3.623280  -0.011013
H    -1.918479  2.498633  -1.031882
H    0.327790  3.285305  0.712952
H    -0.834141  4.584179  0.320892
H    0.039723  3.745969  -0.995876
Hg    -1.902256  0.572807  3.469112
