30
Energy: -573016.514609 eV PBE+vdW (tier 2 basis)
C    -1.310652  0.218183  -0.347224
C    -1.849751  0.480476  1.025409
O    -2.985501  0.160714  1.382124
H    -1.302229  -0.867404  -0.515722
H    -0.303085  0.616152  -0.510890
H    -1.996925  0.647323  -1.088005
N    -1.006585  1.121597  1.926992
C    -1.390039  1.181604  3.325627
C    -2.387490  2.374871  3.567915
O    -2.147239  3.547635  4.112345
H    -0.045176  1.307042  1.659345
H    -2.049266  0.313849  3.490603
C    -0.186236  0.925372  4.301229
C    1.210464  1.415901  4.003634
N    1.605380  2.758154  4.107363
C    2.356382  0.705485  3.742389
C    2.922437  2.854919  3.905688
N    3.390263  1.615844  3.689825
H    -0.106259  -0.168082  4.362540
H    -0.472869  1.229556  5.322726
H    2.520376  -0.359185  3.621977
H    3.517269  3.761314  3.915967
H    4.371083  1.388160  3.530632
N    -3.601992  2.135295  3.153566
C    -4.730472  3.066111  3.180128
H    -3.704081  1.226324  2.648617
H    -5.358244  2.853927  4.055665
H    -5.323818  2.909362  2.273750
H    -4.374832  4.098604  3.230857
Hg    -0.123240  3.880271  4.242477
