30
Energy: -573016.496892 eV PBE+vdW (tier 2 basis)
C    -1.562682  -2.709888  1.180326
C    -1.581828  -1.410721  1.917909
O    -1.001600  -1.137948  2.939442
H    -0.770038  -2.669077  0.415706
H    -2.507875  -2.930844  0.669038
H    -1.309539  -3.516401  1.875638
N    -2.400542  -0.347458  1.311297
C    -2.048467  1.021432  1.753579
C    -2.439589  1.201665  3.242564
O    -3.512184  0.716816  3.726328
H    -2.482834  -0.432081  0.293605
H    -0.951779  1.113069  1.717964
C    -2.610687  2.103442  0.785890
C    -4.082521  2.418099  0.657767
N    -5.151965  1.522860  0.767240
C    -4.615293  3.613797  0.236967
C    -6.282053  2.167280  0.454650
N    -5.972685  3.427404  0.115069
H    -2.221326  1.844296  -0.213638
H    -2.108245  3.045134  1.045558
H    -4.139203  4.555541  -0.010356
H    -7.284100  1.754715  0.469769
H    -6.641903  4.130596  -0.193120
N    -1.635244  1.928688  3.992391
C    -1.856070  2.198302  5.418097
H    -0.743175  2.211078  3.593234
H    -2.920058  2.373279  5.601084
H    -1.282377  3.086815  5.695349
H    -1.519624  1.342741  6.018083
Hg    -4.741512  -0.175634  2.072571
