30
Energy: -573015.9248 eV PBE+vdW (tier 2 basis)
C    -0.540724  1.616325  1.452166
C    -0.073825  0.334592  2.075890
O    1.177785  0.157442  2.169697
H    -0.262301  1.615697  0.389203
H    -0.011232  2.454741  1.922248
H    -1.621347  1.767478  1.550511
N    -1.013658  -0.515304  2.522788
C    -0.885955  -1.861652  3.103360
C    0.088870  -1.914114  4.304543
O    1.268896  -2.365583  4.226897
H    -1.970557  -0.307261  2.235250
H    -1.882554  -2.063090  3.521464
C    -0.638032  -2.971019  2.058560
C    -1.787717  -3.122636  1.126723
N    -2.797884  -2.205282  1.061710
C    -2.047462  -4.181608  0.229097
C    -3.662020  -2.676279  0.173454
N    -3.234592  -3.875489  -0.344785
H    -0.416551  -3.918534  2.570108
H    0.289711  -2.760677  1.457209
H    -1.502191  -5.090866  -0.000275
H    -4.594429  -2.206610  -0.124969
H    -3.725311  -4.436061  -1.039251
N    -0.394284  -1.512295  5.474232
C    0.372764  -1.481201  6.719931
H    -1.384932  -1.284142  5.529740
H    1.431862  -1.331545  6.491011
H    0.255919  -2.428951  7.263032
H    -0.004138  -0.662483  7.340977
Hg    2.376891  -1.797595  2.279480
