32
Energy: -570098.353752 eV PBE+vdW (tier 2 basis)
C    -0.448308  0.265775  -0.069552
C    -0.304821  0.103157  1.400782
O    0.845641  0.113012  1.932791
H    0.154119  -0.479717  -0.605590
H    -0.015513  1.246047  -0.330938
H    -1.489173  0.255221  -0.403496
N    -1.385565  -0.031324  2.230079
C    -2.459169  -1.034922  2.083781
C    -1.597351  -2.347636  1.938215
O    -0.866094  -2.555523  2.970656
H    -1.128062  0.126289  3.207035
H    -2.888707  -1.123253  3.091705
C    -3.640109  -0.731415  1.133417
C    -4.090760  0.739585  1.410619
C    -4.774017  -1.726250  1.402721
C    -5.229756  1.190543  0.513894
H    -3.322419  -0.796706  0.083934
H    -3.207617  1.385439  1.264296
H    -4.376441  0.835658  2.470055
H    -5.537361  -1.670383  0.619342
H    -5.260698  -1.514797  2.364968
H    -4.434600  -2.772561  1.441245
H    -5.411434  2.266658  0.686110
H    -6.184048  0.695592  0.737144
H    -5.003491  1.064250  -0.553022
N    -1.496016  -3.127568  0.874165
C    -2.219294  -3.171449  -0.402316
H    -0.792938  -3.860504  0.998966
H    -1.871353  -4.055278  -0.943862
H    -1.999035  -2.284047  -1.008557
H    -3.299186  -3.253694  -0.243097
Hg    1.332296  -1.868454  3.121412
