32
Energy: -570099.602562 eV PBE+vdW (tier 2 basis)
C    -0.233147  2.759273  1.294847
C    -0.376658  2.033044  2.593642
O    0.280880  2.539115  3.575112
H    -0.673838  3.762051  1.407926
H    -0.737941  2.241592  0.471189
H    0.830161  2.899478  1.063744
N    -1.154104  0.938317  2.641439
C    -1.879974  0.329466  3.779418
C    -1.152536  -0.897807  4.393574
O    -0.249169  -0.744256  5.316054
H    -1.561381  0.687272  1.740092
H    -1.880027  1.065192  4.604256
C    -3.397362  0.157225  3.412375
C    -3.716124  -0.273452  1.962560
C    -4.118105  1.476755  3.737592
C    -3.210717  -1.627560  1.457995
H    -3.783334  -0.612906  4.100370
H    -3.426204  0.527868  1.257972
H    -4.813299  -0.272564  1.899003
H    -4.006397  1.755934  4.793808
H    -5.191916  1.379567  3.540370
H    -3.749291  2.305645  3.115601
H    -3.594753  -1.821598  0.448853
H    -3.590268  -2.460927  2.073958
H    -2.114042  -1.701046  1.378054
N    -1.479400  -2.119939  4.059164
C    -0.884815  -3.339410  4.621177
H    -2.228467  -2.230645  3.371783
H    0.178385  -3.177651  4.822374
H    -1.013889  -4.147612  3.895746
H    -1.393841  -3.605452  5.557083
Hg    0.511575  1.258031  5.281866
