32
Energy: -570099.219503 eV PBE+vdW (tier 2 basis)
C    -0.027917  0.215326  -0.034484
C    -0.034073  -0.068459  1.435652
O    1.068993  0.174864  2.040430
H    -0.010081  1.306629  -0.178302
H    -0.913264  -0.195649  -0.534634
H    0.884035  -0.190321  -0.487990
N    -1.161283  -0.531291  1.998701
C    -1.510196  -0.561992  3.426683
C    -0.993767  -1.849395  4.125128
O    -0.031961  -1.725596  4.990819
H    -1.947084  -0.641638  1.358042
H    -0.915785  0.226491  3.921560
C    -2.967666  -0.034897  3.666640
C    -3.267575  0.140163  5.174300
C    -4.108684  -0.704452  2.895399
C    -3.541525  -1.118707  6.000580
H    -2.878476  0.988762  3.261698
H    -4.147646  0.796847  5.228721
H    -2.451533  0.719007  5.637435
H    -3.904114  -0.864157  1.824428
H    -4.976772  -0.033671  2.926611
H    -4.428047  -1.656033  3.328763
H    -3.850459  -0.830337  7.012491
H    -2.658938  -1.760818  6.127241
H    -4.357270  -1.725184  5.586796
N    -1.418596  -3.079887  3.920261
C    -2.543604  -3.607216  3.153747
H    -0.905919  -3.773443  4.473500
H    -2.226837  -4.561461  2.716431
H    -2.837089  -2.921533  2.358772
H    -3.397987  -3.793832  3.818038
Hg    1.407123  -0.308802  4.151525
