32
Energy: -570099.471169 eV PBE+vdW (tier 2 basis)
C    -0.313047  0.567694  -0.382207
C    -0.318646  0.644627  1.112245
O    0.569599  1.416695  1.620201
H    0.713278  0.439681  -0.745699
H    -0.685714  1.524723  -0.779300
H    -0.950554  -0.243239  -0.754584
N    -1.230642  -0.069515  1.792440
C    -1.693297  0.130341  3.176538
C    -0.890685  -0.711746  4.199530
O    -0.012720  -0.120872  4.950170
H    -1.855834  -0.615943  1.201692
H    -1.462162  1.176040  3.450972
C    -3.239361  0.057934  3.285390
C    -3.894675  1.116019  2.358207
C    -3.666803  0.215593  4.751087
C    -3.477830  2.570746  2.578029
H    -3.568693  -0.929792  2.926024
H    -4.978778  1.019197  2.511992
H    -3.735864  0.840342  1.303522
H    -3.290306  -0.586426  5.400146
H    -4.760898  0.190679  4.816272
H    -3.337537  1.171599  5.179648
H    -4.068547  3.227596  1.928282
H    -2.423084  2.765439  2.321619
H    -3.648526  2.909567  3.607770
N    -1.049047  -2.005079  4.395623
C    -2.030196  -2.940025  3.836570
H    -0.431212  -2.388117  5.116647
H    -1.604308  -3.945620  3.914535
H    -2.225068  -2.725473  2.782885
H    -2.967173  -2.910518  4.408332
Hg    0.913060  1.456281  3.769630
