32
Energy: -570099.067854 eV PBE+vdW (tier 2 basis)
C    -2.432630  -1.190946  -1.046355
C    -2.308872  -0.148681  0.007032
O    -1.829108  1.006405  -0.202502
H    -3.038327  -0.786203  -1.872150
H    -2.898192  -2.118646  -0.703228
H    -1.438834  -1.412143  -1.460491
N    -2.654713  -0.369066  1.303458
C    -2.742914  -1.599665  2.006818
C    -3.460971  -1.240642  3.346300
O    -3.338095  -0.108653  3.796781
H    -2.609272  0.455475  1.923850
H    -3.267126  -2.355408  1.408914
C    -1.272643  -2.233915  2.379119
C    -1.425672  -3.670794  2.885708
C    -0.462210  -1.320656  3.273657
C    -0.116560  -4.458030  2.736857
H    -0.824128  -2.261255  1.367490
H    -2.205929  -4.198963  2.312038
H    -1.742524  -3.665165  3.940124
H    -0.336577  -0.307934  2.871462
H    0.551140  -1.740868  3.376948
H    -0.866497  -1.249298  4.293321
H    -0.284538  -5.502070  3.033141
H    0.680437  -4.043450  3.366553
H    0.245750  -4.474527  1.698503
N    -4.189733  -2.226196  3.913448
C    -5.074362  -1.985266  5.041792
H    -4.242226  -3.129907  3.447311
H    -6.089813  -1.717953  4.705177
H    -4.675925  -1.152999  5.633600
H    -5.143475  -2.907222  5.632138
Hg    -2.276572  2.399961  -2.019074
