32
Energy: -570099.645566 eV PBE+vdW (tier 2 basis)
C    -2.360035  0.398002  -0.844648
C    -1.759975  0.643934  0.504862
O    -0.554052  0.229778  0.641084
H    -2.270892  -0.672935  -1.077657
H    -1.774490  0.936988  -1.602307
H    -3.413562  0.692458  -0.902715
N    -2.503900  1.271124  1.430889
C    -2.442701  1.350762  2.925636
C    -1.637198  2.577392  3.420205
O    -0.349435  2.629169  3.440050
H    -3.409851  1.556004  1.065619
H    -3.488028  1.551784  3.200852
C    -2.078123  0.041936  3.681047
C    -2.884845  -1.165519  3.152514
C    -2.244148  0.280202  5.185902
C    -2.519025  -2.495563  3.808302
H    -1.001070  -0.228026  3.515323
H    -2.748158  -1.259202  2.065446
H    -3.955338  -0.948432  3.313469
H    -3.298573  0.471110  5.435024
H    -1.643660  1.120599  5.558228
H    -1.932443  -0.606582  5.747243
H    -2.764141  -2.521280  4.876099
H    -1.450217  -2.727836  3.693506
H    -3.077932  -3.309194  3.330166
N    -2.305199  3.610121  3.889271
C    -1.691369  4.829266  4.434021
H    -3.319597  3.538048  3.935294
H    -1.413834  4.672935  5.484721
H    -2.421934  5.640190  4.367392
H    -0.797001  5.081558  3.856390
Hg    0.544724  0.996207  2.333770
