32
Energy: -570099.163084 eV PBE+vdW (tier 2 basis)
C    0.346138  -0.560721  0.445561
C    0.200407  0.308318  1.642955
O    1.098482  0.983263  2.119762
H    -0.514670  -0.476868  -0.231422
H    0.375268  -1.610655  0.790359
H    1.282349  -0.335334  -0.073451
N    -1.098996  0.331750  2.356631
C    -2.263779  1.017361  1.744087
C    -2.206708  2.555452  1.967645
O    -1.708297  3.108378  3.000488
H    -1.383982  -0.617076  2.636076
H    -2.226006  0.867926  0.651031
C    -3.588859  0.381596  2.284209
C    -4.806415  0.806954  1.436286
C    -3.797646  0.613502  3.784691
C    -6.025453  -0.101150  1.626503
H    -3.448471  -0.701506  2.104921
H    -4.526213  0.788006  0.367611
H    -5.088957  1.843244  1.681690
H    -2.967504  0.245395  4.406579
H    -4.683163  0.063029  4.122000
H    -3.967577  1.673194  4.019293
H    -6.833146  0.211913  0.954835
H    -6.421570  -0.055572  2.648089
H    -5.788957  -1.148045  1.394378
N    -2.788663  3.302627  1.047353
C    -2.949105  4.758379  1.129534
H    -3.263028  2.821759  0.284100
H    -3.005363  5.154795  0.111326
H    -2.094363  5.191180  1.657832
H    -3.872070  5.010765  1.668694
Hg    -0.200024  1.828203  4.041978
