32
Energy: -570099.446351 eV PBE+vdW (tier 2 basis)
C    0.046971  -0.180863  0.019829
C    0.151682  -0.245719  1.514507
O    1.267800  -0.684152  1.955184
H    -0.965334  0.056000  -0.326211
H    0.362627  -1.144251  -0.401967
H    0.752373  0.577098  -0.350058
N    -0.901789  0.166335  2.236475
C    -1.274445  0.084105  3.678690
C    -0.579586  1.191374  4.510922
O    0.621796  1.085621  4.955931
H    -1.666375  0.493884  1.651362
H    -2.339172  0.347940  3.670460
C    -1.233401  -1.303918  4.371084
C    -1.922882  -2.429984  3.555352
C    -1.839783  -1.160192  5.772479
C    -1.082691  -3.173925  2.520239
H    -0.174753  -1.663267  4.510279
H    -2.833454  -2.016448  3.089826
H    -2.274142  -3.158141  4.299319
H    -2.912075  -0.923610  5.702552
H    -1.356456  -0.387470  6.384880
H    -1.753617  -2.107386  6.317063
H    -1.615140  -4.073589  2.187247
H    -0.127594  -3.518247  2.945483
H    -0.871742  -2.591058  1.616061
N    -1.242338  2.288068  4.825807
C    -2.637619  2.645489  4.525937
H    -0.712594  2.953575  5.393334
H    -2.798196  3.665512  4.886643
H    -3.337385  1.982412  5.049501
H    -2.827503  2.636071  3.446575
Hg    1.747057  -0.574858  4.074452
