32
Energy: -570099.641577 eV PBE+vdW (tier 2 basis)
C    -0.836145  0.640730  -0.222281
C    -0.807209  0.599354  1.272332
O    -0.748995  1.745161  1.848475
H    -1.805868  1.058311  -0.536159
H    -0.722602  -0.355972  -0.665021
H    -0.055357  1.315016  -0.593466
N    -0.852541  -0.593089  1.888905
C    -1.303979  -0.923519  3.261136
C    -0.094551  -1.075560  4.219280
O    0.342196  -0.076014  4.914997
H    -0.857749  -1.386283  1.248687
H    -1.883704  -0.063321  3.644669
C    -2.292253  -2.120213  3.258566
C    -3.452871  -1.871363  2.264349
C    -2.807135  -2.359900  4.685282
C    -4.449393  -3.029014  2.176274
H    -1.745608  -3.018732  2.905445
H    -3.053098  -1.686795  1.254781
H    -3.977829  -0.947754  2.562703
H    -2.009708  -2.468374  5.431850
H    -3.398236  -3.281048  4.719482
H    -3.464137  -1.539534  5.007509
H    -5.180709  -2.828863  1.384302
H    -5.013001  -3.167108  3.106084
H    -3.950644  -3.976820  1.931550
N    0.497895  -2.239855  4.350346
C    1.650465  -2.517203  5.216550
H    0.053283  -3.036306  3.893757
H    2.230502  -3.329098  4.767390
H    1.303656  -2.826148  6.211866
H    2.264557  -1.617368  5.311241
Hg    -0.217781  1.775133  3.943747
