32
Energy: -570098.796526 eV PBE+vdW (tier 2 basis)
C    0.058722  0.375018  0.237368
C    -0.293613  -0.129585  1.590841
O    0.535248  -0.725174  2.367923
H    0.778867  1.203882  0.337616
H    -0.808910  0.742907  -0.319869
H    0.552876  -0.422411  -0.333565
N    -1.541556  -0.013762  2.055498
C    -1.934620  -0.423445  3.395228
C    -3.472901  -0.420899  3.357021
O    -4.013411  0.280679  2.492771
H    -2.308584  0.348652  1.470370
H    -1.522780  -1.416614  3.601728
C    -1.355008  0.641878  4.457947
C    -0.541992  -0.093253  5.566611
C    -2.383271  1.626236  4.998247
C    0.763634  0.591021  5.893861
H    -0.633160  1.228247  3.869266
H    -0.348268  -1.143200  5.306036
H    -1.164884  -0.118602  6.478179
H    -2.891469  2.184530  4.199662
H    -1.872872  2.374317  5.621127
H    -3.145103  1.139963  5.621613
H    1.329986  0.057530  6.669991
H    0.652030  1.647835  6.169021
H    1.480043  0.590556  5.008650
N    -4.198501  -1.137211  4.240517
C    -3.770176  -2.197207  5.136747
H    -5.207471  -1.037369  4.098499
H    -3.964957  -3.186975  4.694010
H    -4.357682  -2.126733  6.062436
H    -2.708553  -2.109526  5.379043
Hg    2.536649  0.136642  2.980143
