32
Energy: -570099.623036 eV PBE+vdW (tier 2 basis)
C    -0.708241  -0.126238  -0.294446
C    -0.441632  0.142872  1.150977
O    0.416034  1.073146  1.384149
H    -1.363069  -0.992711  -0.441817
H    0.239811  -0.266154  -0.828353
H    -1.194368  0.762587  -0.726939
N    -1.090858  -0.579460  2.078669
C    -1.455312  -0.242531  3.478384
C    -0.527612  -0.910861  4.529238
O    0.625166  -0.398788  4.836571
H    -1.684965  -1.312663  1.689554
H    -1.291805  0.842045  3.619588
C    -2.983512  -0.468645  3.679040
C    -3.494660  -1.838986  3.160285
C    -3.758601  0.700168  3.055208
C    -4.779931  -2.299363  3.857782
H    -3.139251  -0.422342  4.770275
H    -2.733778  -2.635747  3.262485
H    -3.693356  -1.764360  2.076838
H    -3.593602  0.767161  1.970043
H    -3.488076  1.662150  3.510488
H    -4.835154  0.565064  3.207885
H    -5.120539  -3.254427  3.441905
H    -5.593862  -1.576301  3.727916
H    -4.628098  -2.439370  4.937348
N    -0.918304  -1.975338  5.186559
C    -0.146305  -2.656711  6.235084
H    -1.855044  -2.323572  4.986205
H    -0.475121  -3.698833  6.279280
H    -0.328667  -2.174927  7.204803
H    0.920972  -2.607412  6.000574
Hg    1.218740  1.045545  3.370422
