32
Energy: -570098.876807 eV PBE+vdW (tier 2 basis)
C    -1.464129  1.088178  -0.319774
C    -0.686404  0.742039  0.900208
O    0.492551  1.130043  1.135127
H    -2.540748  1.162178  -0.128592
H    -1.300330  0.314439  -1.086373
H    -1.102531  2.033832  -0.736966
N    -1.175805  -0.113605  1.845987
C    -2.209895  -1.077047  1.721739
C    -2.967166  -1.009424  3.164389
O    -2.250478  -1.048559  4.148159
H    -0.581113  -0.208713  2.680071
H    -2.883738  -0.804952  0.902506
C    -1.728653  -2.579043  1.582085
C    -0.967095  -2.660772  0.231743
C    -2.876948  -3.577802  1.682792
C    -0.347941  -4.048320  0.017486
H    -1.030982  -2.743254  2.420386
H    -0.170362  -1.900571  0.235312
H    -1.642427  -2.427126  -0.607259
H    -3.410873  -3.514496  2.638822
H    -3.592725  -3.470343  0.856207
H    -2.478044  -4.597599  1.633396
H    0.311524  -3.980576  -0.864434
H    -1.091516  -4.822687  -0.198483
H    0.261823  -4.365214  0.872408
N    -4.299512  -0.881742  3.147095
C    -5.222804  -0.806846  2.016880
H    -4.689232  -0.696675  4.073635
H    -5.231313  0.193814  1.561914
H    -6.228342  -1.006644  2.402741
H    -4.992727  -1.567919  1.265179
Hg    1.425894  3.280609  0.854571
