32
Energy: -570099.499396 eV PBE+vdW (tier 2 basis)
C    0.551452  -0.535615  -0.066429
C    0.381540  -0.432644  1.418459
O    1.457968  -0.637558  2.089033
H    -0.388126  -0.411012  -0.615354
H    0.976372  -1.522713  -0.300044
H    1.284171  0.212690  -0.398247
N    -0.836726  -0.125599  1.895001
C    -1.594041  -0.249367  3.196119
C    -1.353488  0.862109  4.238601
O    -0.280954  1.017297  4.948692
H    -1.483637  0.059266  1.131435
H    -2.616041  -0.063850  2.842370
C    -1.687977  -1.690724  3.795583
C    -2.909524  -1.774692  4.744787
C    -0.448205  -2.274170  4.485831
C    -4.272366  -1.508638  4.105347
H    -1.908329  -2.319825  2.916934
H    -2.750278  -1.121227  5.619116
H    -2.911222  -2.795843  5.152119
H    -0.187308  -1.743572  5.418724
H    0.420351  -2.391144  3.814353
H    -0.660730  -3.302606  4.814001
H    -5.072950  -1.723486  4.823101
H    -4.443198  -2.148776  3.228993
H    -4.427499  -0.463953  3.788820
N    -2.363094  1.667208  4.501646
C    -2.350682  2.720166  5.524617
H    -3.241714  1.501881  4.014616
H    -2.567814  2.290404  6.511514
H    -3.120085  3.454134  5.269590
H    -1.367060  3.199061  5.548795
Hg    1.383909  -0.031020  4.129255
