32
Energy: -570099.627349 eV PBE+vdW (tier 2 basis)
C    0.135204  0.335662  0.203585
C    0.095244  0.266807  1.696907
O    1.054510  0.878033  2.294621
H    -0.064804  1.375168  -0.100349
H    -0.613384  -0.317164  -0.260470
H    1.139590  0.079633  -0.154402
N    -0.910125  -0.397298  2.289549
C    -1.446343  -0.260428  3.662426
C    -0.876353  -1.322146  4.635359
O    0.163926  -1.065467  5.366772
H    -1.549735  -0.852549  1.638597
H    -1.090928  0.704221  4.064469
C    -2.996368  -0.098756  3.618536
C    -3.557959  0.276665  5.007099
C    -3.782454  -1.258236  2.984242
C    -2.928827  1.504116  5.668253
H    -3.125131  0.782637  2.966593
H    -3.500055  -0.592264  5.683110
H    -4.632890  0.456584  4.863485
H    -3.337215  -1.688623  2.073510
H    -4.772443  -0.891072  2.686006
H    -3.989485  -2.080406  3.687581
H    -1.895301  1.332639  6.009437
H    -3.495850  1.782242  6.564297
H    -2.936426  2.378318  5.001492
N    -1.460038  -2.489213  4.770421
C    -1.019369  -3.561658  5.670237
H    -2.339934  -2.620592  4.269970
H    -1.497260  -3.445736  6.652324
H    0.066674  -3.518117  5.791787
H    -1.316830  -4.519995  5.233968
Hg    1.345878  0.447737  4.386739
