32
Energy: -570099.43128 eV PBE+vdW (tier 2 basis)
C    1.003422  0.204871  0.012003
C    0.737550  -0.549715  1.279808
O    1.621769  -1.419936  1.588673
H    1.884013  0.846509  0.160068
H    0.150835  0.810662  -0.313367
H    1.263435  -0.512471  -0.778137
N    -0.374921  -0.247917  1.967847
C    -1.186029  -0.904729  3.038911
C    -0.715281  -0.590768  4.462731
O    0.505264  -0.686415  4.863146
H    -0.886270  0.515212  1.531538
H    -2.141690  -0.378111  2.926942
C    -1.592407  -2.410257  2.823284
C    -0.595665  -3.516417  3.245740
C    -2.108870  -2.604647  1.393622
C    -1.202363  -4.927477  3.341646
H    -2.448263  -2.521916  3.512867
H    -0.210454  -3.297588  4.269206
H    0.231481  -3.576972  2.507254
H    -1.294672  -2.603702  0.656214
H    -2.829546  -1.825240  1.111760
H    -2.628869  -3.564237  1.303462
H    -0.465107  -5.643061  3.723538
H    -1.525617  -5.285505  2.357569
H    -2.060056  -4.932809  4.026648
N    -1.602800  -0.203446  5.364622
C    -3.011207  0.177579  5.181602
H    -1.212284  -0.076417  6.301290
H    -3.586396  -0.634893  4.723051
H    -3.097601  1.094656  4.584672
H    -3.431437  0.373817  6.171961
Hg    1.774035  -2.011661  3.676830
