32
Energy: -570099.226945 eV PBE+vdW (tier 2 basis)
C    0.152861  0.139690  0.069700
C    0.113109  0.215409  1.564742
O    1.147244  0.737671  2.111324
H    1.122792  -0.253235  -0.257403
H    0.058524  1.159271  -0.333877
H    -0.659251  -0.480347  -0.328547
N    -0.971059  -0.248185  2.204683
C    -1.340679  0.005547  3.600472
C    -0.665712  -0.957850  4.612129
O    0.169009  -0.440154  5.462931
H    -1.717498  -0.605857  1.606904
H    -0.885491  0.976837  3.869524
C    -2.857517  0.324554  3.815990
C    -3.916859  -0.729397  3.422372
C    -3.143305  1.698045  3.181355
C    -4.040363  -1.119844  1.944876
H    -2.933907  0.449359  4.909508
H    -4.874402  -0.288254  3.735219
H    -3.814746  -1.623717  4.049391
H    -2.493100  2.482376  3.593016
H    -4.177912  1.991305  3.394446
H    -3.026251  1.697105  2.089365
H    -4.951453  -1.710312  1.788663
H    -3.223310  -1.767609  1.578109
H    -4.120071  -0.248537  1.280931
N    -0.867198  -2.255504  4.721326
C    -1.726703  -3.181360  3.987484
H    -0.315371  -2.680290  5.473540
H    -1.116466  -4.053054  3.717293
H    -2.124614  -2.721516  3.083440
H    -2.550018  -3.521603  4.628468
Hg    1.432256  0.921855  4.286797
