32
Energy: -570099.182892 eV PBE+vdW (tier 2 basis)
C    -0.932981  1.264170  -0.178213
C    -0.785518  0.973310  1.272966
O    -0.474454  1.797733  2.116814
H    -1.835463  0.800049  -0.598479
H    -0.072785  0.813635  -0.705837
H    -0.927915  2.344512  -0.349130
N    -0.966839  -0.418652  1.741586
C    -2.314640  -1.031491  1.781555
C    -3.128689  -0.499702  2.991571
O    -2.615268  -0.302735  4.138240
H    -0.348320  -1.071049  1.230567
H    -2.871663  -0.744461  0.871654
C    -2.152642  -2.585170  1.820219
C    -1.478042  -3.083570  0.519754
C    -3.491816  -3.289054  2.067041
C    -1.060698  -4.554614  0.554861
H    -1.485188  -2.806434  2.673907
H    -0.562411  -2.497820  0.294235
H    -2.158016  -2.900230  -0.328364
H    -3.933916  -3.035612  3.038188
H    -3.337749  -4.373218  2.071654
H    -4.220608  -3.073626  1.271503
H    -0.508946  -4.809811  -0.357647
H    -1.926810  -5.225579  0.601369
H    -0.410217  -4.774115  1.412025
N    -4.425729  -0.326390  2.811574
C    -5.374885  0.042214  3.867178
H    -4.813590  -0.595958  1.908584
H    -6.216258  0.566993  3.404685
H    -4.878078  0.689744  4.595584
H    -5.745007  -0.857577  4.377230
Hg    -0.421354  0.194699  4.014371
