32
Energy: -570099.480071 eV PBE+vdW (tier 2 basis)
C    0.092580  0.367999  -0.159522
C    -0.725702  0.046041  1.054453
O    -1.818607  -0.579228  0.800099
H    0.998924  0.937349  0.073381
H    -0.529402  0.949487  -0.855241
H    0.357821  -0.566391  -0.672682
N    -0.244074  0.413911  2.252825
C    -0.754748  0.613779  3.661171
C    -0.938611  -0.663272  4.509464
O    -1.915492  -1.506189  4.399029
H    0.675825  0.837443  2.153285
H    0.112938  1.109098  4.115776
C    -1.894115  1.672108  3.831032
C    -1.991648  2.038746  5.332109
C    -3.268534  1.357125  3.228694
C    -2.826054  3.290794  5.612993
H    -1.504093  2.555347  3.297451
H    -0.973116  2.204834  5.720987
H    -2.406943  1.185785  5.895582
H    -3.249491  1.197483  2.139796
H    -3.936520  2.220266  3.360052
H    -3.795670  0.542897  3.765343
H    -2.760291  3.550364  6.675980
H    -3.890017  3.148853  5.386616
H    -2.462835  4.154242  5.039778
N    -0.088287  -0.858309  5.497845
C    -0.160285  -1.963157  6.461076
H    0.626475  -0.151615  5.658148
H    -0.827633  -1.695058  7.291096
H    0.845976  -2.146726  6.848567
H    -0.544272  -2.859468  5.965264
Hg    -2.833070  -1.423335  2.472587
