32
Energy: -570099.526268 eV PBE+vdW (tier 2 basis)
C    0.112737  2.143904  1.266826
C    0.033812  1.082008  2.320435
O    1.128264  0.872643  2.950137
H    -0.854686  2.354082  0.797609
H    0.827886  1.824276  0.495483
H    0.511912  3.063369  1.714715
N    -1.145768  0.471382  2.501993
C    -1.680412  -0.656283  3.325397
C    -1.700062  -0.314823  4.822129
O    -0.641843  -0.161375  5.506661
H    -1.853274  0.841117  1.872498
H    -2.727169  -0.657331  3.002424
C    -1.182892  -2.146194  2.970011
C    -0.634356  -3.050790  4.116771
C    -0.349245  -2.207897  1.685749
C    0.862960  -3.159168  4.392978
H    -2.138063  -2.632564  2.729947
H    -0.915642  -4.075692  3.821190
H    -1.179330  -2.880794  5.055234
H    -0.176654  -3.255778  1.407986
H    0.638143  -1.727886  1.766148
H    -0.868223  -1.739993  0.840841
H    1.106399  -4.032153  5.027031
H    1.298838  -2.412961  5.190173
H    1.510883  -3.223075  3.510316
N    -2.887912  -0.206995  5.400997
C    -3.090668  0.083883  6.824282
H    -3.719037  -0.282003  4.820336
H    -4.002769  -0.420159  7.158044
H    -3.196655  1.165714  6.977369
H    -2.231420  -0.277195  7.395964
Hg    1.309056  -0.629659  4.436488
