32
Energy: -570099.30444 eV PBE+vdW (tier 2 basis)
C    0.838817  0.503560  0.517939
C    0.753395  0.299844  2.000447
O    1.773512  -0.282852  2.514970
H    -0.067413  0.948394  0.092824
H    1.018703  -0.471196  0.042065
H    1.709204  1.134472  0.291377
N    -0.344803  0.744619  2.633938
C    -1.038594  0.508816  3.955091
C    -0.470063  1.342397  5.117476
O    0.629110  1.075496  5.749735
H    -0.968375  1.219398  1.985261
H    -2.015959  0.957738  3.748589
C    -1.405243  -0.985863  4.258488
C    -2.655222  -1.064736  5.177736
C    -0.304696  -1.941684  4.739230
C    -2.454345  -0.830708  6.676206
H    -1.735142  -1.346422  3.270623
H    -3.074047  -2.071316  5.033600
H    -3.423842  -0.381382  4.781927
H    0.475844  -2.125375  3.979321
H    -0.733512  -2.941342  4.909343
H    0.116710  -1.665647  5.721675
H    -3.417132  -0.926171  7.192520
H    -2.061925  0.165009  6.923443
H    -1.784982  -1.572416  7.130169
N    -1.149297  2.378692  5.574885
C    -2.492060  2.860833  5.222524
H    -0.699838  2.846497  6.366510
H    -2.604324  3.861849  5.649270
H    -3.264712  2.207983  5.648338
H    -2.613605  2.940835  4.136961
Hg    1.965374  -0.181615  4.646116
