32
Energy: -570099.198592 eV PBE+vdW (tier 2 basis)
C    -0.856736  1.600879  -0.184223
C    -0.810933  1.195744  1.246114
O    -0.484609  1.932411  2.162832
H    -1.785483  1.269299  -0.669002
H    -0.029218  1.096087  -0.713695
H    -0.732468  2.683827  -0.273251
N    -1.125086  -0.204870  1.601648
C    -2.511066  -0.715848  1.515460
C    -3.370150  -0.204144  2.701322
O    -2.922992  -0.104163  3.888185
H    -0.516093  -0.873802  1.100351
H    -2.979775  -0.335246  0.591210
C    -2.468573  -2.277520  1.476161
C    -1.553838  -2.792669  0.337115
C    -3.878557  -2.879167  1.397275
C    -1.958082  -2.416989  -1.088679
H    -2.017788  -2.596991  2.433181
H    -1.531334  -3.887661  0.438493
H    -0.494757  -2.516522  0.519219
H    -3.800895  -3.966400  1.279055
H    -4.449077  -2.504675  0.535906
H    -4.462073  -2.705240  2.309391
H    -1.261999  -2.866157  -1.806722
H    -1.943391  -1.331329  -1.273905
H    -2.959778  -2.783960  -1.342477
N    -4.641114  0.056258  2.453147
C    -5.634432  0.421243  3.468825
H    -4.983208  -0.133993  1.512242
H    -6.412569  1.021690  2.988037
H    -5.149888  0.995002  4.264276
H    -6.087705  -0.481752  3.899879
Hg    -0.695160  0.216643  3.940332
