32
Energy: -570099.103573 eV PBE+vdW (tier 2 basis)
C    -0.473318  0.068381  -0.824764
C    -0.009103  0.386565  0.551102
O    1.141042  0.680041  0.839037
H    -1.448446  0.522317  -1.045433
H    -0.614442  -1.026233  -0.888259
H    0.280562  0.368719  -1.558264
N    -0.967910  0.284845  1.673216
C    -2.070522  1.267524  1.802038
C    -1.648883  2.527280  2.607681
O    -0.691672  2.548521  3.451066
H    -1.381444  -0.659476  1.710081
H    -2.333328  1.627890  0.794172
C    -3.320779  0.577934  2.436530
C    -3.052548  0.076337  3.871241
C    -3.849897  -0.506772  1.489614
C    -4.310436  -0.422278  4.589561
H    -4.087531  1.365573  2.498132
H    -2.608596  0.889543  4.468009
H    -2.308852  -0.741388  3.853583
H    -3.998357  -0.133998  0.467038
H    -4.819748  -0.873389  1.843383
H    -3.198287  -1.396987  1.444250
H    -5.091340  0.349790  4.609128
H    -4.074730  -0.678939  5.628683
H    -4.729532  -1.320505  4.120902
N    -2.356616  3.636101  2.462460
C    -3.542939  3.907206  1.645054
H    -2.054218  4.400411  3.070792
H    -3.449752  4.923856  1.246400
H    -4.451561  3.848975  2.258014
H    -3.623864  3.214456  0.803013
Hg    0.754236  0.866083  3.258759
