32
Energy: -570099.059462 eV PBE+vdW (tier 2 basis)
C    0.431583  0.904597  0.999041
C    -0.222371  -0.145211  1.830900
O    0.416775  -1.021571  2.492503
H    0.988705  1.586741  1.662855
H    -0.282232  1.500634  0.421114
H    1.154419  0.438145  0.316768
N    -1.570079  -0.208764  1.857933
C    -2.365279  -1.185388  2.546979
C    -3.420882  -1.667103  1.483066
O    -3.828219  -0.835673  0.678854
H    -2.093750  0.345657  1.168383
H    -1.723994  -2.003035  2.895844
C    -3.190371  -0.557961  3.765063
C    -2.177425  0.022279  4.786870
C    -4.159813  -1.559406  4.386099
C    -1.309033  -0.934458  5.588749
H    -3.758172  0.281184  3.334930
H    -2.839773  0.559194  5.494466
H    -1.565846  0.794187  4.298025
H    -4.567483  -1.131417  5.312295
H    -3.676820  -2.507020  4.662451
H    -5.017948  -1.772428  3.739330
H    -0.742228  -0.379203  6.348870
H    -0.559805  -1.447229  4.958923
H    -1.892292  -1.695118  6.120619
N    -3.783770  -2.961084  1.515693
C    -4.623353  -3.560723  0.487912
H    -3.352830  -3.571880  2.206139
H    -4.019299  -3.961287  -0.342097
H    -5.295481  -2.792372  0.086706
H    -5.181399  -4.390437  0.938211
Hg    2.468531  -0.640319  3.514861
