32
Energy: -570099.484759 eV PBE+vdW (tier 2 basis)
C    -2.010137  -0.155172  -0.431592
C    -1.428086  0.201567  0.904179
O    -0.341959  -0.410522  1.189900
H    -2.994686  0.293022  -0.603783
H    -2.091407  -1.248502  -0.500967
H    -1.312864  0.163308  -1.219220
N    -2.075514  1.117372  1.640297
C    -2.071819  1.584504  3.062509
C    -0.924326  2.538135  3.445983
O    0.329348  2.310444  3.325202
H    -2.888522  1.473819  1.144006
H    -2.948647  2.244885  3.054699
C    -2.493928  0.522111  4.148035
C    -1.659363  -0.753050  4.405785
C    -3.946643  0.108124  3.841613
C    -0.384077  -0.676128  5.239663
H    -2.501977  1.107805  5.083942
H    -1.513061  -1.329956  3.479647
H    -2.327182  -1.396818  5.000918
H    -4.009681  -0.527019  2.947045
H    -4.602215  0.976989  3.695016
H    -4.358342  -0.469020  4.677495
H    -0.070587  -1.669006  5.585927
H    -0.457734  0.008103  6.096543
H    0.574909  -0.299997  4.728698
N    -1.288151  3.695597  3.975887
C    -0.352108  4.708826  4.476188
H    -2.277346  3.931351  3.992588
H    -0.877331  5.332731  5.204844
H    0.005071  5.336071  3.649078
H    0.503967  4.218137  4.949309
Hg    0.914218  0.264664  2.807099
