32
Energy: -570099.415199 eV PBE+vdW (tier 2 basis)
C    -0.336512  1.386117  0.042379
C    -0.815952  0.976548  1.400434
O    -1.207991  1.935437  2.152118
H    -1.214294  1.648083  -0.569034
H    0.214633  0.579217  -0.455919
H    0.290761  2.281339  0.119851
N    -0.814335  -0.329113  1.713264
C    -1.544559  -1.003905  2.797434
C    -0.730229  -1.002307  4.119736
O    -1.107506  -0.237796  5.092126
H    -0.498717  -0.938626  0.960236
H    -2.437870  -0.393497  3.032820
C    -2.122980  -2.382582  2.376837
C    -3.217411  -2.252248  1.285993
C    -2.704129  -3.089774  3.611329
C    -2.783585  -1.888010  -0.136265
H    -1.302091  -2.991468  1.962739
H    -3.998890  -1.559835  1.640677
H    -3.702901  -3.237851  1.252175
H    -3.550858  -2.530365  4.034209
H    -1.975008  -3.255540  4.415403
H    -3.084841  -4.075143  3.319238
H    -3.605998  -2.088691  -0.834100
H    -1.933660  -2.498201  -0.477764
H    -2.535936  -0.825984  -0.267361
N    0.330616  -1.755042  4.340506
C    0.917876  -2.828200  3.534416
H    0.738664  -1.623218  5.270189
H    0.411693  -3.783374  3.728645
H    1.967869  -2.922810  3.830322
H    0.875931  -2.591259  2.468595
Hg    -1.828009  1.645307  4.234685
