32
Energy: -570098.73184 eV PBE+vdW (tier 2 basis)
C    -1.209940  1.641117  0.761839
C    -0.560385  0.539675  1.517433
O    0.689597  0.341040  1.376804
H    -1.521120  1.284837  -0.232446
H    -0.458292  2.424599  0.595981
H    -2.072945  2.061059  1.285605
N    -1.206290  -0.250785  2.435119
C    -2.433931  -1.005437  2.224721
C    -1.967071  -2.138199  1.208714
O    -1.232295  -1.769066  0.252200
H    -0.533385  -0.735614  3.035936
H    -2.649897  -1.499157  3.185449
C    -3.691800  -0.247315  1.765876
C    -4.068412  0.749919  2.897127
C    -4.842210  -1.216642  1.452650
C    -5.129258  1.760708  2.496017
H    -3.461883  0.305081  0.843318
H    -3.142459  1.267996  3.212981
H    -4.397211  0.192995  3.791114
H    -4.626976  -1.853840  0.585027
H    -5.745068  -0.650261  1.202018
H    -5.090291  -1.851627  2.316290
H    -5.276305  2.477665  3.319612
H    -6.120860  1.314767  2.326195
H    -4.854007  2.315283  1.588538
N    -2.325850  -3.386839  1.452099
C    -1.874103  -4.549777  0.687875
H    -2.969791  -3.554678  2.224726
H    -2.702216  -5.266066  0.629979
H    -1.030453  -5.041291  1.194638
H    -1.582466  -4.235619  -0.317928
Hg    1.159837  -1.637051  0.266985
