32
Energy: -570098.806825 eV PBE+vdW (tier 2 basis)
C    0.701994  -1.503902  0.477576
C    0.346538  -0.756682  1.709939
O    1.237341  0.003681  2.238943
H    0.929814  -0.807300  -0.342013
H    -0.070545  -2.223520  0.189848
H    1.639544  -2.049576  0.676210
N    -0.857185  -0.867122  2.316814
C    -2.199512  -0.813440  1.730459
C    -2.513784  0.675873  1.462001
O    -2.081783  1.635691  2.228031
H    -0.847085  -0.662449  3.320257
H    -2.197756  -1.366973  0.782612
C    -3.199023  -1.495512  2.732452
C    -4.528707  -1.919735  2.084785
C    -3.425402  -0.668563  4.003498
C    -4.416499  -3.017070  1.026668
H    -2.664077  -2.422161  3.004954
H    -5.067229  -1.037918  1.703132
H    -5.162337  -2.290624  2.903219
H    -4.027509  0.230841  3.815511
H    -3.969034  -1.276430  4.736462
H    -2.499385  -0.351838  4.511780
H    -3.791863  -2.745488  0.159962
H    -5.405696  -3.271373  0.627652
H    -3.991770  -3.935819  1.452392
N    -3.308809  1.069068  0.481767
C    -4.095128  0.307341  -0.486809
H    -3.423003  2.086797  0.436601
H    -3.885799  0.717723  -1.483949
H    -5.165987  0.433706  -0.279984
H    -3.844013  -0.753921  -0.461123
Hg    0.005403  1.736985  2.953067
