32
Energy: -570098.709425 eV PBE+vdW (tier 2 basis)
C    -0.150307  1.516075  0.523076
C    -0.372133  1.194820  1.973164
O    0.556947  1.519292  2.780539
H    -0.838998  2.315055  0.208130
H    -0.321089  0.629479  -0.102816
H    0.876311  1.863481  0.378125
N    -1.485368  0.576835  2.388788
C    -2.607583  0.130463  1.598800
C    -3.817920  0.241140  2.547185
O    -3.614177  0.129893  3.759198
H    -1.633130  0.436461  3.398046
H    -2.694364  0.733280  0.688717
C    -2.413684  -1.421683  1.148678
C    -3.410465  -1.788313  0.044801
C    -2.417845  -2.368705  2.335348
C    -2.984583  -3.056922  -0.705889
H    -1.399980  -1.393338  0.710748
H    -3.483826  -0.975818  -0.698393
H    -4.416295  -1.919091  0.474839
H    -3.408047  -2.471954  2.800843
H    -2.137747  -3.374470  1.983571
H    -1.689000  -2.104457  3.111099
H    -3.674937  -3.237202  -1.539944
H    -2.990796  -3.932670  -0.042147
H    -1.974963  -2.977324  -1.136126
N    -5.075043  0.427951  2.068624
C    -5.520167  0.897557  0.771559
H    -5.771505  0.449705  2.820086
H    -5.736688  1.979069  0.804326
H    -6.460133  0.386329  0.519382
H    -4.776775  0.703848  -0.004574
Hg    0.626720  2.389395  4.908223
