32
Energy: -570099.215417 eV PBE+vdW (tier 2 basis)
C    -0.814019  -1.252405  0.380498
C    -0.444677  -0.682527  1.714983
O    0.740373  -0.208747  1.801657
H    -0.975437  -0.419486  -0.320960
H    -1.727734  -1.856978  0.434672
H    0.013680  -1.855504  -0.010016
N    -1.355941  -0.700730  2.701619
C    -1.286721  0.058810  3.949727
C    -0.413702  -0.621423  5.034052
O    0.629093  0.029407  5.450779
H    -2.268235  -1.078611  2.448450
H    -0.712662  0.976794  3.723622
C    -2.656924  0.667562  4.398323
C    -3.767126  -0.337865  4.759016
C    -3.087568  1.684492  3.326217
C    -5.095097  0.329766  5.133585
H    -2.404234  1.231146  5.312911
H    -3.440402  -0.941371  5.615465
H    -3.950581  -1.037321  3.921890
H    -2.271003  2.366942  3.051319
H    -3.904096  2.304966  3.708941
H    -3.455088  1.197378  2.411632
H    -5.794129  -0.424313  5.514214
H    -5.576850  0.816224  4.277961
H    -4.956134  1.079434  5.924237
N    -0.624645  -1.798667  5.590445
C    -1.664592  -2.808323  5.400136
H    0.086225  -2.038188  6.289216
H    -2.288807  -2.581545  4.536660
H    -2.289542  -2.879991  6.299433
H    -1.161562  -3.773191  5.251248
Hg    1.623857  0.730364  3.606775
