32
Energy: -570099.208968 eV PBE+vdW (tier 2 basis)
C    -0.328583  -0.762281  0.265470
C    0.109134  0.049634  1.429186
O    1.278413  0.351154  1.637556
H    -1.181432  -0.294116  -0.246152
H    -0.688376  -1.738778  0.634522
H    0.505885  -0.916813  -0.423891
N    -0.876377  0.489813  2.434221
C    -1.946121  1.442179  2.092854
C    -1.680662  2.872568  2.713359
O    -0.689286  3.194915  3.439672
H    -1.288936  -0.315944  2.931636
H    -1.898696  1.637092  1.007990
C    -3.351639  0.853319  2.444618
C    -3.434025  0.243989  3.857129
C    -3.783582  -0.154785  1.370412
C    -3.137782  1.174080  5.033333
H    -4.060895  1.694980  2.415562
H    -2.813078  -0.672846  3.923715
H    -4.456328  -0.148913  3.956886
H    -3.161222  -1.062144  1.378208
H    -3.761124  0.274419  0.359483
H    -4.812536  -0.481991  1.561378
H    -3.753186  2.083255  4.995907
H    -2.083217  1.484087  5.090428
H    -3.364417  0.672587  5.981455
N    -2.559181  3.802097  2.393395
C    -2.489045  5.200606  2.841842
H    -3.369622  3.526127  1.843819
H    -3.125499  5.800285  2.185640
H    -1.455253  5.555867  2.783218
H    -2.845303  5.286931  3.876204
Hg    0.898145  1.649108  3.632597
