32
Energy: -570098.772732 eV PBE+vdW (tier 2 basis)
C    0.151415  0.754756  -0.792641
C    0.131700  0.665717  0.690687
O    0.934111  1.388084  1.374002
H    -0.312802  1.696081  -1.124778
H    -0.339962  -0.100082  -1.268435
H    1.200336  0.801720  -1.120004
N    -0.697597  -0.166394  1.360430
C    -2.128156  -0.356850  1.113447
C    -2.754703  0.944035  1.677274
O    -2.254404  1.465841  2.739947
H    -0.458141  -0.273168  2.349356
H    -2.302905  -0.431924  0.032173
C    -2.646803  -1.638689  1.842607
C    -2.100584  -2.913645  1.167336
C    -4.176286  -1.679247  1.932282
C    -0.607820  -3.184075  1.282692
H    -2.250415  -1.578630  2.873265
H    -2.422493  -2.940412  0.112487
H    -2.642542  -3.751321  1.640764
H    -4.475673  -2.559505  2.513096
H    -4.603170  -0.809955  2.450243
H    -4.645099  -1.777803  0.944010
H    0.010746  -2.501059  0.675317
H    -0.372835  -4.188662  0.900588
H    -0.255013  -3.136716  2.322135
N    -3.793397  1.541578  1.108439
C    -4.687143  1.080175  0.052913
H    -4.039586  2.435510  1.545911
H    -4.872838  1.914382  -0.635578
H    -5.649312  0.773555  0.489955
H    -4.259298  0.233912  -0.488781
Hg    -0.188873  2.496047  3.034174
