32
Energy: -570099.424108 eV PBE+vdW (tier 2 basis)
C    -1.291801  -0.176194  -0.364987
C    -0.607582  -0.333367  0.959446
O    0.432658  -1.085095  0.929416
H    -2.193115  0.443964  -0.310704
H    -1.564250  -1.174689  -0.736659
H    -0.583975  0.251610  -1.087737
N    -1.122099  0.318236  2.014824
C    -1.035165  0.252566  3.523053
C    0.195595  0.949305  4.135580
O    1.401281  0.480573  4.139201
H    -1.913694  0.892235  1.733095
H    -1.874802  0.904105  3.797020
C    -1.446500  -1.122638  4.152624
C    -1.865319  -0.938416  5.636960
C    -0.508633  -2.324225  3.974719
C    -0.757613  -0.904826  6.692659
H    -2.370610  -1.360891  3.601059
H    -2.540423  -1.775310  5.867545
H    -2.497738  -0.039100  5.718398
H    -0.385482  -2.631893  2.924631
H    -0.946108  -3.207263  4.465390
H    0.461756  -2.202607  4.494337
H    -1.204565  -0.761718  7.683741
H    -0.031445  -0.092342  6.553929
H    -0.196765  -1.846981  6.739028
N    -0.011587  2.081985  4.778903
C    1.022081  2.835731  5.496854
H    -0.969290  2.416519  4.859872
H    0.699794  3.878287  5.569488
H    1.970085  2.770304  4.954493
H    1.154523  2.423052  6.506470
Hg    1.706198  -1.020330  2.643829
