32
Energy: -570098.690182 eV PBE+vdW (tier 2 basis)
C    -0.147088  0.247188  -0.068238
C    -0.115969  0.309626  1.432688
O    1.043200  0.338112  1.965601
H    -0.512382  1.205334  -0.468624
H    -0.812470  -0.559055  -0.406364
H    0.861098  0.068785  -0.451913
N    -1.238683  0.318125  2.154596
C    -2.607298  0.267417  1.687365
C    -3.392038  1.025466  2.775283
O    -2.902871  1.088136  3.908677
H    -1.191101  0.464068  3.175257
H    -2.682508  0.710886  0.687345
C    -3.123358  -1.267292  1.582090
C    -4.299643  -1.401547  0.608391
C    -3.384931  -1.885993  2.946843
C    -4.022277  -1.035215  -0.844366
H    -2.246537  -1.759849  1.126714
H    -5.195063  -0.889067  0.992935
H    -4.573515  -2.471950  0.650802
H    -3.496674  -2.974421  2.832366
H    -2.562183  -1.738908  3.659270
H    -4.311011  -1.516325  3.407088
H    -4.893806  -1.264437  -1.470830
H    -3.172382  -1.601130  -1.250623
H    -3.814574  0.036325  -1.004635
N    -4.595809  1.598599  2.518375
C    -5.240323  1.909405  1.261544
H    -5.001500  2.028836  3.355373
H    -5.290098  3.001977  1.122374
H    -6.281124  1.546122  1.293594
H    -4.721785  1.457957  0.414584
Hg    1.901620  1.328710  3.828230
