32
Energy: -570098.830661 eV PBE+vdW (tier 2 basis)
C    0.385791  0.970092  0.722279
C    -0.188938  -0.031303  1.667701
O    0.681823  -0.467070  2.550169
H    0.675982  1.873031  1.277847
H    -0.331478  1.229360  -0.065310
H    1.298384  0.559977  0.267950
N    -1.443934  -0.401736  1.558920
C    -2.257318  -1.425925  2.227752
C    -3.377736  -1.678659  1.142382
O    -3.573262  -0.759392  0.344582
H    -2.029098  -0.003512  0.787121
H    -1.663393  -2.348952  2.346926
C    -2.851509  -0.896551  3.594558
C    -3.103766  -1.975073  4.677434
C    -4.090018  -0.014882  3.399873
C    -1.934593  -2.818194  5.159646
H    -2.079722  -0.212631  4.025891
H    -3.865620  -2.689265  4.323619
H    -3.548574  -1.463434  5.540798
H    -3.909813  0.789392  2.677186
H    -4.377154  0.448970  4.350852
H    -4.945012  -0.601776  3.037852
H    -2.108306  -3.347269  6.117389
H    -1.065938  -2.169359  5.656846
H    -1.551131  -3.582187  4.467053
N    -4.070073  -2.825249  1.136989
C    -3.883149  -4.053110  1.899500
H    -4.793176  -2.843531  0.416848
H    -3.991125  -4.910256  1.224819
H    -4.630381  -4.153376  2.698744
H    -2.875214  -4.103934  2.325784
Hg    0.004484  -1.506659  4.197730
