32
Energy: -570098.839778 eV PBE+vdW (tier 2 basis)
C    0.627366  1.672894  -0.173733
C    0.502131  1.104734  1.192044
O    1.350231  1.475491  2.084966
H    0.509779  2.765408  -0.151324
H    -0.065285  1.206633  -0.881402
H    1.659065  1.488050  -0.517380
N    -0.437742  0.192264  1.523284
C    -1.881807  0.226167  1.257884
C    -2.495570  1.231725  2.248272
O    -2.066339  1.356316  3.469928
H    -0.185515  -0.407443  2.313745
H    -2.049291  0.566025  0.227882
C    -2.448755  -1.217506  1.447013
C    -1.777102  -2.181573  0.438036
C    -3.977838  -1.290123  1.406100
C    -2.039305  -1.898543  -1.040738
H    -2.135852  -1.525703  2.462695
H    -2.142658  -3.187446  0.692101
H    -0.691583  -2.218596  0.619654
H    -4.455179  -0.699046  2.198977
H    -4.390799  -0.985005  0.436997
H    -4.285223  -2.330078  1.568516
H    -3.107483  -1.916448  -1.290446
H    -1.553845  -2.665027  -1.656750
H    -1.628747  -0.932892  -1.376948
N    -3.549589  1.970569  1.942313
C    -4.402627  1.961352  0.755626
H    -3.857081  2.583269  2.704345
H    -4.577572  3.003994  0.459351
H    -5.370595  1.500319  0.994028
H    -3.936754  1.416587  -0.067568
Hg    0.090633  1.600189  3.936168
