32
Energy: -570099.443833 eV PBE+vdW (tier 2 basis)
C    -1.821728  -0.626495  0.315314
C    -1.174647  -0.190818  1.593435
O    -0.034225  -0.727954  1.824716
H    -1.929765  -1.720616  0.336413
H    -1.158200  -0.386145  -0.526252
H    -2.806173  -0.171335  0.159517
N    -1.821898  0.701044  2.360518
C    -1.711202  1.130162  3.790252
C    -0.714603  2.301551  3.961431
O    0.567638  2.146434  3.977981
H    -2.691622  1.008917  1.932106
H    -2.702964  1.551877  3.995053
C    -1.527331  0.027592  4.872158
C    -2.653954  -1.038947  4.875363
C    -1.433845  0.703803  6.248752
C    -2.717219  -2.066563  3.746448
H    -0.577425  -0.541749  4.708501
H    -3.617241  -0.508307  4.964721
H    -2.527861  -1.577796  5.824827
H    -0.600737  1.412505  6.338280
H    -1.294134  -0.057301  7.024861
H    -2.366960  1.235020  6.486843
H    -3.119810  -1.663542  2.809410
H    -3.389259  -2.883255  4.037511
H    -1.737940  -2.526746  3.549056
N    -1.160152  3.527526  4.148405
C    -2.546670  4.009132  4.253735
H    -0.426041  4.226354  4.286844
H    -3.148034  3.681322  3.398761
H    -2.514456  5.102415  4.242523
H    -3.004476  3.685006  5.196510
Hg    1.193931  0.175912  3.349007
