32
Energy: -570098.779599 eV PBE+vdW (tier 2 basis)
C    -0.627797  0.189015  -0.401543
C    -0.420195  0.186360  1.084537
O    0.738514  -0.117506  1.497796
H    -1.424640  0.892285  -0.682782
H    -0.933900  -0.820497  -0.716800
H    0.302567  0.446254  -0.915750
N    -1.461523  0.487025  1.878681
C    -1.648782  0.094540  3.276232
C    -3.200651  -0.148204  3.402589
O    -3.939412  0.617663  2.788850
H    -2.326563  0.790499  1.423554
H    -1.114719  -0.848077  3.462105
C    -1.220850  1.173282  4.313382
C    -1.428722  0.815995  5.784728
C    -1.567049  2.579838  3.909000
C    -2.765040  1.272428  6.402100
H    -0.028345  1.067713  4.200418
H    -0.631640  1.311137  6.363425
H    -1.270876  -0.263745  5.935127
H    -1.136619  2.869991  2.942847
H    -1.283277  3.312731  4.672919
H    -2.667996  2.651197  3.784272
H    -2.871583  2.362916  6.414858
H    -2.799762  0.931297  7.443812
H    -3.627786  0.853534  5.867566
N    -3.611421  -1.185508  4.150282
C    -5.015544  -1.574235  4.243367
H    -2.914599  -1.818615  4.535460
H    -5.280371  -2.289021  3.449075
H    -5.641280  -0.681631  4.129718
H    -5.181145  -2.053929  5.214561
Hg    1.780314  0.419986  3.523254
