32
Energy: -570099.463737 eV PBE+vdW (tier 2 basis)
C    0.636655  0.687747  -0.059262
C    0.164870  0.116689  1.241607
O    0.480122  0.795969  2.280459
H    1.682447  1.004114  0.029361
H    0.038404  1.585301  -0.280435
H    0.525720  -0.025386  -0.885126
N    -0.543058  -1.024781  1.225195
C    -1.413493  -1.574575  2.278438
C    -0.639226  -2.507880  3.244764
O    -0.352999  -2.084836  4.435451
H    -0.698281  -1.406855  0.293268
H    -1.734269  -0.731426  2.919481
C    -2.743505  -2.133847  1.703738
C    -3.528731  -0.986046  1.023014
C    -3.552554  -2.800566  2.823509
C    -4.792458  -1.450284  0.297483
H    -2.501880  -2.884673  0.932592
H    -2.880600  -0.470196  0.296016
H    -3.790290  -0.236475  1.789406
H    -3.019193  -3.619938  3.323515
H    -4.471669  -3.230274  2.411392
H    -3.851272  -2.072191  3.591139
H    -5.250088  -0.604204  -0.229417
H    -5.549319  -1.844682  0.985634
H    -4.571433  -2.223674  -0.450641
N    -0.262440  -3.737496  2.954215
C    -0.548153  -4.567713  1.780568
H    0.235179  -4.203576  3.717972
H    0.229995  -5.335949  1.726546
H    -0.518660  -3.977108  0.861535
H    -1.523392  -5.062420  1.880239
Hg    0.117534  0.042629  4.298694
