32
Energy: -570099.65653 eV PBE+vdW (tier 2 basis)
C    -0.577197  0.635366  0.341114
C    -0.145048  0.454792  1.760972
O    1.101062  0.670325  1.984359
H    -0.581632  1.714599  0.119306
H    -1.583817  0.237730  0.163971
H    0.144390  0.163783  -0.335665
N    -1.061172  0.101983  2.678165
C    -1.056051  0.336951  4.141499
C    -0.618391  -0.932696  4.913978
O    0.621849  -1.136525  5.224916
H    -1.989896  -0.055931  2.288744
H    -0.285848  1.099337  4.358840
C    -2.399593  0.960508  4.603783
C    -2.784342  2.190708  3.740115
C    -2.332538  1.305147  6.099301
C    -1.764583  3.330046  3.691907
H    -3.197871  0.208931  4.442067
H    -3.731688  2.565351  4.152470
H    -3.036802  1.872229  2.716126
H    -1.555385  2.051489  6.310000
H    -2.141462  0.436304  6.742137
H    -3.289860  1.734197  6.417721
H    -2.169062  4.163683  3.105638
H    -0.815345  3.046624  3.209135
H    -1.530669  3.728305  4.686871
N    -1.511907  -1.820130  5.283691
C    -1.229161  -3.062855  6.012778
H    -2.491332  -1.574986  5.138514
H    -1.985661  -3.803409  5.736078
H    -1.278289  -2.880070  7.094689
H    -0.230023  -3.423040  5.752349
Hg    1.884323  -0.021746  3.872431
