32
Energy: -570099.074577 eV PBE+vdW (tier 2 basis)
C    0.583606  -0.269548  0.564867
C    0.433462  -0.225060  2.043771
O    1.356936  -0.107182  2.831719
H    -0.177339  0.336765  0.055279
H    0.425464  -1.313836  0.238652
H    1.593487  0.038508  0.278598
N    -0.919690  -0.384979  2.626593
C    -1.887010  0.740729  2.561556
C    -1.503854  1.863650  3.557387
O    -1.066314  1.640704  4.731900
H    -1.380328  -1.236529  2.277044
H    -1.836507  1.191159  1.555029
C    -3.337974  0.176686  2.758338
C    -4.427034  1.253979  2.511978
C    -3.539599  -0.592126  4.068465
C    -4.895808  2.076820  3.715355
H    -3.429401  -0.539223  1.921249
H    -5.297200  0.721322  2.102608
H    -4.102636  1.913329  1.687596
H    -2.893944  -1.478912  4.159360
H    -4.566959  -0.977639  4.102046
H    -3.410134  0.037593  4.958380
H    -4.085908  2.579833  4.260038
H    -5.439278  1.460429  4.441329
H    -5.592938  2.854092  3.379748
N    -1.711705  3.106489  3.158574
C    -1.527646  4.294797  3.995623
H    -2.166973  3.237289  2.256156
H    -1.286066  5.140511  3.344560
H    -0.716120  4.118441  4.707709
H    -2.451055  4.516898  4.548841
Hg    -0.027755  -0.343243  4.882421
