32
Energy: -570099.608515 eV PBE+vdW (tier 2 basis)
C    -1.001244  2.095400  0.386967
C    -0.908751  0.722027  0.971671
O    0.283457  0.249688  1.060715
H    -0.544058  2.804403  1.094932
H    -2.038910  2.398706  0.205046
H    -0.420699  2.144109  -0.542174
N    -2.035588  0.103475  1.358593
C    -2.225272  -0.993129  2.338923
C    -2.319477  -2.383584  1.660405
O    -1.266587  -3.126893  1.511987
H    -2.887079  0.629748  1.163186
H    -1.314589  -1.045828  2.961152
C    -3.352230  -0.618614  3.349092
C    -3.361159  -1.627953  4.517848
C    -4.747026  -0.382622  2.743192
C    -4.236187  -1.190213  5.695175
H    -3.002508  0.346221  3.755487
H    -2.327288  -1.767055  4.874984
H    -3.698647  -2.614506  4.158046
H    -4.753425  0.135783  1.771245
H    -5.331379  0.252505  3.418963
H    -5.337218  -1.307937  2.645461
H    -4.131391  -1.901592  6.522420
H    -5.300900  -1.153983  5.433967
H    -3.940319  -0.201533  6.070954
N    -3.475469  -2.854207  1.256505
C    -3.686525  -4.158988  0.618919
H    -4.301181  -2.302677  1.493846
H    -3.880730  -4.921988  1.384853
H    -2.795947  -4.440227  0.049810
H    -4.554455  -4.081462  -0.042861
Hg    0.476918  -1.864102  1.426184
