22
Energy: -13494.3901711 eV PBE+vdW (tier 2 basis)
C    -0.279224  -1.568994  0.632231
C    -0.107479  -0.250935  1.365358
O    0.739921  0.573730  1.022821
H    0.696651  -2.064290  0.566504
H    -0.609976  -1.356439  -0.392562
H    -0.997624  -2.250953  1.102949
N    -0.947612  -0.062569  2.427882
C    -1.050488  1.184687  3.195988
C    -1.741499  2.274462  2.325541
O    -2.947231  2.129331  2.106847
H    -1.718714  -0.711302  2.525980
H    -1.840294  0.984812  3.932505
C    0.226025  1.502308  3.978426
H    0.114020  2.449744  4.521743
H    1.110496  1.559713  3.339550
H    0.393198  0.709067  4.718821
N    -1.080344  3.366988  1.852768
C    0.343855  3.670326  1.765982
H    -1.710587  3.972991  1.335257
H    0.739833  4.085203  2.704245
H    0.476566  4.425677  0.983410
H    0.912509  2.778444  1.480755
