22
Energy: -13494.7523467 eV PBE+vdW (tier 2 basis)
C    -0.637192  -0.060356  0.083136
C    -0.633435  0.531973  1.478559
O    0.088738  1.496801  1.761802
H    0.371468  -0.430637  -0.140071
H    -0.859656  0.735743  -0.637591
H    -1.353059  -0.879917  -0.052947
N    -1.469185  -0.063337  2.373287
C    -1.596159  0.228361  3.811976
C    -2.278261  1.579395  4.156332
O    -3.209775  1.597623  4.962170
H    -2.058822  -0.806763  2.020975
H    -2.312491  -0.511495  4.188131
C    -0.274789  0.057302  4.573915
H    -0.453046  0.221337  5.644049
H    0.484550  0.768294  4.231040
H    0.113412  -0.960704  4.438564
N    -1.748546  2.673931  3.558568
C    -2.248772  4.011680  3.802930
H    -0.958780  2.522941  2.920591
H    -3.109057  3.936820  4.476507
H    -2.565516  4.490709  2.865775
H    -1.481627  4.642300  4.275300
