22
Energy: -13494.1207477 eV PBE+vdW (tier 2 basis)
C    0.269103  -0.587832  0.293563
C    0.115467  0.096827  1.638930
O    1.085150  0.348876  2.348760
H    1.335090  -0.616864  0.053723
H    -0.264971  -0.065746  -0.510627
H    -0.109762  -1.618083  0.342712
N    -1.152084  0.427472  2.058140
C    -2.450813  0.163229  1.437755
C    -2.646121  -1.365900  1.211352
O    -2.524768  -2.102574  2.187038
H    -1.161061  0.763450  3.015653
H    -3.175496  0.331909  2.248141
C    -2.788453  1.180496  0.340936
H    -3.807282  1.035932  -0.040731
H    -2.092019  1.154326  -0.504143
H    -2.734655  2.186361  0.776024
N    -3.005314  -1.901137  0.001684
C    -3.049838  -1.362516  -1.350309
H    -3.133724  -2.905121  0.089936
H    -2.112800  -0.867409  -1.635392
H    -3.880883  -0.661110  -1.501097
H    -3.197765  -2.203584  -2.036049
