22
Energy: -13494.4068198 eV PBE+vdW (tier 2 basis)
C    -0.344533  -0.184333  -0.505301
C    0.078113  -0.259584  0.950421
O    1.236279  -0.509153  1.271181
H    0.412062  -0.706371  -1.097275
H    -0.372077  0.865035  -0.831353
H    -1.327903  -0.629612  -0.699848
N    -0.864111  0.005345  1.919460
C    -2.305005  0.192743  1.791125
C    -2.984714  -1.064605  1.175174
O    -2.641159  -2.189551  1.518753
H    -0.505162  -0.168768  2.852397
H    -2.678093  0.188622  2.826959
C    -2.681101  1.553441  1.185488
H    -3.752354  1.765869  1.311754
H    -2.431202  1.625780  0.119040
H    -2.129955  2.345313  1.706521
N    -3.991628  -0.827079  0.283981
C    -4.752873  -1.897906  -0.332720
H    -4.192729  0.128624  0.019886
H    -5.825305  -1.797153  -0.116443
H    -4.389393  -2.842330  0.085576
H    -4.609664  -1.912855  -1.422362
