22
Energy: -13494.4051117 eV PBE+vdW (tier 2 basis)
C    1.003373  -0.825151  0.718194
C    0.404526  0.230331  1.632662
O    1.095938  1.041077  2.240660
H    1.591245  -1.523330  1.327938
H    1.695818  -0.336250  0.022856
H    0.260934  -1.395515  0.145830
N    -0.963361  0.224081  1.716521
C    -1.727200  1.070237  2.636233
C    -1.269771  2.553196  2.645146
O    -1.081267  3.146296  3.700760
H    -1.466605  -0.510024  1.233492
H    -2.757566  1.078059  2.240617
C    -1.744768  0.507424  4.057135
H    -2.133314  -0.519537  4.046084
H    -2.375983  1.122821  4.707302
H    -0.732251  0.506130  4.476063
N    -1.204025  3.214206  1.447246
C    -1.371723  2.717871  0.095207
H    -0.854819  4.160891  1.557298
H    -1.603287  3.566397  -0.560098
H    -2.213196  2.017090  0.030638
H    -0.471698  2.215701  -0.293783
