22
Energy: -13494.7835724 eV PBE+vdW (tier 2 basis)
C    -2.559383  0.934154  1.191508
C    -1.557513  -0.192368  1.364708
O    -1.182853  -0.889911  0.421109
H    -3.483527  0.520973  0.768656
H    -2.159894  1.652455  0.464827
H    -2.794735  1.461621  2.123916
N    -1.095601  -0.374276  2.635304
C    -0.190820  -1.450201  2.981818
C    -0.436769  -1.781165  4.462696
O    -0.943568  -0.961394  5.229752
H    -1.472165  0.141480  3.427829
H    -0.441373  -2.315925  2.347723
C    1.281993  -1.070075  2.740144
H    1.416733  -0.803195  1.685483
H    1.955472  -1.905780  2.973885
H    1.561993  -0.211950  3.364714
N    -0.021970  -3.017109  4.850186
C    -0.098302  -3.484407  6.221924
H    0.352781  -3.637606  4.142472
H    -0.734870  -4.376216  6.302220
H    -0.537749  -2.679876  6.820373
H    0.899121  -3.721227  6.617752
