22
Energy: -13494.4988668 eV PBE+vdW (tier 2 basis)
C    -0.562150  -0.062365  -0.321147
C    -0.076607  0.417175  1.038984
O    1.092000  0.745048  1.229370
H    -1.021684  -1.059103  -0.272792
H    0.301480  -0.100381  -0.989988
H    -1.305912  0.628034  -0.745237
N    -1.003797  0.483961  2.044645
C    -2.406930  0.124958  2.001015
C    -3.129020  1.001592  3.041008
O    -2.544461  1.395341  4.048274
H    -0.679097  0.847963  2.940278
H    -2.801758  0.337578  0.997552
C    -2.653251  -1.359529  2.343098
H    -3.720780  -1.616029  2.304651
H    -2.282023  -1.572456  3.353408
H    -2.119007  -2.005688  1.635787
N    -4.447750  1.271805  2.823194
C    -5.246707  0.959842  1.648818
H    -4.873971  1.822648  3.561595
H    -6.256413  1.352471  1.806901
H    -5.335612  -0.122741  1.479815
H    -4.846552  1.426875  0.736771
