22
Energy: -13494.7492075 eV PBE+vdW (tier 2 basis)
C    -0.537233  -0.054679  0.102095
C    -0.585255  0.510720  1.507891
O    0.181666  1.417006  1.859091
H    -0.648783  0.768971  -0.613332
H    -1.301748  -0.814335  -0.100761
H    0.453617  -0.497429  -0.061147
N    -1.517177  -0.040998  2.332810
C    -1.721233  0.237297  3.765399
C    -2.324765  1.631390  4.083649
O    -3.320545  1.716738  4.804134
H    -2.132063  -0.734648  1.926294
H    -2.515193  -0.451613  4.077025
C    -0.471753  -0.043858  4.610780
H    -0.709197  0.120060  5.669439
H    0.360432  0.611502  4.332285
H    -0.153084  -1.086874  4.484099
N    -1.661935  2.694406  3.572510
C    -2.098974  4.055403  3.817710
H    -0.850555  2.504754  2.974050
H    -2.394327  4.172129  4.867732
H    -2.964415  4.328293  3.194350
H    -1.273478  4.739764  3.593898
