22
Energy: -13494.4338854 eV PBE+vdW (tier 2 basis)
C    0.734613  -1.132311  1.150062
C    0.177876  -0.195035  2.207806
O    0.786422  0.072750  3.239188
H    1.646475  -0.687304  0.731810
H    0.037037  -1.344829  0.329982
H    1.022982  -2.075070  1.630345
N    -1.058772  0.329321  1.939396
C    -1.700872  1.306882  2.807643
C    -2.024279  0.856315  4.251871
O    -1.982163  1.698954  5.144255
H    -1.515730  0.086290  1.068681
H    -1.002110  2.139475  2.972498
C    -2.972974  1.836334  2.140623
H    -3.438549  2.591114  2.784003
H    -3.706750  1.034528  1.972323
H    -2.739287  2.305119  1.174769
N    -2.431275  -0.421970  4.516202
C    -2.575639  -1.579984  3.651409
H    -2.584125  -0.564604  5.509708
H    -3.184576  -2.323394  4.179359
H    -1.611639  -2.045618  3.396688
H    -3.100667  -1.330962  2.721380
