22
Energy: -13494.5426286 eV PBE+vdW (tier 2 basis)
C    0.570161  -0.687950  0.206181
C    0.310984  -0.289101  1.649091
O    1.204436  -0.254452  2.488536
H    0.946091  -1.718758  0.189100
H    1.361092  -0.045032  -0.198475
H    -0.312416  -0.618164  -0.441911
N    -0.992877  0.043741  1.936685
C    -1.456020  0.273033  3.311366
C    -2.990696  0.283715  3.365393
O    -3.606606  -0.285543  4.259276
H    -1.695710  -0.234067  1.260000
H    -1.142309  -0.567804  3.946634
C    -0.898459  1.574818  3.909069
H    -1.298371  1.714553  4.921334
H    -1.178128  2.444368  3.298290
H    0.193601  1.520084  3.963003
N    -3.604427  0.985526  2.359279
C    -5.041833  1.190744  2.329342
H    -3.023202  1.563575  1.761549
H    -5.504783  0.406368  2.936854
H    -5.415869  1.123827  1.300167
H    -5.326658  2.166518  2.751238
