22
Energy: -13494.3868761 eV PBE+vdW (tier 2 basis)
C    -0.102874  -1.055512  0.122397
C    0.213076  0.070978  1.095003
O    1.240844  0.737135  0.988491
H    0.678466  -1.820870  0.211877
H    -0.055777  -0.659460  -0.899139
H    -1.080105  -1.529113  0.279048
N    -0.736919  0.265779  2.063446
C    -0.732899  1.166272  3.224033
C    -1.722343  2.355019  3.111921
O    -2.529126  2.535296  4.026014
H    -1.545889  -0.342056  2.013803
H    -1.184864  0.585399  4.039672
C    0.645550  1.623987  3.713020
H    1.153900  2.289826  3.011261
H    1.298245  0.759812  3.885718
H    0.502727  2.148636  4.666428
N    -1.677428  3.195438  2.040264
C    -0.835451  3.176863  0.855823
H    -2.393633  3.914179  2.094093
H    -1.318113  2.654006  0.014571
H    0.123340  2.685570  1.049298
H    -0.630727  4.209816  0.547959
