22
Energy: -13494.4476192 eV PBE+vdW (tier 2 basis)
C    0.141896  -0.638991  0.934115
C    -0.792225  -0.943215  2.095126
O    -0.799189  -2.037629  2.649421
H    0.872343  0.137047  1.206523
H    -0.400497  -0.295639  0.042151
H    0.681267  -1.558172  0.691787
N    -1.655535  0.053399  2.489563
C    -1.611687  1.450003  2.098065
C    -0.785633  2.270915  3.114556
O    -0.861124  2.043374  4.318389
H    -2.121289  -0.149299  3.372030
H    -1.153099  1.499941  1.103994
C    -3.026407  2.039878  2.018947
H    -3.633368  1.473632  1.302183
H    -2.999146  3.092141  1.705317
H    -3.510266  1.997065  3.003810
N    -0.004071  3.275240  2.616192
C    0.184556  3.658135  1.225993
H    0.483982  3.804763  3.331898
H    0.872292  4.509511  1.193420
H    0.631325  2.849827  0.627885
H    -0.754127  3.973074  0.746635
