22
Energy: -13494.5926093 eV PBE+vdW (tier 2 basis)
C    0.140100  -0.336393  0.356404
C    -0.144749  0.549348  1.560166
O    0.562623  1.515733  1.834227
H    0.265844  -1.391597  0.634929
H    1.061161  0.020747  -0.111220
H    -0.674127  -0.280347  -0.380788
N    -1.239811  0.235399  2.320655
C    -2.163741  -0.870179  2.163978
C    -3.514519  -0.414871  2.751518
O    -3.567045  0.379033  3.687476
H    -1.444535  0.859624  3.100830
H    -2.292264  -1.086216  1.091936
C    -1.699176  -2.148018  2.891003
H    -2.409422  -2.973377  2.743840
H    -1.608496  -1.953029  3.967030
H    -0.718585  -2.465680  2.515530
N    -4.610418  -0.992602  2.186545
C    -5.961032  -0.755348  2.663526
H    -4.472076  -1.618454  1.402302
H    -6.591747  -0.332379  1.870001
H    -5.897253  -0.037273  3.487457
H    -6.422733  -1.682121  3.031654
