22
Energy: -13494.4125968 eV PBE+vdW (tier 2 basis)
C    -0.017456  -1.304799  1.131465
C    -0.145618  0.054388  1.792717
O    0.670110  0.446530  2.622679
H    -0.699884  -2.012990  1.622095
H    1.009489  -1.650908  1.276161
H    -0.251928  -1.299286  0.060018
N    -1.221560  0.844974  1.459482
C    -2.322645  0.599362  0.534634
C    -3.027123  -0.751615  0.839412
O    -3.343147  -1.044947  1.987114
H    -1.272505  1.683357  2.028753
H    -3.092767  1.335850  0.811397
C    -1.935858  0.873454  -0.927200
H    -2.812009  0.846891  -1.590861
H    -1.183012  0.166175  -1.301564
H    -1.499434  1.876657  -1.003423
N    -3.295962  -1.543714  -0.237823
C    -3.967263  -2.823863  -0.112439
H    -2.959188  -1.257742  -1.148020
H    -4.307008  -2.917990  0.924213
H    -3.287183  -3.657955  -0.338435
H    -4.834050  -2.879828  -0.784375
