22
Energy: -13494.3865793 eV PBE+vdW (tier 2 basis)
C    0.014238  -0.300381  -0.007687
C    -0.013998  -0.199025  1.507546
O    1.010249  -0.168196  2.182364
H    0.651531  0.500200  -0.401627
H    -0.975184  -0.233604  -0.477304
H    0.477801  -1.255212  -0.286830
N    -1.268100  -0.129455  2.065738
C    -1.468542  -0.224765  3.517768
C    -2.913579  -0.634530  3.842336
O    -3.133907  -1.591370  4.579121
H    -2.052994  -0.372601  1.471879
H    -0.860100  -1.059302  3.893129
C    -1.038806  1.040973  4.277477
H    -1.223915  0.902283  5.350519
H    -1.578132  1.934995  3.942806
H    0.033815  1.203905  4.127716
N    -3.955994  0.061383  3.272729
C    -3.973456  1.394823  2.684929
H    -4.850885  -0.296987  3.597701
H    -4.124660  2.181742  3.440987
H    -4.789817  1.455771  1.954147
H    -3.036303  1.600842  2.159445
