22
Energy: -13494.671955 eV PBE+vdW (tier 2 basis)
C    -0.715216  -1.254317  0.627940
C    -0.812126  0.223306  0.953132
O    -0.461620  1.099791  0.168204
H    -0.370385  -1.352275  -0.404347
H    -1.681079  -1.765288  0.741633
H    0.001946  -1.757809  1.292023
N    -1.329985  0.556288  2.188013
C    -1.740869  -0.337457  3.263962
C    -3.172926  -0.907855  3.120857
O    -3.554747  -1.822878  3.847494
H    -1.295435  1.553535  2.384770
H    -1.086278  -1.221366  3.274285
C    -1.612583  0.372488  4.614449
H    -0.569814  0.655847  4.805442
H    -1.952223  -0.293911  5.414435
H    -2.234042  1.279626  4.639735
N    -3.950820  -0.325845  2.174068
C    -5.319023  -0.749852  1.937417
H    -3.538043  0.404351  1.605245
H    -5.944753  -0.578782  2.824110
H    -5.360236  -1.821786  1.701252
H    -5.726743  -0.180811  1.095881
