22
Energy: -13494.4716303 eV PBE+vdW (tier 2 basis)
C    -0.929109  -0.163896  -0.270328
C    -0.442596  0.571027  0.967335
O    0.621264  1.184088  0.985558
H    -0.159822  -0.062807  -1.040008
H    -1.868451  0.260846  -0.651796
H    -1.101730  -1.230730  -0.072669
N    -1.252775  0.539504  2.077283
C    -2.484101  -0.222981  2.281300
C    -3.448203  0.669215  3.096422
O    -3.600336  0.518013  4.306051
H    -0.842297  0.984354  2.895646
H    -2.924311  -0.399995  1.290772
C    -2.248518  -1.560931  2.978653
H    -1.535188  -2.162804  2.401453
H    -3.187577  -2.121171  3.074801
H    -1.849922  -1.403861  3.987553
N    -4.099994  1.654755  2.409732
C    -3.955200  2.023190  1.010896
H    -4.662523  2.253532  3.005873
H    -4.185695  1.181531  0.341913
H    -2.945881  2.392716  0.778065
H    -4.672036  2.820404  0.788495
