22
Energy: -13494.5744933 eV PBE+vdW (tier 2 basis)
C    -0.253293  -1.028719  0.087505
C    -0.341408  -0.601274  1.538786
O    0.515358  -0.921334  2.357837
H    0.234190  -2.008206  0.054694
H    0.391304  -0.319080  -0.449598
H    -1.215920  -1.076817  -0.433002
N    -1.427450  0.154800  1.940848
C    -2.468210  0.805867  1.138003
C    -3.457827  -0.188879  0.473651
O    -4.106745  0.128370  -0.519501
H    -1.329543  0.464039  2.903952
H    -3.090538  1.336985  1.876710
C    -1.956717  1.848820  0.141110
H    -2.804951  2.356484  -0.330049
H    -1.360601  1.395278  -0.658814
H    -1.337815  2.589232  0.662624
N    -3.583688  -1.381315  1.117199
C    -4.486424  -2.422927  0.670316
H    -2.958039  -1.553942  1.896646
H    -3.936368  -3.317732  0.345403
H    -5.054895  -2.028296  -0.178645
H    -5.185418  -2.708356  1.468323
