22
Energy: -13494.2848171 eV PBE+vdW (tier 2 basis)
C    0.507909  -0.884925  0.773887
C    0.008008  0.369461  1.462847
O    0.712251  1.367830  1.588731
H    0.818879  -1.626549  1.522730
H    1.381533  -0.614570  0.174861
H    -0.248346  -1.354488  0.131280
N    -1.270118  0.355337  1.978130
C    -2.320884  -0.650753  1.786640
C    -3.713191  -0.023828  1.995626
O    -4.571430  -0.137274  1.124871
H    -1.557366  1.275130  2.300864
H    -2.350365  -0.949008  0.729146
C    -2.147090  -1.921362  2.636938
H    -2.081698  -1.698639  3.708073
H    -1.235513  -2.457870  2.348971
H    -2.997653  -2.595437  2.470333
N    -3.970806  0.677838  3.147213
C    -3.265065  0.688645  4.422119
H    -4.928500  1.019980  3.159694
H    -3.630094  -0.095892  5.103919
H    -3.409235  1.662760  4.905781
H    -2.190225  0.545615  4.278348
