22
Energy: -13494.516229 eV PBE+vdW (tier 2 basis)
C    -0.019067  0.780945  0.922511
C    -0.019322  -0.536688  1.669563
O    0.991223  -1.012099  2.180008
H    1.004683  1.163435  0.918862
H    -0.687716  1.508894  1.400998
H    -0.357225  0.652806  -0.115904
N    -1.213352  -1.226235  1.741357
C    -2.549481  -0.769521  1.371961
C    -3.169087  0.071307  2.517474
O    -3.055492  1.295229  2.526498
H    -1.145602  -2.065542  2.312847
H    -2.444686  -0.054963  0.546608
C    -3.398083  -1.949880  0.897782
H    -4.420657  -1.630094  0.661380
H    -3.458842  -2.750315  1.651956
H    -2.952052  -2.392288  -0.001556
N    -3.781245  -0.632803  3.511752
C    -4.318641  -0.005713  4.705153
H    -3.851815  -1.638729  3.419729
H    -3.808265  -0.367945  5.608511
H    -5.396339  -0.195864  4.803381
H    -4.154125  1.072696  4.611592
