22
Energy: -13494.8361119 eV PBE+vdW (tier 2 basis)
C    -2.058185  -0.901691  0.310938
C    -0.965330  -1.053409  1.348112
O    -0.019835  -1.835391  1.188579
H    -1.600459  -0.592913  -0.637179
H    -2.831768  -0.174671  0.586525
H    -2.526995  -1.879357  0.144359
N    -1.083287  -0.274582  2.459056
C    -0.090620  -0.259018  3.536703
C    -0.337985  -1.434418  4.525057
O    -0.805987  -1.261037  5.648780
H    -1.914709  0.293388  2.577041
H    0.882705  -0.425541  3.051218
C    -0.106197  1.083015  4.251459
H    0.077183  1.898444  3.540109
H    0.671145  1.109392  5.023432
H    -1.065477  1.247172  4.759824
N    0.015185  -2.641383  4.009169
C    -0.218130  -3.887309  4.711867
H    0.280307  -2.655479  3.020863
H    -1.060255  -4.447684  4.277868
H    -0.456050  -3.651318  5.754443
H    0.677742  -4.521206  4.679777
