22
Energy: -13494.556071 eV PBE+vdW (tier 2 basis)
C    -0.380707  0.171555  2.663041
C    -0.008161  -0.697308  1.472716
O    0.888253  -1.533081  1.536239
H    0.342514  -0.025182  3.458554
H    -1.386387  -0.078191  3.031223
H    -0.364047  1.242956  2.419178
N    -0.701160  -0.496134  0.301599
C    -1.912184  0.288334  0.104509
C    -3.163290  -0.578855  0.374544
O    -3.374512  -1.608299  -0.259014
H    -0.497464  -1.195033  -0.410063
H    -1.882046  1.131956  0.808588
C    -1.967256  0.832910  -1.324142
H    -2.862196  1.451645  -1.470105
H    -2.013057  0.003697  -2.042150
H    -1.078359  1.440118  -1.534145
N    -3.988701  -0.108870  1.355510
C    -5.216044  -0.781939  1.739710
H    -3.730767  0.747906  1.829712
H    -5.197555  -1.065544  2.800894
H    -5.295343  -1.688336  1.130178
H    -6.094532  -0.148303  1.554424
