22
Energy: -13494.4568687 eV PBE+vdW (tier 2 basis)
C    0.932106  -1.519610  1.984545
C    -0.428334  -1.633081  1.327569
O    -0.703962  -2.513936  0.515514
H    1.354854  -0.510717  1.884187
H    1.599248  -2.245290  1.512928
H    0.871209  -1.735362  3.060834
N    -1.369674  -0.692880  1.679263
C    -1.277154  0.316130  2.723471
C    -1.151820  -0.210359  4.174743
O    -0.406877  0.378904  4.956738
H    -2.265100  -0.829635  1.218513
H    -0.347805  0.889129  2.593115
C    -2.453258  1.291410  2.618264
H    -2.453668  1.782939  1.636638
H    -2.368713  2.061583  3.393303
H    -3.417830  0.781008  2.750350
N    -1.870658  -1.301382  4.574524
C    -2.861170  -2.101713  3.866516
H    -1.692232  -1.535979  5.546100
H    -2.412648  -2.775377  3.123865
H    -3.612284  -1.477026  3.365581
H    -3.391229  -2.711756  4.606439
