22
Energy: -13494.652005 eV PBE+vdW (tier 2 basis)
C    -0.154340  0.305307  0.232495
C    -0.472036  -0.605889  1.402162
O    -0.247739  -1.816666  1.364698
H    0.901332  0.177845  -0.035753
H    -0.348616  1.366097  0.432318
H    -0.752479  -0.010733  -0.631548
N    -1.004278  0.013654  2.499883
C    -1.460235  -0.727749  3.670388
C    -2.990522  -0.909324  3.566628
O    -3.740448  0.061439  3.684309
H    -1.306513  0.978907  2.419804
H    -0.940350  -1.690841  3.623884
C    -1.104618  0.004131  4.962721
H    -1.628159  0.967240  5.018250
H    -0.022189  0.173891  5.015199
H    -1.408033  -0.589637  5.834928
N    -3.464247  -2.160787  3.319669
C    -2.715326  -3.395147  3.112564
H    -4.477987  -2.202187  3.270881
H    -3.370954  -4.113658  2.608153
H    -2.385374  -3.846329  4.061279
H    -1.843891  -3.223566  2.468089
