25
Energy: -171263.6053 eV PBE+vdW (tier 2 basis)
N    0.062908  0.404284  -0.097038
C    0.451899  0.035592  1.189846
C    1.989439  -0.259974  1.346511
O    2.425334  -0.736807  2.372367
H    0.173167  -0.226066  -0.885911
H    -0.168643  1.366234  -0.320685
H    0.283065  0.887950  1.866060
C    -0.332603  -1.235680  1.748636
C    0.166885  -1.760116  3.047584
C    0.689282  -3.060992  3.160945
C    0.045811  -0.968815  4.239964
C    1.121225  -3.556927  4.382257
C    0.494851  -1.413304  5.459319
C    1.112537  -2.689735  5.537670
O    1.772461  -3.120823  6.598224
H    -0.325175  -2.017987  0.979036
H    -1.368255  -0.882085  1.857874
H    0.777511  -3.688793  2.274606
H    -0.407132  0.021743  4.179033
H    1.669236  -4.497606  4.452952
H    0.430603  -0.779972  6.345234
H    1.800111  -2.462365  7.321759
O    2.686134  0.105395  0.283149
H    3.644488  -0.046457  0.437897
Cd    -1.101739  -4.972572  5.686267
