25
Energy: -171264.190978 eV PBE+vdW (tier 2 basis)
N    -1.255630  -0.455906  0.214251
C    -0.387282  -0.142035  1.408963
C    1.118659  -0.191897  1.050067
O    1.939919  0.287478  1.782483
H    -1.189488  0.317780  -0.458134
H    -0.858048  -1.267613  -0.280598
H    -0.604350  0.896758  1.691056
C    -0.635773  -1.065292  2.639176
C    -2.071773  -0.989406  3.090280
C    -2.594170  0.167033  3.714072
C    -2.984050  -1.999794  2.736101
C    -3.957912  0.364517  3.904224
C    -4.407282  -1.777232  2.815233
C    -4.892364  -0.588230  3.440810
O    -6.209894  -0.491462  3.569315
H    0.053731  -0.722236  3.422580
H    -0.355639  -2.100612  2.396832
H    -1.906029  0.939624  4.062490
H    -2.628589  -2.980210  2.403229
H    -4.307432  1.258437  4.423786
H    -5.110787  -2.587334  2.612689
H    -6.489436  0.316188  4.042403
O    1.335694  -0.845001  -0.105296
H    2.299685  -0.880894  -0.289659
Cd    -3.422857  -0.933804  0.685724
