25
Energy: -171264.048015 eV PBE+vdW (tier 2 basis)
N    -1.304064  -0.065459  0.441153
C    -0.867304  -0.199254  1.786168
C    0.132650  0.880053  2.265923
O    0.319733  1.258667  3.449433
H    -1.798760  0.789807  0.201295
H    -0.653093  -0.349066  -0.287452
H    -1.742942  -0.065733  2.451233
C    -0.289037  -1.644952  2.029293
C    -0.433484  -2.062014  3.466031
C    -1.706981  -2.435278  3.972704
C    0.620685  -1.962796  4.370540
C    -1.954794  -2.633593  5.323499
C    0.383209  -2.037335  5.791594
C    -0.921124  -2.436860  6.264063
O    -1.026341  -2.635609  7.567891
H    0.753861  -1.704960  1.690377
H    -0.884665  -2.296599  1.376132
H    -2.531147  -2.576794  3.270685
H    1.643748  -1.795089  4.024694
H    -2.940804  -2.960687  5.657488
H    1.219229  -2.103647  6.493154
H    -1.915087  -2.940531  7.838569
O    0.786452  1.454300  1.292155
H    1.395460  2.153499  1.620458
Cd    0.005598  0.250930  5.355919
