25
Energy: -171264.61196 eV PBE+vdW (tier 2 basis)
N    -0.206564  0.500533  0.330048
C    -0.329305  0.392110  1.842760
C    1.077299  0.605037  2.444534
O    1.159533  0.740952  3.694708
H    -0.954887  -0.049267  -0.126529
H    -0.273617  1.473373  0.002038
H    -0.985246  1.205792  2.177719
C    -0.915490  -0.981323  2.249079
C    -2.272613  -1.197021  1.639357
C    -2.428015  -2.029927  0.508144
C    -3.417094  -0.567436  2.186439
C    -3.673618  -2.241740  -0.055685
C    -4.670868  -0.772221  1.644525
C    -4.811547  -1.613846  0.513424
O    -5.978659  -1.876256  -0.068820
H    -0.961831  -0.976085  3.347886
H    -0.219255  -1.781329  1.957633
H    -1.567982  -2.566121  0.100921
H    -3.321081  0.062512  3.072159
H    -3.812672  -2.903186  -0.909774
H    -5.549504  -0.305465  2.091715
H    -6.727548  -1.436607  0.379013
O    2.059560  0.603092  1.644429
H    0.728279  0.151501  0.051032
Cd    3.445723  0.859926  3.557246
