25
Energy: -171264.154082 eV PBE+vdW (tier 2 basis)
N    -0.127996  -0.069191  0.151983
C    -0.242656  -0.243726  1.646189
C    1.003396  0.313241  2.386975
O    1.259674  -0.011208  3.513665
H    0.623996  -0.663850  -0.219146
H    0.172374  0.895077  -0.043921
H    -1.069706  0.409079  1.967744
C    -0.531852  -1.703687  2.080799
C    -1.584546  -2.347445  1.210116
C    -1.259572  -3.431530  0.363141
C    -2.857512  -1.773180  1.068486
C    -2.117817  -3.900576  -0.629126
C    -3.717483  -2.146765  -0.020799
C    -3.362657  -3.269018  -0.846061
O    -4.268562  -3.642981  -1.737882
H    -0.832501  -1.672679  3.137018
H    0.394667  -2.292262  2.046596
H    -0.293466  -3.924422  0.484347
H    -3.213082  -1.007870  1.763976
H    -1.833635  -4.766157  -1.229943
H    -4.733768  -1.752771  -0.090693
H    -4.001725  -4.432551  -2.248462
O    1.671020  1.193585  1.620685
H    2.422628  1.570171  2.128427
Cd    -2.064138  -0.596104  -0.915962
