25
Energy: -171263.340079 eV PBE+vdW (tier 2 basis)
N    0.092023  0.193181  0.153285
C    0.188946  -0.092254  1.537021
C    1.602640  -0.644611  1.923243
O    2.384263  -1.300876  1.347228
H    0.142129  -0.595677  -0.488436
H    0.611772  0.998118  -0.188157
H    0.067124  0.843361  2.101717
C    -0.909345  -1.109974  1.966732
C    -0.887390  -1.456559  3.435471
C    -0.422579  -2.718614  3.887727
C    -1.270154  -0.521917  4.399286
C    -0.332517  -3.051342  5.232492
C    -1.111086  -0.796662  5.814057
C    -0.717989  -2.122099  6.227133
O    -0.706766  -2.535456  7.484844
H    -0.804723  -2.022110  1.363486
H    -1.865422  -0.647207  1.685062
H    -0.141728  -3.472799  3.150774
H    -1.716189  0.433836  4.112710
H    -0.019446  -4.047086  5.547189
H    -1.559224  -0.112648  6.540605
H    -1.102107  -1.903469  8.116210
O    2.073854  -0.112002  3.324650
H    3.036127  -0.317782  3.344864
Cd    1.045381  -0.077779  5.240826
