25
Energy: -171264.853447 eV PBE+vdW (tier 2 basis)
N    0.792749  -0.487821  -0.244459
C    0.599788  -0.604413  1.255158
C    1.916422  -1.084411  1.870851
O    2.144448  -0.741459  3.070341
H    1.298856  0.374057  -0.498705
H    -0.100636  -0.486937  -0.758565
H    0.315680  0.380972  1.637902
C    -0.493112  -1.698617  1.573113
C    -0.194289  -2.466262  2.847853
C    -0.555049  -1.959076  4.119636
C    0.569698  -3.629037  2.803972
C    -0.131217  -2.542168  5.304699
C    1.125517  -4.198410  3.998900
C    0.719968  -3.663903  5.273301
O    1.158983  -4.312947  6.345188
H    -0.524848  -2.411424  0.735654
H    -1.471861  -1.204508  1.623805
H    -1.188544  -1.072813  4.181080
H    0.788075  -4.117720  1.852911
H    -0.463152  -2.136252  6.261220
H    1.548648  -5.206792  3.983386
H    0.818617  -3.935088  7.179186
O    2.553399  -1.975602  1.238966
H    1.368731  -1.290706  -0.559692
Cd    2.987685  -2.775422  3.461405
