25
Energy: -171264.57654 eV PBE+vdW (tier 2 basis)
N    0.506646  -0.387469  -0.102333
C    0.689452  -0.849169  1.329545
C    2.134565  -1.463849  1.314946
O    2.825648  -1.583464  2.415540
H    1.241313  -0.958391  -0.616170
H    0.729838  0.608114  -0.232001
H    0.650109  0.033825  1.979597
C    -0.438661  -1.855447  1.689785
C    -0.190366  -2.560586  3.004073
C    -0.232239  -1.868381  4.218143
C    0.202969  -3.919018  3.029187
C    0.253871  -2.471285  5.428939
C    0.577141  -4.571245  4.198359
C    0.599008  -3.869815  5.425068
O    0.883599  -4.402204  6.603932
H    -0.512701  -2.607117  0.890517
H    -1.395491  -1.312168  1.720563
H    -0.614523  -0.846159  4.273298
H    0.219711  -4.485449  2.096973
H    0.109318  -1.978237  6.393066
H    0.835200  -5.631101  4.171983
H    1.082997  -5.357733  6.554438
O    2.575499  -1.779042  0.217672
H    -0.432554  -0.558141  -0.483356
Cd    2.260653  -1.746467  4.397235
