25
Energy: -171263.995883 eV PBE+vdW (tier 2 basis)
N    -0.396546  0.330246  0.375699
C    0.300983  -0.318887  1.431959
C    1.787420  -0.489766  1.070242
O    2.727384  -0.692326  1.880242
H    -0.159748  1.300009  0.183485
H    -1.395153  0.158152  0.317719
H    0.329402  0.260340  2.389434
C    -0.370827  -1.705205  1.747189
C    -0.047595  -2.172361  3.140353
C    -0.654062  -1.548073  4.261553
C    0.943355  -3.120513  3.383097
C    -0.261527  -1.796961  5.569713
C    1.466949  -3.315789  4.713747
C    0.805761  -2.683299  5.827354
O    1.240822  -3.028015  7.029182
H    -0.092769  -2.445628  0.986558
H    -1.453687  -1.543554  1.651275
H    -1.473260  -0.845857  4.095705
H    1.367682  -3.711322  2.567374
H    -0.789671  -1.323777  6.399044
H    2.147360  -4.144027  4.928129
H    0.741449  -2.602516  7.753938
O    2.042181  -0.371294  -0.201458
H    3.003453  -0.467365  -0.389238
Cd    2.758007  -1.503757  3.893803
