25
Energy: -171263.423936 eV PBE+vdW (tier 2 basis)
N    0.040246  -0.876836  0.043416
C    -0.247944  -0.305922  1.295363
C    1.087248  0.230743  1.920066
O    1.861362  -0.510248  2.489596
H    0.831941  -1.502970  -0.073057
H    -0.278055  -0.412060  -0.801903
H    -0.938936  0.531324  1.145309
C    -0.913593  -1.264633  2.389136
C    -0.042941  -2.284184  3.019425
C    0.320047  -2.183965  4.382696
C    0.357937  -3.456107  2.296883
C    1.092077  -3.150962  4.995888
C    1.144506  -4.426742  2.865911
C    1.602160  -4.244683  4.207858
O    2.580817  -4.950561  4.744125
H    -1.748183  -1.737126  1.851576
H    -1.330885  -0.594523  3.151313
H    -0.001374  -1.318264  4.961386
H    0.032968  -3.581678  1.263361
H    1.473648  -3.023603  6.009528
H    1.482040  -5.288205  2.287318
H    2.945750  -5.624394  4.134957
O    1.233405  1.524955  1.683456
H    2.101096  1.837261  2.021404
Cd    -0.714945  -5.427997  5.859488
