25
Energy: -171264.014548 eV PBE+vdW (tier 2 basis)
N    0.074173  0.988215  1.030184
C    0.061390  -0.068810  2.069483
C    1.467765  -0.268743  2.662573
O    2.506738  0.026292  2.055329
H    -0.100815  1.913727  1.435399
H    -0.678295  0.807739  0.351152
H    -0.621455  0.223583  2.882605
C    -0.420972  -1.416313  1.452777
C    -1.782327  -1.310142  0.806137
C    -1.908441  -1.292182  -0.601214
C    -2.954920  -1.277159  1.596940
C    -3.150297  -1.237102  -1.207285
C    -4.206282  -1.224517  1.015111
C    -4.316041  -1.205162  -0.400300
O    -5.477282  -1.168420  -1.045457
H    -0.433643  -2.176557  2.247163
H    0.320288  -1.754164  0.711502
H    -1.019635  -1.373704  -1.229389
H    -2.883817  -1.318506  2.684847
H    -3.262757  -1.244906  -2.290536
H    -5.104741  -1.212157  1.633599
H    -6.245640  -1.175716  -0.441002
O    1.590883  -0.841151  3.834652
H    0.742675  -1.019593  4.287366
Cd    2.247299  1.058348  0.080864
