25
Energy: -171264.25158 eV PBE+vdW (tier 2 basis)
N    -1.184116  0.766698  0.779036
C    -0.310691  0.118951  1.842644
C    1.058371  -0.042674  1.146251
O    1.141812  0.051727  -0.063407
H    -0.691883  0.521304  -0.114856
H    -1.075982  1.785096  0.855160
H    -0.234455  0.821569  2.681995
C    -0.789778  -1.273803  2.363380
C    -2.250104  -1.258301  2.732522
C    -3.196709  -1.841209  1.875119
C    -2.735132  -0.481149  3.814771
C    -4.597696  -1.488164  1.965803
C    -4.084838  -0.215706  3.996329
C    -5.046597  -0.706389  3.079282
O    -6.316898  -0.423401  3.328153
H    -0.153029  -1.516992  3.225044
H    -0.600189  -2.040865  1.599591
H    -2.889376  -2.553075  1.103565
H    -2.024515  -0.069196  4.533514
H    -5.321516  -2.003943  1.329927
H    -4.436009  0.356561  4.855316
H    -6.947765  -0.879067  2.738083
O    2.024558  -0.315817  2.006531
H    2.878070  -0.433461  1.534808
Cd    -3.327533  0.232306  0.765442
