25
Energy: -171264.60238 eV PBE+vdW (tier 2 basis)
N    0.133176  0.098004  0.316154
C    -0.222928  0.499291  1.740600
C    1.096007  0.788972  2.489115
O    1.011057  1.309623  3.633875
H    -0.596816  -0.524134  -0.070135
H    1.053694  -0.377914  0.331562
H    -0.807092  1.426652  1.683275
C    -1.037495  -0.614961  2.438769
C    -2.310678  -0.913332  1.696265
C    -3.404611  -0.015071  1.751585
C    -2.439178  -2.098480  0.937429
C    -4.584704  -0.291414  1.094670
C    -3.616090  -2.395423  0.269157
C    -4.704093  -1.490328  0.345705
O    -5.875604  -1.699311  -0.249046
H    -1.241535  -0.245469  3.454908
H    -0.418099  -1.517866  2.541810
H    -3.334990  0.893629  2.351714
H    -1.623968  -2.824564  0.915877
H    -5.442958  0.376659  1.151966
H    -3.715855  -3.326954  -0.289526
H    -5.906621  -2.549786  -0.728834
O    2.176776  0.462566  1.914215
H    0.226343  0.911817  -0.306367
Cd    3.288264  1.220794  3.875260
