25
Energy: -171263.420423 eV PBE+vdW (tier 2 basis)
N    0.504030  -0.511304  -0.098004
C    -0.006320  -0.354823  1.190324
C    1.106577  -0.042577  2.287979
O    0.941029  -0.302721  3.453470
H    0.435421  0.236181  -0.781610
H    1.203738  -1.222921  -0.293553
H    -0.651031  0.537754  1.212939
C    -0.812017  -1.615366  1.741473
C    -2.260175  -1.583416  1.441436
C    -3.120806  -0.702530  2.132305
C    -2.826147  -2.459372  0.468546
C    -4.477739  -0.659330  1.858571
C    -4.166857  -2.432835  0.154826
C    -5.005723  -1.468750  0.790054
O    -6.228983  -1.176967  0.378360
H    -0.641217  -1.554199  2.833326
H    -0.331531  -2.527085  1.367048
H    -2.719849  -0.046400  2.906031
H    -2.177529  -3.163821  -0.053309
H    -5.132905  0.082269  2.317018
H    -4.572965  -3.081885  -0.622837
H    -6.504954  -1.702975  -0.399330
O    2.150369  0.561370  1.735767
H    2.803117  0.797870  2.431241
Cd    -5.717276  -2.943976  3.352203
