25
Energy: -171263.348433 eV PBE+vdW (tier 2 basis)
N    0.135368  -0.158248  -0.029693
C    -0.155542  -0.060684  1.340054
C    1.086429  0.390188  2.223186
O    1.218005  0.067112  3.378144
H    0.766238  -0.877180  -0.374231
H    0.067127  0.668826  -0.616745
H    -0.862957  0.774632  1.478285
C    -0.819923  -1.325563  1.986735
C    -0.083787  -2.630319  1.971041
C    0.728840  -3.032320  3.032040
C    -0.249423  -3.530353  0.871568
C    1.383404  -4.277537  3.012763
C    0.408360  -4.741745  0.790483
C    1.287585  -5.112158  1.832446
O    2.092615  -6.163340  1.792318
H    -1.783441  -1.440670  1.472522
H    -1.011996  -1.028860  3.027608
H    0.879229  -2.371744  3.885339
H    -0.914298  -3.245207  0.054081
H    2.198361  -4.485510  3.711726
H    0.287055  -5.384733  -0.082581
H    2.023263  -6.662670  0.953742
O    1.884292  1.190101  1.521816
H    2.598513  1.535477  2.100751
Cd    -0.139488  -5.884592  4.444815
