37
Energy: -175314.392153 eV PBE+vdW (tier 2 basis)
C    -0.756102  -2.264216  -0.575427
C    -0.446135  -1.774787  0.797546
O    0.788028  -1.635222  1.101096
H    -1.830446  -2.369002  -0.763289
H    -0.252905  -3.227127  -0.741380
H    -0.329278  -1.558284  -1.304341
N    -1.465237  -1.494197  1.632334
C    -1.392702  -0.785562  2.920665
C    -0.961817  -1.736306  4.069734
O    0.264003  -1.695796  4.474749
H    -2.394958  -1.652818  1.248324
H    -0.553943  -0.072963  2.847407
C    -2.654129  0.086487  3.138646
C    -2.605496  0.941752  4.420682
C    -3.535126  2.174300  4.412866
N    -4.970411  1.903988  4.575940
C    -5.753467  2.391521  5.570477
N    -7.061166  2.555150  5.351917
N    -5.240715  2.686337  6.768606
H    -3.562357  -0.531309  3.109818
H    -2.696835  0.750075  2.260395
H    -1.587900  1.344198  4.548200
H    -2.808387  0.327040  5.310716
H    -3.399865  2.737734  3.476944
H    -3.225628  2.856156  5.213958
H    -5.478031  1.622084  3.742731
H    -7.708477  2.712978  6.118350
H    -7.443987  2.629946  4.415568
H    -5.776128  3.215746  7.449517
H    -4.332439  2.353490  7.064802
N    -1.768364  -2.583559  4.676026
C    -3.194085  -2.860487  4.470239
H    -1.308442  -3.133261  5.407618
H    -3.817234  -2.166871  5.048830
H    -3.387584  -3.877260  4.827217
H    -3.456366  -2.818021  3.409452
Cd    1.754112  -1.455938  2.976064
