37
Energy: -175314.069512 eV PBE+vdW (tier 2 basis)
C    -2.055650  0.801584  -1.297655
C    -1.320889  1.078886  -0.042434
O    -0.553678  2.106975  0.015884
H    -1.304608  0.739525  -2.105306
H    -2.703871  1.647441  -1.568744
H    -2.615810  -0.137841  -1.273747
N    -1.389684  0.257711  1.040346
C    -2.620154  -0.210992  1.684924
C    -3.073278  0.921695  2.653831
O    -2.255481  1.850143  3.035507
H    -0.609237  0.373209  1.689465
H    -3.389780  -0.305951  0.905799
C    -2.449287  -1.601201  2.356568
C    -1.346909  -1.717563  3.425134
C    -1.385712  -3.015210  4.259042
N    -0.928147  -4.206730  3.537390
C    -0.346727  -5.284371  4.117381
N    0.188982  -6.231442  3.340848
N    -0.281771  -5.396756  5.447023
H    -3.417220  -1.877229  2.798287
H    -2.279787  -2.307099  1.530036
H    -1.448896  -0.900445  4.156955
H    -0.344802  -1.623404  2.978147
H    -2.402787  -3.170127  4.657625
H    -0.712391  -2.874823  5.114743
H    -1.253232  -4.350325  2.586827
H    0.406571  -6.064728  2.365101
H    0.444749  -7.139054  3.716843
H    0.302197  -6.106483  5.879019
H    -0.921693  -4.907063  6.060670
N    -4.296961  0.949493  3.140216
C    -5.419845  0.026477  2.938156
H    -4.479125  1.737497  3.769073
H    -5.293236  -0.562539  2.025763
H    -5.524594  -0.639810  3.804559
H    -6.335124  0.622975  2.847480
Cd    -0.858406  3.046973  1.925279
