37
Energy: -175313.992088 eV PBE+vdW (tier 2 basis)
C    0.069644  0.282995  0.799677
C    -0.517611  -0.411801  1.980678
O    0.176650  -1.239853  2.696125
H    0.570769  -0.451338  0.154743
H    0.827991  1.003970  1.145621
H    -0.658909  0.831631  0.197010
N    -1.778090  -0.261124  2.362895
C    -2.850874  0.550216  1.779666
C    -3.720248  0.939504  3.010946
O    -3.770518  0.154835  3.960701
H    -2.068089  -0.725111  3.237229
H    -2.408494  1.438406  1.314087
C    -3.719436  -0.183885  0.716698
C    -4.546148  -1.383124  1.210103
C    -5.432701  -1.948975  0.085505
N    -6.256562  -3.057945  0.571082
C    -7.415360  -3.483889  0.019551
N    -8.161669  -4.373644  0.684206
N    -7.823624  -3.012237  -1.161365
H    -3.043564  -0.488725  -0.097529
H    -4.387978  0.576031  0.283743
H    -5.191218  -1.087962  2.050855
H    -3.879191  -2.175830  1.584258
H    -4.803573  -2.285156  -0.756949
H    -6.106858  -1.164963  -0.290725
H    -5.874575  -3.636020  1.314637
H    -8.931288  -4.859337  0.233622
H    -8.023380  -4.557935  1.672019
H    -8.756104  -3.215669  -1.508067
H    -7.180605  -2.589764  -1.820281
N    -4.422964  2.097382  3.000791
C    -4.366054  3.216016  2.074717
H    -4.932162  2.253319  3.875301
H    -5.366393  3.663952  2.006073
H    -4.048831  2.900568  1.076740
H    -3.682447  3.998290  2.444274
Cd    2.269385  -1.381491  3.103299
