37
Energy: -175313.998809 eV PBE+vdW (tier 2 basis)
C    -1.102168  -1.176432  1.430817
C    -0.110047  -0.072164  1.308082
O    1.154826  -0.263900  1.515182
H    -0.904570  -1.929787  0.652116
H    -2.140654  -0.852112  1.325604
H    -0.986047  -1.663641  2.408708
N    -0.438316  1.178758  1.015288
C    -1.750955  1.819250  0.854593
C    -1.460472  2.949316  -0.185239
O    -0.413991  3.583482  -0.050809
H    0.337562  1.851200  0.927395
H    -2.471816  1.087125  0.474204
C    -2.227514  2.447308  2.192488
C    -3.550850  3.231964  2.117303
C    -3.865730  3.900914  3.466808
N    -5.154173  4.595275  3.432487
C    -5.519244  5.623980  4.231948
N    -6.663885  6.268028  3.976817
N    -4.744068  6.009807  5.248193
H    -1.421624  3.107259  2.548368
H    -2.320185  1.628670  2.922508
H    -4.373390  2.551154  1.844224
H    -3.499811  4.012378  1.343583
H    -3.086218  4.640452  3.701487
H    -3.866720  3.143354  4.270402
H    -5.897447  4.173411  2.882057
H    -7.066920  6.915571  4.647309
H    -7.148342  6.170768  3.091057
H    -4.935869  6.870452  5.751719
H    -4.045481  5.397459  5.651431
N    -2.344693  3.217492  -1.174664
C    -3.503755  2.453844  -1.612187
H    -2.014831  3.953210  -1.804988
H    -3.216872  1.653150  -2.312910
H    -4.180304  3.131203  -2.146422
H    -4.040653  2.017849  -0.763752
Cd    2.437109  -1.960232  1.371829
