37
Energy: -175313.785710 eV PBE+vdW (tier 2 basis)
C    0.936886  0.479491  -0.195343
C    0.562106  0.417223  1.255032
O    1.399804  0.510173  2.162548
H    1.362546  1.473504  -0.396814
H    0.100103  0.295655  -0.876844
H    1.738635  -0.247346  -0.383102
N    -0.777650  0.250246  1.559324
C    -1.318579  -0.058703  2.871674
C    -1.205440  1.160037  3.854280
O    -2.323503  1.513186  4.371340
H    -1.424439  0.217916  0.774769
H    -2.397740  -0.200914  2.728440
C    -0.719349  -1.328867  3.558548
C    -0.940581  -2.654604  2.797573
C    -2.226659  -3.416821  3.185440
N    -2.406140  -4.664634  2.440563
C    -2.222169  -5.925839  2.895754
N    -1.532867  -6.161379  4.016147
N    -2.749363  -6.943483  2.208095
H    -1.141622  -1.388669  4.573154
H    0.359123  -1.166776  3.681046
H    -0.071758  -3.297108  3.002958
H    -0.923858  -2.485935  1.710455
H    -3.120696  -2.803884  2.995841
H    -2.236377  -3.650624  4.258618
H    -2.769671  -4.588185  1.494474
H    -1.532740  -7.083013  4.442380
H    -0.882580  -5.487125  4.398801
H    -3.485920  -6.805728  1.523402
H    -2.477252  -7.904458  2.393619
N    -0.027905  1.691730  4.084599
C    0.252439  2.820539  4.961099
H    0.745877  1.276575  3.507199
H    1.330677  3.020615  4.935338
H    0.001411  2.590578  6.009848
H    -0.240608  3.743418  4.608272
Cd    -2.835756  3.155785  5.691132
