37
Energy: -175313.869842 eV PBE+vdW (tier 2 basis)
C    0.009564  -0.066734  -0.522125
C    0.340666  -0.342180  0.900683
O    1.543205  -0.632517  1.266159
H    0.636499  0.773813  -0.866119
H    -1.036765  0.181070  -0.699086
H    0.253593  -0.951703  -1.125865
N    -0.538933  -0.327830  1.915078
C    -2.009044  -0.436846  1.952011
C    -2.456531  -1.796973  1.316089
O    -2.166082  -2.018581  0.141051
H    -0.087023  -0.502542  2.815371
H    -2.227257  -0.467596  3.028860
C    -2.790165  0.757519  1.343131
C    -4.221575  0.824610  1.913407
C    -5.027891  2.083207  1.556712
N    -5.582430  2.056912  0.198664
C    -6.186084  3.113587  -0.399198
N    -6.647005  2.979441  -1.647874
N    -6.294155  4.283750  0.233151
H    -2.812636  0.686338  0.247971
H    -2.244289  1.675512  1.605226
H    -4.169383  0.811212  3.012393
H    -4.798638  -0.071748  1.633452
H    -4.398058  2.980346  1.657734
H    -5.847890  2.167120  2.290596
H    -5.822762  1.143982  -0.178912
H    -6.419233  2.174668  -2.220403
H    -7.249530  3.680517  -2.067817
H    -6.635635  5.108700  -0.250627
H    -6.201150  4.360824  1.239027
N    -3.153749  -2.639424  2.101712
C    -3.597557  -3.958214  1.657801
H    -3.256573  -2.416161  3.089148
H    -2.852536  -4.727327  1.913458
H    -3.730716  -3.947103  0.571162
H    -4.536728  -4.204825  2.166087
Cd    3.444818  -0.208622  0.359399
