37
Energy: -175313.881474 eV PBE+vdW (tier 2 basis)
C    -0.009958  -1.590834  1.296256
C    -0.164744  -1.570209  2.777987
O    0.232240  -2.557290  3.518058
H    1.062108  -1.619127  1.044092
H    -0.447556  -0.726781  0.789565
H    -0.473619  -2.502402  0.893886
N    -0.743743  -0.576015  3.438659
C    -1.387205  0.641689  2.936273
C    -1.234701  1.645876  4.116127
O    -1.248191  1.199232  5.264274
H    -0.749205  -0.633715  4.467934
H    -0.842904  0.991437  2.051313
C    -2.889258  0.460830  2.559611
C    -3.867240  0.087161  3.694825
C    -4.636263  1.255573  4.363448
N    -5.841082  1.694577  3.654166
C    -7.121043  1.428330  4.004610
N    -7.410292  0.453220  4.869925
N    -8.105625  2.156879  3.467069
H    -2.913975  -0.317297  1.782254
H    -3.206561  1.382662  2.048690
H    -3.341672  -0.457784  4.491350
H    -4.605228  -0.621281  3.293336
H    -3.992147  2.139852  4.476082
H    -4.928551  0.973034  5.382401
H    -5.725499  2.337956  2.877158
H    -8.340900  0.365336  5.266040
H    -6.741810  -0.264429  5.118660
H    -7.931504  3.055045  3.028621
H    -9.078320  1.879606  3.559046
N    -1.136061  2.971140  3.852902
C    -0.880425  3.638558  2.582542
H    -0.982224  3.527552  4.697955
H    -1.412815  3.153438  1.758004
H    0.197282  3.667990  2.354868
H    -1.227520  4.675516  2.663083
Cd    1.772488  -4.014092  3.276699
