37
Energy: -175314.066665 eV PBE+vdW (tier 2 basis)
C    0.860605  -0.219970  0.478550
C    0.110743  -1.461631  0.792837
O    0.526542  -2.563867  0.286529
H    0.807483  0.518756  1.281552
H    0.470671  0.220829  -0.455129
H    1.905950  -0.487375  0.272274
N    -0.985825  -1.491644  1.595669
C    -2.193146  -0.637345  1.537008
C    -2.897560  -0.921366  0.175097
O    -2.750619  -2.044369  -0.441046
H    -1.164678  -2.417352  1.987623
H    -2.867653  -1.095639  2.280070
C    -2.023060  0.837745  1.965850
C    -1.443190  0.964263  3.393162
C    -1.791525  2.246505  4.166265
N    -1.094265  3.446103  3.680238
C    -1.403736  4.706745  4.079092
N    -2.403537  4.926154  4.936688
N    -0.721070  5.737078  3.570966
H    -3.030040  1.284196  1.973139
H    -1.438106  1.405015  1.229426
H    -0.352083  0.816737  3.387024
H    -1.836704  0.144626  4.013381
H    -1.545638  2.066161  5.225751
H    -2.873897  2.432425  4.102033
H    -0.129518  3.319768  3.386169
H    -2.727267  5.869814  5.126656
H    -2.746086  4.202964  5.558063
H    -0.110294  5.632551  2.769356
H    -0.793265  6.667592  3.970086
N    -3.740810  -0.041700  -0.318948
C    -4.556626  -0.232763  -1.529511
H    -3.897508  0.813164  0.209699
H    -4.865684  0.751058  -1.893207
H    -5.446070  -0.830540  -1.290539
H    -3.969837  -0.745410  -2.297061
Cd    -1.212541  -3.522665  -0.549097
