37
Energy: -175313.883642 eV PBE+vdW (tier 2 basis)
C    1.261557  -0.922370  0.439735
C    0.767855  0.483516  0.447094
O    1.489197  1.469308  0.030412
H    2.303650  -0.955357  0.786159
H    1.219342  -1.303338  -0.592663
H    0.679039  -1.597488  1.073552
N    -0.451509  0.809172  0.873535
C    -1.556455  -0.099520  1.210772
C    -1.998712  -0.874146  -0.074358
O    -1.619166  -0.506020  -1.182267
H    -0.682830  1.796019  0.758660
H    -1.186181  -0.824768  1.950655
C    -2.736905  0.665505  1.860714
C    -3.449997  1.703548  0.972494
C    -4.851342  2.114286  1.450812
N    -4.840486  2.904323  2.688917
C    -5.941839  3.179046  3.430360
N    -5.802526  3.856869  4.575055
N    -7.146763  2.754552  3.044000
H    -2.366416  1.120759  2.791968
H    -3.461354  -0.098120  2.181100
H    -3.592751  1.301233  -0.041764
H    -2.839196  2.612113  0.840438
H    -5.460055  1.214719  1.627367
H    -5.329655  2.690290  0.640607
H    -4.049049  3.525098  2.835336
H    -4.897403  3.993126  5.010714
H    -6.607089  4.226244  5.072339
H    -7.950129  2.836305  3.659898
H    -7.342388  2.497851  2.083641
N    -2.809209  -1.949111  0.113137
C    -3.271862  -2.788176  -0.981029
H    -2.960843  -2.291398  1.060875
H    -2.591065  -3.641684  -1.141730
H    -3.303983  -2.196805  -1.902308
H    -4.259511  -3.192514  -0.727311
Cd    3.511680  1.549911  -0.668040
