37
Energy: -175314.939545 eV PBE+vdW (tier 2 basis)
C    -1.446448  -0.552559  -0.573732
C    -1.504014  -0.664762  0.913142
O    -1.216736  -1.809514  1.412345
H    -1.741127  0.433492  -0.949238
H    -2.109062  -1.316430  -1.008083
H    -0.429537  -0.792053  -0.916481
N    -1.860699  0.421866  1.618420
C    -2.265901  0.622539  3.038645
C    -1.062491  0.604049  4.006035
O    -0.564321  -0.487574  4.481350
H    -2.024953  1.238478  1.033125
H    -2.638739  1.653991  3.040917
C    -3.450141  -0.271031  3.479022
C    -4.176864  0.255149  4.732767
C    -5.481015  -0.519488  5.004986
N    -6.163720  -0.005999  6.194018
C    -7.499142  -0.027125  6.409980
N    -8.002543  0.657044  7.441026
N    -8.315896  -0.697710  5.590011
H    -3.136020  -1.315606  3.636735
H    -4.146275  -0.294855  2.627569
H    -4.424770  1.319197  4.597650
H    -3.516963  0.185235  5.612598
H    -5.267714  -1.595929  5.118161
H    -6.159377  -0.398987  4.148478
H    -5.590058  0.226248  6.999738
H    -8.950178  0.496916  7.768045
H    -7.469579  1.373136  7.922013
H    -9.322399  -0.578884  5.653769
H    -7.990810  -1.479363  5.034184
N    -0.543603  1.738964  4.429713
C    -0.939448  3.124241  4.122948
H    0.245429  1.624711  5.072221
H    -1.939204  3.347482  4.515050
H    -0.894653  3.315953  3.044514
H    -0.223365  3.788225  4.615753
Cd    -0.452662  -2.241052  3.316605
