37
Energy: -175313.792249 eV PBE+vdW (tier 2 basis)
C    0.458375  0.528642  0.860161
C    0.522977  -0.947036  1.050740
O    1.567896  -1.630182  0.741451
H    0.466649  0.750317  -0.218068
H    1.352824  0.993967  1.299679
H    -0.420982  1.005578  1.300570
N    -0.508433  -1.674194  1.506593
C    -1.924716  -1.290595  1.657940
C    -2.460365  -1.974849  2.967272
O    -3.258447  -2.913627  2.898495
H    -0.311417  -2.678046  1.554956
H    -1.969251  -0.200836  1.789043
C    -2.771448  -1.714535  0.446445
C    -4.223792  -1.176304  0.510645
C    -5.290947  -2.155776  0.016526
N    -5.477982  -3.263947  0.952498
C    -6.461307  -4.189075  0.876935
N    -6.568530  -5.093499  1.859852
N    -7.308439  -4.201696  -0.151315
H    -2.756661  -2.812533  0.389148
H    -2.279047  -1.348052  -0.464113
H    -4.306807  -0.273245  -0.107287
H    -4.492884  -0.862489  1.530162
H    -5.019724  -2.549734  -0.980535
H    -6.246364  -1.616157  -0.095851
H    -4.804110  -3.332587  1.723049
H    -7.258919  -5.837637  1.826178
H    -6.009929  -5.029097  2.703363
H    -8.091219  -4.847587  -0.185294
H    -7.197550  -3.588598  -0.949856
N    -1.994046  -1.481902  4.131581
C    -2.430169  -1.957870  5.439786
H    -1.418202  -0.643636  4.107809
H    -1.624021  -1.792441  6.162894
H    -2.677841  -3.022177  5.372087
H    -3.320832  -1.407746  5.781492
Cd    3.666790  -1.137288  0.532052
