37
Energy: -175313.909171 eV PBE+vdW (tier 2 basis)
C    0.015072  1.879033  0.282578
C    -0.041403  0.722760  1.223873
O    0.927696  0.468238  2.048511
H    0.979297  1.874358  -0.245087
H    -0.060483  2.816324  0.857064
H    -0.777936  1.882314  -0.469763
N    -1.066020  -0.115846  1.276493
C    -2.330092  -0.073861  0.519318
C    -3.370031  -0.743610  1.447605
O    -3.002978  -1.705465  2.143971
H    -1.034391  -0.856679  1.987798
H    -2.585121  0.978223  0.352536
C    -2.289158  -0.806622  -0.860543
C    -2.705544  -2.286760  -0.930670
C    -1.702311  -3.307208  -0.337977
N    -2.200815  -4.674834  -0.411711
C    -2.797544  -5.366903  0.589393
N    -3.064414  -6.663452  0.396493
N    -3.106275  -4.769926  1.741559
H    -1.285962  -0.665561  -1.290220
H    -2.973191  -0.255867  -1.522063
H    -2.845533  -2.528286  -1.993976
H    -3.691316  -2.430889  -0.463981
H    -1.453627  -3.090532  0.706751
H    -0.761875  -3.275835  -0.907837
H    -2.153409  -5.136831  -1.317411
H    -2.682092  -7.179853  -0.389746
H    -3.610710  -7.199632  1.064217
H    -3.435898  -5.316451  2.530698
H    -3.080092  -3.757814  1.864078
N    -4.642738  -0.306429  1.434233
C    -5.217155  0.843542  0.744828
H    -5.250420  -0.799393  2.092240
H    -6.295424  0.679660  0.640260
H    -4.787188  0.969542  -0.254669
H    -5.074857  1.768135  1.327288
Cd    2.634648  1.617879  2.607553
