37
Energy: -175314.418103 eV PBE+vdW (tier 2 basis)
C    0.719769  1.219378  1.362681
C    0.377245  -0.157283  1.826093
O    1.330823  -1.010943  1.837652
H    1.164641  1.150775  0.358641
H    1.496166  1.638534  2.018837
H    -0.140736  1.896477  1.329964
N    -0.894427  -0.408315  2.184043
C    -1.627393  -1.672673  2.471054
C    -1.268683  -2.237137  3.866852
O    -0.257973  -3.011156  4.064357
H    -1.495480  0.410978  2.126548
H    -2.673106  -1.347083  2.532702
C    -1.537400  -2.716064  1.334206
C    -2.624594  -3.821390  1.368912
C    -3.787658  -3.560942  0.392177
N    -4.730957  -4.680708  0.393851
C    -5.466894  -5.102976  -0.659400
N    -6.070860  -6.292722  -0.597745
N    -5.573440  -4.354081  -1.762651
H    -0.548484  -3.200833  1.324870
H    -1.583224  -2.160355  0.386642
H    -3.014293  -3.951512  2.392004
H    -2.161646  -4.780062  1.101758
H    -3.385110  -3.463039  -0.626101
H    -4.305809  -2.618428  0.640146
H    -4.927953  -5.131674  1.282246
H    -6.803051  -6.547282  -1.253471
H    -5.803356  -6.996106  0.082038
H    -5.982515  -4.737890  -2.609218
H    -5.450909  -3.349047  -1.738991
N    -2.038850  -1.968796  4.902695
C    -3.272203  -1.168163  4.969322
H    -1.715470  -2.378345  5.783633
H    -3.635297  -1.205350  6.000384
H    -4.052633  -1.582002  4.319563
H    -3.073686  -0.119910  4.714992
Cd    1.535442  -2.765873  2.974714
