37
Energy: -175314.082996 eV PBE+vdW (tier 2 basis)
C    -0.940076  -0.112069  -1.300126
C    0.025834  -0.176625  -0.175118
O    1.278144  -0.151671  -0.451282
H    -0.460890  0.405713  -2.142077
H    -1.874567  0.385584  -1.029484
H    -1.158842  -1.133160  -1.658346
N    -0.344765  -0.249205  1.131913
C    -1.313719  -1.172678  1.765089
C    -0.743345  -2.615409  1.606088
O    0.522703  -2.833404  1.499441
H    0.387323  0.066939  1.769501
H    -1.205855  -0.961364  2.842424
C    -2.801437  -0.951401  1.414408
C    -3.262255  0.493858  1.691612
C    -4.745641  0.790496  1.411541
N    -5.634125  0.309869  2.479857
C    -6.987204  0.266412  2.379404
N    -7.702799  -0.184283  3.413788
N    -7.601032  0.626815  1.248958
H    -3.394828  -1.634649  2.042326
H    -3.004522  -1.230592  0.370499
H    -2.684525  1.191088  1.068722
H    -3.022825  0.775769  2.730168
H    -5.054848  0.316522  0.467980
H    -4.851946  1.880793  1.291096
H    -5.282038  0.408886  3.428860
H    -7.269503  -0.641929  4.207386
H    -8.710388  -0.066814  3.451269
H    -7.157552  1.231530  0.568110
H    -8.596982  0.470161  1.126712
N    -1.552489  -3.649824  1.672318
C    -1.128226  -5.059250  1.639161
H    -2.543167  -3.468888  1.815380
H    -0.695840  -5.344327  2.607095
H    -0.382645  -5.206562  0.851512
H    -2.007304  -5.676392  1.435604
Cd    2.173231  -1.746085  0.685833
