37
Energy: -175315.338002 eV PBE+vdW (tier 2 basis)
C    2.165734  1.973637  3.331982
C    1.236612  1.897416  2.168550
O    1.638486  1.247523  1.141270
H    1.733626  2.483179  4.199994
H    3.089976  2.484194  3.024555
H    2.457936  0.951696  3.616318
N    0.033687  2.491193  2.261610
C    -1.139858  2.352825  1.373132
C    -1.075624  3.377704  0.209361
O    -0.381805  3.126671  -0.846905
H    -0.120058  3.020170  3.118536
H    -1.070788  1.362075  0.893274
C    -2.451248  2.385326  2.188994
C    -2.668746  1.166027  3.108310
C    -4.055109  1.212955  3.779011
N    -4.270944  0.037565  4.625465
C    -5.147920  -0.037343  5.652751
N    -5.117225  -1.101699  6.459661
N    -6.016716  0.952915  5.883486
H    -3.279335  2.438243  1.465895
H    -2.493015  3.311157  2.789387
H    -1.893646  1.113516  3.886847
H    -2.588088  0.245249  2.508108
H    -4.837545  1.280452  3.003855
H    -4.131168  2.106621  4.415608
H    -3.892652  -0.848116  4.302084
H    -5.879902  -1.300863  7.099262
H    -4.326669  -1.735858  6.480897
H    -6.561284  0.973064  6.740325
H    -6.313581  1.584166  5.149179
N    -1.735424  4.511701  0.283342
C    -1.744431  5.568410  -0.740708
H    -2.328645  4.662494  1.096940
H    -0.844440  5.494950  -1.355354
H    -1.779284  6.538939  -0.235127
H    -2.632992  5.458329  -1.376262
Cd    1.120079  1.641515  -0.869634
