37
Energy: -175315.054130 eV PBE+vdW (tier 2 basis)
C    1.618992  -2.588464  4.157786
C    0.926275  -1.294923  3.898349
O    1.524787  -0.454806  3.140030
H    1.795887  -3.087915  3.192351
H    1.049940  -3.260736  4.809265
H    2.609236  -2.393233  4.592609
N    -0.284005  -1.085900  4.448379
C    -1.283368  -0.049861  4.107410
C    -1.044397  1.230084  4.945339
O    -0.217766  2.130502  4.543172
H    -0.609474  -1.831940  5.061177
H    -1.100071  0.246550  3.060931
C    -2.700944  -0.669261  4.152552
C    -3.809831  0.228606  3.565256
C    -5.079754  -0.523578  3.112006
N    -5.965165  -1.003046  4.182421
C    -7.268566  -0.660106  4.337157
N    -8.099317  -1.509681  4.947477
N    -7.725212  0.520857  3.910520
H    -2.945762  -0.994135  5.178843
H    -2.634474  -1.592445  3.555617
H    -3.423462  0.722918  2.659904
H    -4.082623  1.033594  4.263470
H    -4.800689  -1.386975  2.488704
H    -5.664388  0.133983  2.457645
H    -5.706960  -1.877669  4.629357
H    -7.893749  -2.499947  5.024662
H    -9.014966  -1.211891  5.270306
H    -8.721860  0.706729  3.858243
H    -7.107812  1.287750  3.677890
N    -1.678804  1.405970  6.083677
C    -1.492074  2.544784  6.996387
H    -2.370005  0.708180  6.350325
H    -0.474267  2.931528  6.899015
H    -1.666602  2.199058  8.020034
H    -2.207121  3.341866  6.753549
Cd    1.314369  1.644550  3.157188
