37
Energy: -175315.045969 eV PBE+vdW (tier 2 basis)
C    -1.595961  0.542423  0.165964
C    -0.974201  0.132446  1.458449
O    -0.286412  -0.950234  1.446920
H    -2.233171  -0.281612  -0.190225
H    -0.809732  0.674990  -0.590792
H    -2.198487  1.454157  0.240475
N    -1.182669  0.902245  2.539228
C    -0.981211  0.679295  4.001786
C    0.486049  0.895741  4.441202
O    1.413759  0.021624  4.258992
H    -1.717291  1.743599  2.331561
H    -1.555968  1.501465  4.449738
C    -1.614058  -0.633213  4.526396
C    -1.929851  -0.592679  6.034886
C    -2.650522  -1.872814  6.508019
N    -2.914011  -1.879564  7.950035
C    -4.107601  -2.071447  8.559044
N    -4.132473  -2.557417  9.802405
N    -5.256222  -1.774801  7.940337
H    -0.976066  -1.505137  4.303894
H    -2.539728  -0.788913  3.953161
H    -2.561368  0.281332  6.257504
H    -1.003318  -0.467026  6.617288
H    -2.043717  -2.760199  6.267935
H    -3.602856  -2.003547  5.978736
H    -2.103829  -1.980459  8.555232
H    -3.341122  -3.048611  10.204359
H    -4.965484  -2.489815  10.379353
H    -6.145385  -2.073338  8.328563
H    -5.295798  -1.123178  7.167612
N    0.774848  2.015104  5.073251
C    2.099448  2.418121  5.563717
H    0.012290  2.667005  5.253249
H    2.101433  2.404567  6.661278
H    2.303056  3.439590  5.221038
H    2.859301  1.732377  5.184590
Cd    1.344332  -1.383077  2.688819
