37
Energy: -175313.951863 eV PBE+vdW (tier 2 basis)
C    -1.943744  -1.667177  0.866658
C    -0.610465  -1.153480  1.296705
O    0.378769  -1.953529  1.551077
H    -2.265751  -2.464329  1.552043
H    -1.858623  -2.094403  -0.145231
H    -2.730507  -0.908524  0.847290
N    -0.349685  0.137559  1.445561
C    -1.218200  1.292026  1.143377
C    -0.254360  2.421670  0.708291
O    0.814498  2.565374  1.320892
H    0.608930  0.392637  1.710333
H    -1.868166  1.008426  0.306937
C    -2.117715  1.757263  2.332620
C    -1.594963  2.843882  3.288064
C    -0.486799  2.408233  4.276693
N    -0.033736  3.509353  5.118205
C    1.061633  4.278538  4.910932
N    1.415631  5.154178  5.858721
N    1.774972  4.161917  3.789340
H    -2.426334  0.863053  2.895280
H    -3.037760  2.153477  1.879877
H    -2.456736  3.189073  3.877161
H    -1.255428  3.722502  2.719957
H    0.386797  1.990223  3.763601
H    -0.873139  1.628420  4.949034
H    -0.624901  3.763593  5.906738
H    2.155559  5.833197  5.706474
H    1.004469  5.137400  6.787045
H    2.664818  4.640642  3.695542
H    1.448088  3.635125  2.979666
N    -0.668442  3.219702  -0.294189
C    0.092899  4.341007  -0.823334
H    -1.540872  2.989814  -0.767814
H    0.462309  4.102961  -1.833583
H    0.943830  4.546207  -0.169839
H    -0.561039  5.220314  -0.905959
Cd    0.578574  -4.063529  1.305645
