37
Energy: -175313.398923 eV PBE+vdW (tier 2 basis)
C    -2.241399  -0.243330  -0.785858
C    -1.690316  0.611706  0.315077
O    -0.819942  1.475700  0.128018
H    -3.334833  -0.127052  -0.843162
H    -2.031300  -1.307010  -0.603277
H    -1.795379  0.058307  -1.737105
N    -2.199738  0.396294  1.581832
C    -1.739920  0.951624  2.843019
C    -1.904471  2.505303  2.933111
O    -2.535518  2.870436  3.988134
H    -2.913278  -0.327764  1.659190
H    -2.459262  0.581634  3.585549
C    -0.349157  0.432607  3.374628
C    0.941624  0.833078  2.647537
C    2.103615  -0.182047  2.760636
N    2.756783  -0.212500  4.070977
C    4.066007  -0.500910  4.281147
N    4.835535  -0.949367  3.288221
N    4.582054  -0.314824  5.501291
H    -0.467908  -0.661939  3.362432
H    -0.320478  0.728456  4.434479
H    1.289650  1.824344  2.971471
H    0.760154  0.909089  1.565766
H    2.864627  0.103695  2.022908
H    1.738507  -1.188312  2.494896
H    2.170923  -0.207393  4.901018
H    5.844194  -1.006402  3.395510
H    4.445983  -1.387804  2.461721
H    4.121767  0.262880  6.196019
H    5.485816  -0.702143  5.756723
N    -1.423665  3.286221  1.995331
C    -1.547773  4.737767  1.936458
H    -1.007529  2.767049  1.184076
H    -1.036140  5.220233  2.782560
H    -2.604527  5.050685  1.869697
H    -1.063772  5.089191  1.018049
Cd    -3.384831  4.756189  4.654658
