37
Energy: -175314.958469 eV PBE+vdW (tier 2 basis)
C    0.036041  2.172215  1.444051
C    -0.159119  0.716866  1.709501
O    0.709036  -0.080033  1.203408
H    1.006199  2.488638  1.853673
H    -0.761506  2.802078  1.852783
H    0.094913  2.324643  0.355780
N    -1.221155  0.341089  2.440588
C    -1.878848  -0.975171  2.686416
C    -1.133740  -1.840266  3.731356
O    -0.075648  -2.522749  3.459381
H    -1.762551  1.130605  2.787362
H    -2.825341  -0.684153  3.162748
C    -2.261915  -1.737563  1.393457
C    -3.263078  -2.876914  1.665033
C    -3.785693  -3.626698  0.426686
N    -4.788029  -2.857843  -0.324364
C    -5.252778  -3.208634  -1.550328
N    -6.143476  -2.421154  -2.159428
N    -4.797664  -4.304488  -2.164956
H    -1.371307  -2.139898  0.883670
H    -2.690215  -0.996050  0.703626
H    -4.122450  -2.493339  2.240285
H    -2.797457  -3.639162  2.307334
H    -4.216564  -4.579797  0.774080
H    -2.954220  -3.863031  -0.253814
H    -5.424799  -2.287692  0.226204
H    -6.653645  -2.734844  -2.979201
H    -6.351839  -1.487528  -1.824597
H    -5.043248  -4.495350  -3.131880
H    -4.385291  -5.073482  -1.650176
N    -1.654303  -1.920320  4.938817
C    -1.114242  -2.686746  6.069826
H    -2.523935  -1.417997  5.113605
H    -1.797796  -3.512344  6.307032
H    -1.043561  -2.023420  6.940442
H    -0.130369  -3.083394  5.812989
Cd    1.302966  -1.932496  1.983036
