37
Energy: -175314.003264 eV PBE+vdW (tier 2 basis)
C    -0.728671  1.545135  -0.062011
C    -0.331273  0.957640  1.249285
O    0.874285  1.074353  1.708210
H    -0.002426  1.248185  -0.830591
H    -0.710156  2.644387  0.014837
H    -1.726985  1.253608  -0.398737
N    -1.158679  0.258484  2.014792
C    -2.561676  -0.101511  1.801841
C    -3.153880  -0.150182  3.245970
O    -2.416279  -0.453447  4.181704
H    -0.809979  -0.038114  2.938767
H    -3.046168  0.691347  1.217349
C    -2.796989  -1.455400  1.073560
C    -2.329268  -2.727109  1.799213
C    -2.743959  -3.988494  1.020156
N    -2.362369  -5.201401  1.747100
C    -2.295337  -6.445482  1.221304
N    -1.793119  -7.439038  1.963377
N    -2.702778  -6.680121  -0.028566
H    -2.318291  -1.376941  0.084277
H    -3.878829  -1.515081  0.875376
H    -2.773090  -2.770135  2.806348
H    -1.237237  -2.723180  1.931467
H    -2.254960  -4.008777  0.034398
H    -3.835860  -3.974062  0.856395
H    -2.300131  -5.138139  2.759668
H    -1.890235  -8.410165  1.683126
H    -1.272103  -7.261615  2.815186
H    -2.530591  -7.576659  -0.472935
H    -3.327696  -6.049303  -0.515645
N    -4.473147  0.122432  3.374632
C    -5.141074  0.206969  4.664386
H    -4.991599  0.439821  2.556936
H    -6.176538  -0.138454  4.551012
H    -5.171875  1.249823  5.022919
H    -4.593563  -0.395406  5.396221
Cd    2.376319  2.571271  1.429337
