37
Energy: -175315.048314 eV PBE+vdW (tier 2 basis)
C    -1.813061  2.037696  0.432349
C    -1.932731  0.731290  1.139187
O    -2.516928  -0.219580  0.512058
H    -1.307682  2.806457  1.027153
H    -2.812065  2.387578  0.137208
H    -1.250546  1.877959  -0.500845
N    -1.410531  0.612144  2.373758
C    -1.138009  -0.621914  3.142808
C    -2.378815  -1.024745  3.977257
O    -3.303141  -1.756527  3.461496
H    -1.013298  1.469599  2.754476
H    -0.999004  -1.436274  2.412039
C    0.203105  -0.470749  3.900497
C    0.731918  -1.777406  4.528306
C    2.249079  -1.791198  4.815680
N    2.695501  -1.014320  5.980566
C    3.360720  -1.516159  7.051036
N    3.198544  -2.787540  7.428510
N    4.171399  -0.716971  7.749900
H    0.132986  0.337644  4.649057
H    0.925277  -0.117832  3.147605
H    0.560010  -2.604234  3.821228
H    0.177233  -2.033406  5.443000
H    2.800543  -1.430141  3.934103
H    2.571279  -2.829623  4.958225
H    2.816427  -0.015427  5.843352
H    3.823329  -3.214166  8.105386
H    2.426588  -3.354634  7.103153
H    4.551741  0.138014  7.358483
H    4.516163  -0.986408  8.666345
N    -2.501393  -0.613188  5.220177
C    -3.653367  -0.867214  6.098806
H    -1.727486  -0.084766  5.617654
H    -4.532027  -1.102282  5.493737
H    -3.837062  0.030395  6.698557
H    -3.434623  -1.711182  6.765805
Cd    -3.547074  -1.855890  1.355886
