37
Energy: -175313.232626 eV PBE+vdW (tier 2 basis)
C    1.105346  0.353892  0.032185
C    0.152679  1.263858  0.747317
O    0.368823  2.476735  0.895567
H    2.125426  0.735895  0.144853
H    0.863906  0.388598  -1.043183
H    1.048033  -0.689123  0.363063
N    -1.009248  0.695648  1.229065
C    -2.028716  1.313395  2.058457
C    -2.779647  2.497879  1.360124
O    -4.053794  2.376204  1.444182
H    -1.132912  -0.299345  1.047962
H    -2.812192  0.549442  2.151653
C    -1.655444  1.652230  3.549780
C    -0.491096  2.607905  3.874444
C    0.842521  1.941894  4.296186
N    0.898398  1.514549  5.696579
C    1.593652  2.109283  6.695791
N    1.825016  1.421984  7.819006
N    2.043504  3.360283  6.573799
H    -1.493512  0.666675  4.012599
H    -2.586997  2.026937  3.996636
H    -0.815716  3.288922  4.674189
H    -0.252670  3.251676  3.016578
H    1.675486  2.633260  4.119043
H    1.052510  1.056338  3.679819
H    0.459287  0.630779  5.937641
H    2.185942  1.877792  8.652032
H    1.743654  0.411178  7.857676
H    2.704054  3.745459  7.241977
H    1.695188  3.993493  5.865704
N    -2.117858  3.470484  0.781691
C    -2.698504  4.609020  0.078018
H    -1.078449  3.339606  0.791431
H    -1.881525  5.223338  -0.317325
H    -3.282130  5.247863  0.758944
H    -3.296902  4.284510  -0.789329
Cd    -5.739968  3.510033  0.696554
