37
Energy: -175313.789485 eV PBE+vdW (tier 2 basis)
C    0.552207  0.841023  0.513803
C    0.459409  0.404837  1.945290
O    1.430257  -0.044798  2.568240
H    1.156819  1.760327  0.476964
H    -0.418430  1.030030  0.043941
H    1.104696  0.080430  -0.052495
N    -0.771253  0.529873  2.567979
C    -1.135006  -0.031667  3.856757
C    -0.413376  0.702078  5.043102
O    -1.211754  1.157481  5.935690
H    -1.521334  0.943206  2.018728
H    -2.200378  0.193088  3.994896
C    -0.907291  -1.571849  4.008406
C    -1.638932  -2.465560  2.985409
C    -3.075832  -2.872822  3.355399
N    -3.593194  -3.824279  2.367102
C    -4.481868  -4.819181  2.591145
N    -5.179737  -4.869069  3.729213
N    -4.641667  -5.766004  1.660228
H    -1.188352  -1.848494  5.035555
H    0.169074  -1.764671  3.919427
H    -1.042232  -3.384550  2.890235
H    -1.626009  -1.991657  1.991165
H    -3.742050  -1.994705  3.415583
H    -3.080374  -3.368370  4.337085
H    -3.292992  -3.703712  1.403091
H    -5.333998  -4.044271  4.296236
H    -5.729783  -5.689447  3.965296
H    -5.427081  -6.409769  1.690280
H    -3.961800  -5.913613  0.921320
N    0.897200  0.771572  5.049401
C    1.721857  1.406956  6.067247
H    1.348045  0.375367  4.185304
H    2.774924  1.294621  5.781185
H    1.610106  0.911883  7.046338
H    1.534250  2.493722  6.125861
Cd    -0.825073  2.323282  7.723623
