37
Energy: -175313.928015 eV PBE+vdW (tier 2 basis)
C    0.322872  -0.054418  1.101116
C    -0.201150  0.489096  2.384067
O    0.577623  0.757329  3.383454
H    1.010951  0.677731  0.650542
H    -0.454158  -0.278311  0.365820
H    0.893171  -0.972485  1.300625
N    -1.490538  0.705084  2.618350
C    -2.692783  0.332920  1.857183
C    -3.714011  1.453493  2.238540
O    -3.839272  1.733324  3.428309
H    -1.720033  1.098064  3.542031
H    -2.468276  0.344405  0.782951
C    -3.212898  -1.050723  2.339384
C    -4.619574  -1.524681  1.924450
C    -4.794956  -1.967215  0.451349
N    -5.757704  -3.060668  0.276022
C    -7.048429  -2.973446  -0.109029
N    -7.660232  -4.060057  -0.587215
N    -7.707580  -1.809041  -0.033396
H    -3.201578  -1.017093  3.438717
H    -2.464779  -1.801205  2.038464
H    -5.374914  -0.772450  2.199122
H    -4.831654  -2.394201  2.562435
H    -3.841214  -2.346820  0.057347
H    -5.099548  -1.137614  -0.201302
H    -5.398113  -4.003311  0.400820
H    -8.671554  -4.105683  -0.669912
H    -7.140566  -4.868479  -0.914209
H    -8.623448  -1.709347  -0.460186
H    -7.448973  -1.106276  0.647408
N    -4.407940  2.041338  1.240299
C    -5.310845  3.166097  1.478029
H    -4.135805  1.849344  0.279156
H    -6.078169  3.177544  0.696313
H    -4.765499  4.122065  1.443267
H    -5.760912  3.061929  2.471185
Cd    2.632030  1.292785  3.578483
