37
Energy: -175315.165684 eV PBE+vdW (tier 2 basis)
C    -0.910056  0.090086  -0.369531
C    -1.497197  -0.495386  0.869065
O    -2.377096  -1.413211  0.719765
H    -0.136613  0.839630  -0.169678
H    -1.710825  0.532728  -0.978968
H    -0.477632  -0.724881  -0.970023
N    -1.065017  -0.050478  2.062781
C    -1.271325  -0.646879  3.400287
C    -2.594980  -0.134844  4.027183
O    -3.706303  -0.739737  3.790277
H    -0.391616  0.712796  2.016892
H    -1.416572  -1.730724  3.256178
C    0.009210  -0.460801  4.248554
C    0.009194  -1.256253  5.567834
C    1.234010  -1.037256  6.473783
N    2.450632  -1.686344  5.966880
C    3.699188  -1.429860  6.433659
N    3.895591  -0.534995  7.406133
N    4.742252  -2.053709  5.879116
H    0.181592  0.612172  4.445404
H    0.851699  -0.779850  3.617058
H    -0.102219  -2.332580  5.358597
H    -0.865393  -0.987077  6.178215
H    0.981681  -1.425011  7.474095
H    1.438933  0.038963  6.573576
H    2.330886  -2.607451  5.553098
H    4.834673  -0.239661  7.656220
H    3.160214  -0.277768  8.053656
H    4.659738  -2.571152  5.011600
H    5.659438  -2.037331  6.313939
N    -2.591129  0.923421  4.807364
C    -3.771801  1.541909  5.429526
H    -1.689449  1.345472  5.021027
H    -4.676517  1.202469  4.920851
H    -3.677121  2.630386  5.349927
H    -3.820501  1.260281  6.489599
Cd    -3.946571  -1.911075  2.041063
