37
Energy: -175314.539122 eV PBE+vdW (tier 2 basis)
C    -4.457309  -1.080037  0.845162
C    -3.116941  -1.194785  1.487169
O    -2.112533  -1.360850  0.714573
H    -4.435773  -0.243295  0.130884
H    -5.268719  -0.921468  1.563921
H    -4.656124  -1.986644  0.256088
N    -3.030072  -1.104168  2.828088
C    -1.807092  -0.986660  3.638006
C    -1.134375  -2.367539  3.876108
O    -0.127584  -2.695926  3.134425
H    -3.917202  -0.995584  3.315012
H    -1.069517  -0.448740  3.019310
C    -2.012873  -0.106801  4.895970
C    -2.123422  1.396150  4.557432
C    -1.877934  2.370323  5.727202
N    -3.025285  2.555801  6.621459
C    -3.285353  3.692364  7.311605
N    -4.457890  3.818503  7.941901
N    -2.397644  4.689553  7.349678
H    -1.138616  -0.271822  5.544577
H    -2.887401  -0.456777  5.463130
H    -3.088629  1.629903  4.084571
H    -1.351151  1.641698  3.812271
H    -1.654723  3.350739  5.286354
H    -0.987819  2.054012  6.297127
H    -3.549128  1.738742  6.916765
H    -5.256632  3.240407  7.707888
H    -4.610319  4.551351  8.627668
H    -2.659716  5.604086  7.705154
H    -1.410381  4.539032  7.179727
N    -1.495970  -3.228870  4.803947
C    -2.545960  -3.162581  5.826072
H    -0.921469  -4.077151  4.816322
H    -3.434002  -2.649490  5.446405
H    -2.174765  -2.673133  6.735376
H    -2.827185  -4.190756  6.076521
Cd    -0.174942  -2.136685  1.091459
