37
Energy: -175313.987946 eV PBE+vdW (tier 2 basis)
C    -0.629866  -1.240491  1.480949
C    -0.089394  0.147905  1.523160
O    1.172625  0.390366  1.668248
H    -0.281844  -1.739354  0.563835
H    -1.721529  -1.290459  1.515520
H    -0.242088  -1.809084  2.338993
N    -0.850552  1.226513  1.377797
C    -2.247362  1.360542  0.925370
C    -2.187501  2.480572  -0.151300
O    -1.510905  3.478385  0.089550
H    -0.361528  2.131608  1.409067
H    -2.587747  0.409022  0.498549
C    -3.141966  1.799577  2.118544
C    -4.609332  2.088800  1.756928
C    -5.401127  2.546588  2.996020
N    -6.790967  2.851326  2.649866
C    -7.838243  2.849972  3.505589
N    -9.076968  2.972158  3.015309
N    -7.646440  2.706893  4.819616
H    -2.682937  2.696215  2.561954
H    -3.087688  1.002514  2.875171
H    -5.090001  1.194353  1.332206
H    -4.655435  2.881313  0.993022
H    -4.916783  3.435078  3.436425
H    -5.406273  1.751181  3.755835
H    -6.965742  3.251665  1.731992
H    -9.279982  2.834439  2.031196
H    -9.867252  3.176406  3.619485
H    -8.431770  2.558789  5.445944
H    -6.756831  2.919361  5.254915
N    -2.889430  2.307334  -1.298433
C    -2.858240  3.269296  -2.388823
H    -3.327145  1.405000  -1.474278
H    -3.821314  3.249893  -2.912821
H    -2.070883  3.011346  -3.117600
H    -2.636485  4.263866  -1.986694
Cd    2.826653  -0.758744  2.382858
