37
Energy: -175313.598218 eV PBE+vdW (tier 2 basis)
C    -0.385565  -2.298827  0.860031
C    -0.744306  -1.431372  2.023332
O    -1.395993  -1.878173  3.049359
H    -1.300982  -2.721223  0.418740
H    0.260299  -3.124004  1.201183
H    0.151996  -1.762631  0.070341
N    -0.398756  -0.153458  2.004961
C    -0.672203  0.870586  3.033995
C    -1.122893  2.110255  2.224260
O    -0.309171  2.554457  1.398934
H    0.086718  0.196243  1.174924
H    -1.458112  0.482817  3.692023
C    0.632233  1.171111  3.816365
C    0.605040  2.308724  4.852337
C    0.545158  3.771304  4.353037
N    1.583916  4.154839  3.400510
C    2.582288  5.049812  3.603827
N    3.204514  5.569620  2.540125
N    2.950480  5.400214  4.837246
H    1.436828  1.339950  3.085623
H    0.895985  0.246247  4.348613
H    1.512214  2.192686  5.463311
H    -0.237960  2.181464  5.548597
H    0.587728  4.445175  5.217280
H    -0.422128  3.979469  3.868853
H    1.456880  3.825275  2.443822
H    4.058644  6.111104  2.639234
H    2.794117  5.538278  1.612522
H    3.589697  6.173937  4.994011
H    2.684678  4.862244  5.653126
N    -2.332298  2.672625  2.416500
C    -3.433674  2.254089  3.277532
H    -2.525479  3.442325  1.771002
H    -4.024289  3.139685  3.538341
H    -3.068490  1.797635  4.202586
H    -4.098121  1.549905  2.753656
Cd    -1.881470  -3.946495  3.422197
