37
Energy: -175314.661008 eV PBE+vdW (tier 2 basis)
C    1.006165  -0.177489  0.409513
C    0.185659  -0.518213  1.608503
O    -0.003847  -1.766210  1.842962
H    0.602727  -0.715287  -0.460750
H    2.029699  -0.554028  0.555667
H    1.038261  0.895344  0.191055
N    -0.303203  0.487107  2.350359
C    -1.326577  0.549823  3.432684
C    -0.820587  0.068630  4.811615
O    -0.664254  -1.171345  5.128854
H    -0.001866  1.404189  2.026587
H    -1.483190  1.631243  3.547219
C    -2.712541  -0.037067  3.054591
C    -3.415909  0.797482  1.957984
C    -4.956679  0.726014  1.920520
N    -5.502327  -0.392733  1.145392
C    -6.690618  -0.367760  0.496431
N    -6.990777  -1.354828  -0.355032
N    -7.551151  0.636520  0.682350
H    -3.315602  -0.017979  3.975887
H    -2.629888  -1.094597  2.760527
H    -3.011838  0.568641  0.961369
H    -3.185722  1.858672  2.139221
H    -5.309973  1.646796  1.437830
H    -5.357196  0.719314  2.948443
H    -5.066699  -1.304650  1.229477
H    -7.936519  -1.480410  -0.701988
H    -6.276095  -1.951421  -0.755066
H    -8.349122  0.756813  0.065659
H    -7.532497  1.217034  1.512415
N    -0.617795  0.987602  5.733414
C    -0.181991  0.747348  7.115456
H    -0.808660  1.958407  5.488010
H    -1.031663  0.893162  7.795846
H    0.601902  1.472422  7.363168
H    0.196714  -0.271881  7.213537
Cd    -0.192344  -2.661665  3.734287
