37
Energy: -175314.392111 eV PBE+vdW (tier 2 basis)
C    -1.498536  -0.370280  -0.364447
C    -1.466527  -0.523118  1.119905
O    -0.956482  -1.606404  1.572352
H    -0.470425  -0.403086  -0.753238
H    -1.990152  0.549884  -0.698778
H    -2.021978  -1.237012  -0.795077
N    -1.978509  0.467988  1.870871
C    -2.313459  0.562122  3.319533
C    -1.045636  0.735167  4.190633
O    -0.359342  -0.264187  4.625365
H    -2.315617  1.253826  1.318879
H    -2.860441  1.510280  3.386929
C    -3.259990  -0.559583  3.808759
C    -4.016156  -0.271963  5.128374
C    -5.354868  0.473573  4.935972
N    -6.080853  0.678344  6.191853
C    -7.292982  0.176312  6.523643
N    -8.014440  0.787671  7.465880
N    -7.775958  -0.917837  5.923394
H    -2.707845  -1.505313  3.930947
H    -3.973089  -0.753538  2.994017
H    -3.377372  0.282481  5.834385
H    -4.220510  -1.233064  5.619483
H    -6.008159  -0.078514  4.247602
H    -5.199776  1.462272  4.476079
H    -5.720365  1.389992  6.820623
H    -8.801140  0.325218  7.911496
H    -7.833933  1.745927  7.745575
H    -8.746032  -1.189962  6.048354
H    -7.172202  -1.593691  5.473761
N    -0.658726  1.941394  4.556807
C    -1.264461  3.248965  4.257667
H    0.190527  1.954109  5.128576
H    -0.622614  4.018526  4.696337
H    -2.260306  3.339437  4.708418
H    -1.312219  3.422477  3.176167
Cd    -0.102427  -2.001413  3.450905
