37
Energy: -175314.084278 eV PBE+vdW (tier 2 basis)
C    1.315823  0.031540  2.125700
C    0.483327  0.606818  3.205918
O    1.059052  1.201883  4.188021
H    1.972154  0.794077  1.683300
H    0.733065  -0.490065  1.360463
H    1.994259  -0.701193  2.599402
N    -0.871964  0.485835  3.225493
C    -1.781212  0.838732  2.131252
C    -2.081737  2.359363  2.277934
O    -1.829495  2.995067  3.377624
H    -1.279245  0.611127  4.153729
H    -1.227850  0.707706  1.189920
C    -3.024789  -0.085129  2.060097
C    -3.987221  -0.111586  3.261499
C    -5.102677  -1.145997  3.009842
N    -6.047358  -1.212747  4.127145
C    -7.301388  -1.715926  4.055485
N    -8.122765  -1.571203  5.099629
N    -7.730917  -2.324211  2.945071
H    -2.626463  -1.094716  1.879822
H    -3.584737  0.180734  1.152948
H    -4.439317  0.877522  3.431888
H    -3.450580  -0.393796  4.182846
H    -4.646547  -2.134185  2.828345
H    -5.665797  -0.863875  2.108122
H    -5.678274  -1.080569  5.063913
H    -7.935510  -0.905664  5.840842
H    -8.984772  -2.102523  5.170237
H    -8.711854  -2.560816  2.831449
H    -7.089357  -2.743372  2.282745
N    -2.627864  3.040966  1.292101
C    -3.053243  2.601471  -0.042153
H    -2.781211  4.031364  1.503477
H    -4.137201  2.428468  -0.060559
H    -2.522872  1.696289  -0.350874
H    -2.818254  3.403736  -0.750951
Cd    -0.087602  2.962499  4.638305
