37
Energy: -175314.819952 eV PBE+vdW (tier 2 basis)
C    0.202170  -1.137981  1.141967
C    -0.170709  -0.009586  2.041927
O    0.400986  1.115040  1.832170
H    -0.017102  -0.843564  0.103980
H    -0.329379  -2.068033  1.371235
H    1.287182  -1.304884  1.195033
N    -1.089828  -0.223547  3.002535
C    -1.816179  0.777513  3.809134
C    -1.025056  1.136433  5.092317
O    -0.121203  2.052650  5.060169
H    -1.418543  -1.184236  3.069915
H    -1.811638  1.711547  3.223017
C    -3.324706  0.422022  3.934718
C    -3.754614  -0.899777  4.606963
C    -5.163291  -1.390708  4.213862
N    -6.239297  -0.538095  4.733431
C    -7.520815  -0.572300  4.284598
N    -8.407556  0.290252  4.787483
N    -7.887288  -1.426319  3.325033
H    -3.699718  0.428824  2.899835
H    -3.808703  1.276790  4.428008
H    -3.717488  -0.830164  5.707141
H    -3.082572  -1.731655  4.342519
H    -5.274747  -2.423061  4.583491
H    -5.246609  -1.413490  3.117549
H    -6.130353  -0.193481  5.683718
H    -8.123447  1.092003  5.338699
H    -9.404146  0.175529  4.630697
H    -8.800403  -1.350656  2.886436
H    -7.376721  -2.282887  3.146192
N    -1.251159  0.528284  6.235729
C    -0.518485  0.802826  7.484462
H    -1.985730  -0.173018  6.265312
H    0.558224  0.677298  7.321550
H    -0.859821  0.095360  8.244144
H    -0.715777  1.828679  7.818755
Cd    0.752519  2.662394  3.228279
