37
Energy: -175314.972662 eV PBE+vdW (tier 2 basis)
C    -0.114200  -2.535325  1.462698
C    -0.022262  -1.233951  2.183464
O    0.942509  -0.456088  1.864308
H    -0.975369  -3.139653  1.767373
H    0.814279  -3.104008  1.612161
H    -0.181075  -2.329773  0.383040
N    -0.956453  -0.935870  3.105526
C    -1.274890  0.375666  3.703496
C    -0.489441  0.604190  5.018188
O    0.781586  0.801971  4.992055
H    -1.627689  -1.678657  3.287590
H    -0.866991  1.139802  3.019096
C    -2.805785  0.636749  3.716355
C    -3.768874  -0.448304  4.247303
C    -5.217431  0.087927  4.260656
N    -6.183594  -0.928862  4.690075
C    -7.451543  -1.083798  4.233084
N    -8.362804  -1.646996  5.030085
N    -7.797932  -0.703783  2.999558
H    -3.078355  0.855695  2.673608
H    -2.961264  1.584418  4.255647
H    -3.501416  -0.786051  5.262872
H    -3.742876  -1.346785  3.611027
H    -5.489553  0.439675  3.258350
H    -5.288741  0.964985  4.924641
H    -6.008298  -1.357037  5.595195
H    -8.236674  -1.709697  6.034507
H    -9.243827  -1.993655  4.662476
H    -8.772684  -0.689470  2.716313
H    -7.115094  -0.546556  2.269999
N    -1.097729  0.633945  6.183230
C    -0.429024  0.888576  7.470360
H    -2.099035  0.463726  6.200409
H    0.289457  1.706928  7.357248
H    0.098554  -0.013307  7.806255
H    -1.190519  1.162946  8.205062
Cd    1.918036  0.852430  3.204690
