37
Energy: -175314.147043 eV PBE+vdW (tier 2 basis)
C    -0.015836  1.998837  1.281501
C    -0.027809  0.642838  1.885220
O    1.070538  -0.019744  1.900425
H    -0.747186  2.672800  1.733961
H    -0.207782  1.923011  0.197125
H    0.997224  2.412797  1.377814
N    -1.132333  0.072399  2.437459
C    -2.489824  -0.059400  1.863377
C    -2.380150  -1.011137  0.629717
O    -1.430825  -1.877558  0.527440
H    -0.902624  -0.674573  3.094600
H    -3.034298  -0.657850  2.613314
C    -3.285474  1.248441  1.674126
C    -3.505039  2.022132  2.990004
C    -4.421330  3.243813  2.794850
N    -4.643387  3.937607  4.065840
C    -5.708582  4.714868  4.363840
N    -5.897289  5.106783  5.627262
N    -6.582823  5.068122  3.415193
H    -4.277925  0.971355  1.285158
H    -2.822272  1.884310  0.906667
H    -2.536709  2.349695  3.400247
H    -3.956464  1.355058  3.740135
H    -5.400002  2.915073  2.415507
H    -3.983647  3.930418  2.050131
H    -3.875099  3.962889  4.729566
H    -6.545476  5.853529  5.856704
H    -5.427125  4.656410  6.404490
H    -7.461681  5.512387  3.662683
H    -6.325459  5.096868  2.436121
N    -3.324449  -1.007848  -0.285240
C    -3.396127  -1.924496  -1.435145
H    -4.106337  -0.369027  -0.160489
H    -4.050498  -1.477731  -2.188683
H    -3.809860  -2.890759  -1.117798
H    -2.396947  -2.076588  -1.853341
Cd    0.596423  -1.995598  1.186712
