37
Energy: -175314.094723 eV PBE+vdW (tier 2 basis)
C    0.447253  1.474552  0.670400
C    0.016759  0.820842  1.926712
O    0.817728  0.810751  2.931136
H    0.729990  2.522020  0.846274
H    -0.285564  1.386728  -0.137363
H    1.376263  0.969883  0.348383
N    -1.179519  0.183471  2.045287
C    -2.490944  0.745952  1.710902
C    -2.972237  1.528855  2.967778
O    -2.425373  1.348233  4.127953
H    -1.206483  -0.499110  2.804770
H    -2.337756  1.483359  0.909432
C    -3.480195  -0.317975  1.169207
C    -3.869924  -1.488922  2.089526
C    -4.844259  -2.427729  1.349278
N    -5.248794  -3.563467  2.179539
C    -5.696905  -4.751330  1.710143
N    -5.885333  -5.760381  2.565856
N    -5.922116  -4.931415  0.404883
H    -3.016442  -0.705548  0.249926
H    -4.389206  0.207593  0.845482
H    -4.347707  -1.114686  3.009932
H    -2.987116  -2.074742  2.389817
H    -4.348960  -2.825462  0.451776
H    -5.728223  -1.854768  1.020919
H    -5.425468  -3.384847  3.163778
H    -5.493503  -5.750971  3.500615
H    -6.407475  -6.588625  2.298042
H    -6.098343  -5.859859  0.033291
H    -6.108345  -4.155748  -0.219064
N    -3.972952  2.381980  2.893558
C    -4.805881  2.769684  1.748950
H    -4.201831  2.835987  3.782726
H    -5.759945  2.226783  1.768380
H    -4.290250  2.589286  0.801533
H    -5.016000  3.841936  1.834454
Cd    -0.354189  1.211617  4.686927
