37
Energy: -175314.570415 eV PBE+vdW (tier 2 basis)
C    -1.828265  -1.725458  -0.296670
C    -1.192423  -1.236712  0.959764
O    -0.007601  -0.764253  0.869485
H    -2.855550  -2.077878  -0.152516
H    -1.215898  -2.533957  -0.721495
H    -1.823303  -0.910831  -1.036157
N    -1.891880  -1.303210  2.108064
C    -1.546727  -0.704831  3.408670
C    -0.528560  -1.580640  4.189382
O    0.719047  -1.239682  4.168524
H    -2.815060  -1.725948  2.030431
H    -0.983133  0.219154  3.197001
C    -2.813405  -0.272801  4.189061
C    -3.474241  0.992238  3.604747
C    -4.861252  1.334499  4.190167
N    -4.867265  1.907263  5.542554
C    -5.279730  3.156929  5.866048
N    -5.225009  4.150886  4.974163
N    -5.731353  3.398162  7.099848
H    -2.515487  -0.101995  5.234478
H    -3.539288  -1.099547  4.203475
H    -3.628193  0.860220  2.522328
H    -2.799301  1.853997  3.721656
H    -5.500471  0.438787  4.202382
H    -5.364003  2.043778  3.521143
H    -4.841780  1.255102  6.320039
H    -5.696681  5.033028  5.146838
H    -4.661926  4.093343  4.135754
H    -5.845685  4.346701  7.443838
H    -6.064541  2.655163  7.704568
N    -0.843926  -2.644168  4.899021
C    -2.139612  -3.279475  5.165771
H    -0.036058  -3.083680  5.350589
H    -1.949021  -4.334742  5.387268
H    -2.793488  -3.227302  4.290893
H    -2.625729  -2.824579  6.037866
Cd    1.502794  -0.520558  2.336020
