37
Energy: -175314.808292 eV PBE+vdW (tier 2 basis)
C    0.184041  -0.652646  -0.159633
C    -0.270078  -0.757625  1.256114
O    0.623213  -0.653396  2.164825
H    0.922302  -1.441690  -0.362832
H    0.708664  0.305456  -0.292260
H    -0.636196  -0.719470  -0.882854
N    -1.580681  -0.940106  1.504412
C    -2.269544  -0.870692  2.804449
C    -2.120504  -2.195328  3.601256
O    -1.229124  -2.253712  4.536576
H    -2.170678  -1.030170  0.679437
H    -1.719357  -0.137948  3.418266
C    -3.709651  -0.319717  2.657135
C    -3.732118  1.198143  2.386774
C    -5.109707  1.801578  2.064532
N    -5.977853  1.922588  3.244010
C    -7.301806  2.214564  3.183027
N    -8.006840  2.283423  4.315958
N    -7.909225  2.391030  2.006374
H    -4.256676  -0.555099  3.581749
H    -4.232578  -0.850939  1.848464
H    -3.095770  1.430976  1.520041
H    -3.283116  1.740763  3.234812
H    -5.627284  1.177606  1.320884
H    -4.940628  2.792258  1.611822
H    -5.521985  2.188359  4.113174
H    -8.942895  2.675797  4.332970
H    -7.635031  1.956582  5.200180
H    -8.920162  2.471192  1.951425
H    -7.395382  2.642466  1.170355
N    -2.856234  -3.270452  3.409898
C    -3.961694  -3.530508  2.480366
H    -2.615981  -4.043560  4.037629
H    -4.009310  -4.612575  2.320699
H    -3.786359  -3.050575  1.513432
H    -4.917176  -3.199896  2.906434
Cd    0.630406  -1.298676  4.183098
