37
Energy: -175313.487253 eV PBE+vdW (tier 2 basis)
C    0.822036  -0.721551  -0.099766
C    0.526257  -0.326154  1.312430
O    1.367850  0.161790  2.076136
H    -0.042931  -1.132124  -0.631627
H    1.626884  -1.470625  -0.085745
H    1.210051  0.146223  -0.650193
N    -0.771083  -0.519309  1.764465
C    -1.171706  -0.163675  3.102388
C    -2.009883  -1.338796  3.701524
O    -1.331543  -2.153646  4.406519
H    -1.474868  -0.764219  1.070242
H    -0.245108  -0.132585  3.694283
C    -1.916293  1.201322  3.230471
C    -1.124294  2.449936  2.790273
C    -0.062904  3.037788  3.736757
N    1.292340  2.607781  3.429225
C    2.426246  3.260127  3.778967
N    3.587683  2.799299  3.296005
N    2.396267  4.330682  4.571442
H    -2.251669  1.314422  4.272267
H    -2.823369  1.174439  2.605251
H    -1.889276  3.235245  2.683282
H    -0.707522  2.327449  1.780435
H    -0.313460  2.811754  4.790593
H    -0.100101  4.136122  3.643539
H    1.401918  1.722583  2.909355
H    3.612749  2.075672  2.584861
H    4.479690  3.189357  3.586215
H    1.558949  4.618818  5.063013
H    3.230329  4.884961  4.742146
N    -3.302171  -1.418789  3.446970
C    -4.223215  -2.461203  3.908724
H    -3.712258  -0.659205  2.906788
H    -3.948244  -3.441840  3.493854
H    -5.226802  -2.222581  3.540901
H    -4.274131  -2.482880  5.007396
Cd    -1.682715  -4.050725  5.463573
