37
Energy: -175314.003998 eV PBE+vdW (tier 2 basis)
C    -0.079854  -0.592268  0.160870
C    -0.241827  -0.380757  1.626603
O    0.689123  -0.698396  2.469481
H    0.725621  0.059452  -0.212451
H    -0.980008  -0.376643  -0.420459
H    0.213967  -1.634254  -0.026253
N    -1.343153  0.112549  2.177738
C    -2.642969  0.464583  1.589603
C    -3.123044  1.661182  2.474003
O    -2.991532  1.565948  3.692224
H    -1.326402  0.237094  3.199626
H    -2.504877  0.772322  0.544960
C    -3.641833  -0.716680  1.701166
C    -5.058212  -0.420377  1.174842
C    -5.986623  -1.628415  1.390244
N    -7.315930  -1.389234  0.825694
C    -8.459754  -2.001178  1.209911
N    -9.624844  -1.567420  0.715659
N    -8.435674  -3.009096  2.085164
H    -3.687601  -1.011767  2.760579
H    -3.207938  -1.564229  1.148485
H    -5.012763  -0.178043  0.100387
H    -5.491528  0.450725  1.688330
H    -6.102049  -1.816962  2.467594
H    -5.540159  -2.529953  0.934513
H    -7.367587  -0.845647  -0.031691
H    -9.709004  -0.671863  0.247123
H    -10.479524  -2.103952  0.828836
H    -7.595747  -3.547287  2.259281
H    -9.294992  -3.368940  2.488892
N    -3.671002  2.728422  1.850981
C    -4.096775  3.923860  2.567875
H    -3.645546  2.768927  0.834394
H    -3.285570  4.669634  2.600843
H    -4.359822  3.653463  3.595771
H    -4.948904  4.370831  2.042503
Cd    2.804897  -0.929229  2.317965
