37
Energy: -175315.332515 eV PBE+vdW (tier 2 basis)
C    -1.208376  1.677366  -0.118521
C    -0.942159  0.366716  0.540011
O    0.201907  -0.169582  0.333887
H    -2.179362  2.108369  0.148388
H    -1.144496  1.554494  -1.209384
H    -0.408342  2.379644  0.159802
N    -1.896334  -0.170220  1.320920
C    -1.795130  -1.306096  2.261543
C    -2.071740  -2.648929  1.534639
O    -1.134212  -3.248006  0.884878
H    -2.776647  0.342251  1.338750
H    -0.744649  -1.363716  2.592826
C    -2.666935  -1.058866  3.513005
C    -2.165502  0.072953  4.433051
C    -3.056392  0.213155  5.682236
N    -2.566580  1.274458  6.564343
C    -2.795982  1.357742  7.894673
N    -2.128058  2.262606  8.615879
N    -3.657214  0.527896  8.493217
H    -2.685997  -1.999083  4.084557
H    -3.707222  -0.851904  3.205555
H    -2.149337  1.029967  3.887805
H    -1.132894  -0.135933  4.750761
H    -3.043943  -0.728832  6.249610
H    -4.098383  0.412593  5.378771
H    -2.178515  2.106175  6.129305
H    -1.295241  2.720633  8.263195
H    -2.417978  2.505082  9.557971
H    -3.709397  0.480969  9.506226
H    -4.411188  0.082611  7.984296
N    -3.265444  -3.196731  1.577402
C    -3.655513  -4.451929  0.915119
H    -3.975224  -2.744301  2.150174
H    -3.022384  -4.620824  0.040787
H    -4.704147  -4.369902  0.612487
H    -3.544345  -5.290308  1.615694
Cd    0.621358  -2.240518  0.280145
