37
Energy: -175314.436126 eV PBE+vdW (tier 2 basis)
C    -0.424544  -1.990474  -0.570700
C    -0.196189  -1.640855  0.859821
O    1.017644  -1.559558  1.252935
H    0.070774  -1.235456  -1.200204
H    -1.485841  -2.041478  -0.838089
H    0.062340  -2.950521  -0.793073
N    -1.262827  -1.417853  1.651758
C    -1.263563  -0.839323  3.005114
C    -0.923100  -1.904779  4.083089
O    0.275722  -1.931047  4.562930
H    -2.167846  -1.517757  1.195722
H    -0.410241  -0.142441  3.056322
C    -2.521626  0.038418  3.227204
C    -2.554193  0.722663  4.609964
C    -3.379194  2.022119  4.700218
N    -4.832457  1.828484  4.731391
C    -5.701780  2.639754  5.384083
N    -6.983237  2.272267  5.483691
N    -5.290459  3.779220  5.946043
H    -3.433427  -0.548445  3.047698
H    -2.480580  0.804084  2.436708
H    -1.530408  1.020764  4.885240
H    -2.887775  0.024418  5.391748
H    -3.096569  2.700939  3.877912
H    -3.099973  2.510914  5.642459
H    -5.252431  1.223077  4.033311
H    -7.698903  2.930525  5.775678
H    -7.280129  1.315878  5.328679
H    -5.893703  4.289423  6.584360
H    -4.452580  4.259403  5.639866
N    -1.780076  -2.784950  4.558896
C    -3.194929  -3.008556  4.245609
H    -1.376388  -3.407862  5.264800
H    -3.838890  -2.376806  4.870583
H    -3.421289  -4.056518  4.468335
H    -3.397602  -2.835863  3.185170
Cd    1.865270  -1.590805  3.192728
