37
Energy: -175313.344911 eV PBE+vdW (tier 2 basis)
C    -0.393476  0.206586  -0.345815
C    -0.210449  0.314346  1.129314
O    0.931867  0.267681  1.703449
H    -0.496506  -0.854972  -0.625870
H    0.491348  0.591152  -0.867460
H    -1.273265  0.745731  -0.713713
N    -1.267469  0.415791  1.964619
C    -2.662105  0.110947  1.645206
C    -3.583234  1.390913  1.541845
O    -4.776903  1.155975  1.367150
H    -1.012319  0.472065  2.953675
H    -2.684764  -0.285968  0.621906
C    -3.303505  -0.965356  2.550065
C    -3.711290  -0.562898  3.980447
C    -4.584558  -1.669989  4.598847
N    -5.035465  -1.323194  5.947531
C    -6.127890  -1.831852  6.564029
N    -6.520210  -1.300855  7.728328
N    -6.817350  -2.834074  6.015922
H    -2.626687  -1.832552  2.566572
H    -4.202679  -1.284974  2.004214
H    -4.291683  0.370882  3.964799
H    -2.825507  -0.396743  4.615414
H    -4.026659  -2.622735  4.619967
H    -5.476507  -1.815573  3.971598
H    -4.407175  -0.775659  6.529443
H    -7.216913  -1.757901  8.309049
H    -6.184716  -0.398050  8.046363
H    -7.717582  -3.115394  6.392329
H    -6.416148  -3.438294  5.308767
N    -3.038823  2.611085  1.588661
C    -3.831910  3.840075  1.464453
H    -2.055061  2.690733  1.826791
H    -3.194202  4.625559  1.046458
H    -4.208067  4.166284  2.443480
H    -4.681985  3.651835  0.800365
Cd    2.974381  0.679687  1.013141
