37
Energy: -175314.455547 eV PBE+vdW (tier 2 basis)
C    0.742188  0.752098  0.015628
C    0.345548  -0.434400  0.829462
O    1.072283  -1.482671  0.705558
H    1.757220  1.063839  0.301727
H    0.054729  1.599373  0.113067
H    0.796762  0.450217  -1.041020
N    -0.737838  -0.329343  1.617084
C    -1.562999  -1.325994  2.356077
C    -0.889793  -1.822948  3.654330
O    0.000184  -2.758782  3.665435
H    -1.153486  0.599665  1.594805
H    -2.429273  -0.734746  2.676155
C    -2.120816  -2.466516  1.468794
C    -3.242222  -3.255574  2.171722
C    -3.925448  -4.349171  1.331621
N    -4.859153  -3.804358  0.336127
C    -5.429710  -4.539110  -0.652245
N    -6.248149  -3.938971  -1.520809
N    -5.148073  -5.838374  -0.786505
H    -1.324364  -3.157167  1.148891
H    -2.493936  -1.993303  0.548957
H    -4.011097  -2.561216  2.550144
H    -2.841503  -3.764151  3.061307
H    -4.456346  -5.019147  2.027323
H    -3.169528  -4.947286  0.801476
H    -5.389829  -2.984058  0.617547
H    -6.835772  -4.475612  -2.151200
H    -6.321369  -2.929879  -1.580270
H    -5.466888  -6.356147  -1.600035
H    -4.802827  -6.393329  -0.012546
N    -1.268901  -1.346564  4.823203
C    -2.304303  -0.356827  5.159608
H    -0.779733  -1.766313  5.619640
H    -3.295225  -0.827575  5.196672
H    -2.300466  0.480102  4.454294
H    -2.072323  0.038070  6.154024
Cd    1.421458  -2.981830  2.129953
