37
Energy: -175313.819624 eV PBE+vdW (tier 2 basis)
C    -0.014197  0.737583  0.427104
C    -0.145224  -0.108628  1.651456
O    0.876348  -0.626844  2.251349
H    0.468741  0.154087  -0.371557
H    0.609975  1.617252  0.650381
H    -0.975516  1.098097  0.045175
N    -1.351585  -0.355787  2.143901
C    -1.669766  -1.232820  3.282629
C    -2.890366  -2.077337  2.850474
O    -3.853840  -1.493229  2.319623
H    -2.159386  -0.009193  1.621973
H    -0.800111  -1.884734  3.440742
C    -1.946946  -0.465112  4.609353
C    -2.728026  0.862689  4.580741
C    -4.228987  0.863626  4.253219
N    -5.055201  0.243486  5.286259
C    -6.261560  -0.351139  5.086310
N    -7.130791  -0.405033  6.097701
N    -6.553536  -0.892108  3.901293
H    -0.961230  -0.233158  5.037749
H    -2.405601  -1.182398  5.306407
H    -2.260003  1.559876  3.869909
H    -2.578895  1.337999  5.562418
H    -4.432947  0.380912  3.290961
H    -4.547927  1.916596  4.140696
H    -4.843095  0.498090  6.249896
H    -7.970016  -0.975833  6.046591
H    -7.048663  0.201455  6.908158
H    -7.499835  -1.187580  3.682328
H    -5.831022  -1.074197  3.207529
N    -2.848378  -3.391939  3.099296
C    -3.903032  -4.335449  2.738541
H    -1.989090  -3.782006  3.480771
H    -3.613907  -4.908138  1.845225
H    -4.822342  -3.786107  2.519403
H    -4.057157  -5.038184  3.566284
Cd    2.958657  -0.286045  1.779561
