37
Energy: -175315.010914 eV PBE+vdW (tier 2 basis)
C    -1.265112  -2.836255  -0.519035
C    -0.818631  -1.980531  0.616416
O    0.375789  -1.525824  0.568271
H    -0.583213  -3.692282  -0.620508
H    -1.179766  -2.255930  -1.450528
H    -2.295574  -3.192564  -0.410891
N    -1.686191  -1.721725  1.612824
C    -1.546386  -0.727819  2.691350
C    -0.668567  -1.270338  3.851147
O    0.562789  -0.884359  3.922154
H    -2.602753  -2.153948  1.509729
H    -0.954250  0.109478  2.285266
C    -2.932269  -0.139810  3.047538
C    -2.912920  0.980762  4.103734
C    -4.299137  1.641907  4.228663
N    -4.283906  2.721762  5.217676
C    -5.371660  3.216293  5.852230
N    -6.602248  2.825142  5.504009
N    -5.203152  4.078940  6.858362
H    -3.618274  -0.940492  3.357198
H    -3.330714  0.259139  2.101615
H    -2.173987  1.746200  3.815756
H    -2.607196  0.593134  5.087403
H    -5.039730  0.895953  4.552545
H    -4.612715  2.023908  3.242176
H    -3.439884  3.283042  5.285024
H    -7.403855  3.072854  6.076057
H    -6.806173  2.463930  4.579942
H    -5.976507  4.630600  7.216169
H    -4.305338  4.204374  7.312194
N    -1.094281  -2.095974  4.785272
C    -2.413386  -2.701268  5.004905
H    -0.371315  -2.349057  5.465098
H    -2.262985  -3.613749  5.590810
H    -2.884275  -2.979585  4.057988
H    -3.065071  -2.028391  5.576422
Cd    1.617845  -0.728518  2.083017
