37
Energy: -175314.969614 eV PBE+vdW (tier 2 basis)
C    -1.810134  -0.935311  -0.610449
C    -1.138177  -0.838940  0.716904
O    0.099147  -0.516901  0.722059
H    -1.320636  -1.719946  -1.205909
H    -1.657923  0.008040  -1.154990
H    -2.882851  -1.145520  -0.537858
N    -1.859497  -1.081317  1.826819
C    -1.457845  -0.868674  3.227419
C    -0.569846  -2.030607  3.754340
O    0.711651  -1.856913  3.793836
H    -2.827651  -1.352523  1.666533
H    -0.780336  0.001216  3.238875
C    -2.665041  -0.500717  4.122379
C    -3.158059  0.950087  3.950761
C    -4.396589  1.224191  4.829657
N    -4.949088  2.568593  4.633573
C    -5.269710  3.463304  5.597208
N    -4.645765  3.459636  6.780692
N    -6.217421  4.371673  5.352462
H    -2.360421  -0.664813  5.167218
H    -3.492499  -1.201172  3.935825
H    -3.417326  1.141946  2.897592
H    -2.356791  1.657771  4.211652
H    -4.156820  1.096093  5.892570
H    -5.187314  0.490780  4.604439
H    -5.369909  2.750759  3.726550
H    -4.997052  4.016421  7.553140
H    -3.736328  3.034435  6.905165
H    -6.320563  5.197541  5.934171
H    -6.899749  4.250506  4.611716
N    -1.028449  -3.182647  4.196846
C    -2.398204  -3.692508  4.334267
H    -0.289656  -3.815656  4.517900
H    -3.029589  -3.357312  3.506771
H    -2.832607  -3.392561  5.296215
H    -2.345816  -4.785685  4.303567
Cd    1.607863  -0.822267  2.179082
