37
Energy: -175315.198467 eV PBE+vdW (tier 2 basis)
C    -0.861530  0.044300  -0.078777
C    -1.620851  -0.379076  1.132236
O    -2.556800  -1.236463  0.964839
H    -0.459590  -0.853121  -0.572786
H    -0.040863  0.735202  0.142695
H    -1.553133  0.507900  -0.796998
N    -1.278020  0.139290  2.324666
C    -1.690456  -0.289028  3.678379
C    -3.005968  0.417184  4.101856
O    -4.148781  -0.045617  3.727545
H    -0.554820  0.855918  2.289870
H    -1.939020  -1.362123  3.620615
C    -0.522821  -0.129187  4.677808
C    0.656148  -1.099604  4.458605
C    1.781201  -0.850831  5.485400
N    2.955679  -1.699657  5.259038
C    3.611267  -2.441756  6.182360
N    2.981122  -2.919543  7.261445
N    4.906766  -2.709269  6.000859
H    -0.934065  -0.287016  5.686360
H    -0.152028  0.910925  4.647511
H    1.066498  -0.981813  3.443644
H    0.307524  -2.140267  4.537288
H    1.420443  -1.018340  6.507812
H    2.103105  0.202194  5.443451
H    3.482650  -1.515825  4.409510
H    3.505307  -3.330014  8.027591
H    1.976090  -3.030621  7.289758
H    5.487165  -2.159402  5.376605
H    5.371771  -3.447062  6.521051
N    -2.970697  1.493481  4.855125
C    -4.140560  2.262978  5.307577
H    -2.062840  1.804721  5.195393
H    -4.428447  1.938328  6.316284
H    -4.975221  2.105005  4.620835
H    -3.867317  3.322868  5.333193
Cd    -4.328906  -1.386661  2.105358
