37
Energy: -175313.886036 eV PBE+vdW (tier 2 basis)
C    -0.597099  -2.562679  0.453176
C    -0.453086  -1.969584  1.810806
O    0.517848  -2.292802  2.594473
H    0.237731  -2.231865  -0.179864
H    -1.527455  -2.305627  -0.059272
H    -0.554176  -3.661971  0.545615
N    -1.305619  -1.068918  2.323691
C    -2.225017  -0.203323  1.583424
C    -1.356676  0.876831  0.824403
O    -0.472710  0.440222  0.090002
H    -1.074660  -0.779297  3.278036
H    -2.652570  -0.798545  0.764150
C    -3.382320  0.272469  2.498023
C    -4.640774  0.685408  1.707539
C    -5.937649  0.774025  2.546380
N    -6.100762  1.981340  3.363078
C    -7.014885  2.959837  3.156193
N    -7.363601  3.751039  4.176079
N    -7.553447  3.155603  1.949838
H    -3.041767  1.067559  3.181517
H    -3.643331  -0.584328  3.137757
H    -4.836865  -0.080101  0.940868
H    -4.487002  1.627244  1.159964
H    -6.012936  -0.093563  3.217817
H    -6.800670  0.701772  1.872544
H    -5.680030  1.974304  4.287327
H    -7.906386  4.596131  4.026400
H    -7.206065  3.482029  5.141433
H    -8.360860  3.758944  1.829070
H    -7.177426  2.728676  1.113190
N    -1.614192  2.183941  0.996443
C    -0.828328  3.230643  0.345404
H    -2.279802  2.463251  1.710416
H    0.022122  3.533641  0.974766
H    -1.470013  4.102489  0.177898
H    -0.440870  2.846526  -0.604223
Cd    1.745592  -4.057435  2.562656
