37
Energy: -175313.565656 eV PBE+vdW (tier 2 basis)
C    0.345998  0.707504  -0.098969
C    0.316932  0.429522  1.372250
O    1.305285  0.568015  2.112037
H    -0.210820  -0.035406  -0.683771
H    1.383515  0.759156  -0.440711
H    -0.119218  1.691133  -0.279319
N    -0.892093  0.018522  1.899350
C    -1.148725  -0.468283  3.237575
C    -0.911790  0.598550  4.362576
O    -1.910173  0.671849  5.164941
H    -1.671955  -0.049460  1.246319
H    -2.236284  -0.606077  3.280770
C    -0.572040  -1.896813  3.607742
C    0.782108  -2.394460  3.072479
C    2.025046  -2.112333  3.941910
N    3.258787  -2.633891  3.351903
C    3.909056  -3.775038  3.678610
N    3.326592  -4.708345  4.436780
N    5.158850  -3.953041  3.238504
H    -1.333817  -2.581707  3.211364
H    -0.631995  -1.996832  4.702237
H    0.960140  -2.037950  2.049345
H    0.677609  -3.486169  2.969900
H    1.911709  -2.539371  4.947938
H    2.176760  -1.032314  4.067261
H    3.689007  -2.070392  2.623167
H    3.862148  -5.489510  4.803227
H    2.322514  -4.758102  4.552599
H    5.719443  -3.184172  2.885368
H    5.618195  -4.857214  3.299610
N    0.195758  1.296266  4.416461
C    0.500165  2.351253  5.376897
H    0.847490  1.100095  3.614970
H    1.470365  2.787927  5.115500
H    0.578230  1.954439  6.399534
H    -0.235480  3.172118  5.319661
Cd    -2.500023  1.993458  6.771197
