37
Energy: -175314.203368 eV PBE+vdW (tier 2 basis)
C    -0.329296  -2.911148  2.796263
C    -0.219945  -1.603360  2.109363
O    0.920643  -1.237576  1.648459
H    0.438230  -2.928231  3.589406
H    -0.060954  -3.732589  2.115689
H    -1.309844  -3.080907  3.249957
N    -1.275989  -0.755455  1.983641
C    -2.608358  -1.095130  1.477635
C    -2.530632  -1.052793  -0.085151
O    -1.534245  -0.539623  -0.720207
H    -1.009049  0.217336  1.813990
H    -2.828933  -2.132480  1.771144
C    -3.694254  -0.145311  2.037474
C    -3.932827  -0.287893  3.551927
C    -5.058507  0.645154  4.035979
N    -5.321575  0.453435  5.464041
C    -5.895942  1.360150  6.285904
N    -5.922191  1.124192  7.601050
N    -6.406164  2.497221  5.800379
H    -4.632644  -0.345608  1.499517
H    -3.423137  0.892410  1.781669
H    -3.013025  -0.065175  4.112150
H    -4.205404  -1.332030  3.777200
H    -5.973930  0.460642  3.448211
H    -4.763715  1.693383  3.882235
H    -5.255658  -0.493058  5.827012
H    -6.518170  1.661995  8.222092
H    -5.339401  0.414392  8.030232
H    -6.694441  3.242740  6.426353
H    -6.708415  2.577459  4.837117
N    -3.542110  -1.532627  -0.775773
C    -3.628086  -1.566088  -2.245191
H    -4.350574  -1.879844  -0.262049
H    -4.432745  -2.251352  -2.524782
H    -2.680257  -1.916612  -2.666135
H    -3.848999  -0.563210  -2.632545
Cd    0.562071  -0.402627  -0.300709
