37
Energy: -175313.993713 eV PBE+vdW (tier 2 basis)
C    -0.207863  0.313581  -0.195104
C    -0.110489  0.154920  1.283275
O    1.010302  -0.127395  1.866042
H    0.360184  1.207018  -0.500560
H    -1.230122  0.427983  -0.565149
H    0.246501  -0.557079  -0.687068
N    -1.153795  0.255129  2.098259
C    -2.569474  0.486586  1.805326
C    -3.082134  1.252045  3.067314
O    -2.575519  0.999865  4.158537
H    -0.964100  0.199099  3.110232
H    -2.651315  1.118413  0.911476
C    -3.412287  -0.803763  1.577987
C    -3.393632  -1.831268  2.718408
C    -4.163798  -3.131643  2.423709
N    -5.617984  -2.978400  2.546269
C    -6.527665  -3.879497  2.099598
N    -7.830471  -3.608876  2.233107
N    -6.134386  -5.008307  1.505601
H    -3.041279  -1.263822  0.647532
H    -4.441155  -0.478659  1.357651
H    -3.761509  -1.394917  3.660554
H    -2.358474  -2.136384  2.928976
H    -3.809265  -3.898617  3.132871
H    -3.941129  -3.485452  1.405909
H    -5.948165  -2.348477  3.273341
H    -8.537773  -4.320083  2.075142
H    -8.163592  -2.684250  2.481231
H    -6.806448  -5.619927  1.052163
H    -5.201920  -5.382903  1.633471
N    -4.082802  2.142023  2.879153
C    -4.579876  3.003506  3.943942
H    -4.379108  2.351742  1.927499
H    -5.643276  3.206632  3.767913
H    -4.046728  3.968563  3.950403
H    -4.419178  2.512899  4.909552
Cd    3.050451  0.308693  1.390639
