37
Energy: -175314.177431 eV PBE+vdW (tier 2 basis)
C    -4.454576  -1.366736  1.517296
C    -3.095900  -1.542085  0.955122
O    -2.919766  -2.388840  0.007001
H    -4.483855  -0.688326  2.374795
H    -4.800808  -2.363121  1.844768
H    -5.164242  -1.054446  0.737546
N    -2.014558  -0.871213  1.436993
C    -1.906951  0.574297  1.651384
C    -1.501583  1.209110  0.279416
O    -1.100838  0.503322  -0.720396
H    -1.120542  -1.322827  1.229515
H    -2.908118  0.951142  1.909632
C    -0.907713  0.907899  2.788912
C    -1.351282  0.348162  4.152778
C    -0.341475  0.507007  5.302215
N    -0.289297  1.874326  5.840133
C    0.679312  2.323743  6.676974
N    1.688761  1.529738  7.044849
N    0.638131  3.590633  7.100749
H    -0.787882  1.999679  2.841076
H    0.084099  0.511204  2.515884
H    -1.533783  -0.732288  4.060666
H    -2.319031  0.785751  4.448702
H    0.666401  0.237380  4.953710
H    -0.623840  -0.202712  6.096675
H    -1.180670  2.356789  5.922652
H    1.617960  0.520054  7.004501
H    2.483093  1.903650  7.555107
H    0.011287  4.272890  6.690665
H    1.226491  3.913079  7.862330
N    -1.545290  2.519577  0.165396
C    -1.204297  3.298008  -1.034771
H    -1.807329  3.056731  0.990688
H    -1.875003  4.161849  -1.088642
H    -1.320222  2.675526  -1.925066
H    -0.165647  3.648483  -0.967518
Cd    -1.598816  -1.464347  -1.413932
