37
Energy: -175314.606243 eV PBE+vdW (tier 2 basis)
C    -2.389764  -0.378200  -0.036923
C    -1.962204  -0.468756  1.390817
O    -1.486153  -1.593534  1.776775
H    -2.928083  0.545601  -0.275323
H    -3.022575  -1.244693  -0.275034
H    -1.500776  -0.458570  -0.681061
N    -2.109860  0.619209  2.165230
C    -1.985024  0.846409  3.630795
C    -0.523822  0.879853  4.125106
O    0.152742  -0.192615  4.378470
H    -2.470406  1.423270  1.656149
H    -2.364098  1.867197  3.755969
C    -2.879821  -0.060070  4.513125
C    -4.382581  0.252945  4.370605
C    -5.240369  -0.541427  5.373587
N    -6.658927  -0.208961  5.225366
C    -7.590758  -0.257065  6.203979
N    -8.794792  0.278449  5.983823
N    -7.309689  -0.806693  7.390860
H    -2.564786  0.102493  5.555702
H    -2.701064  -1.125407  4.299865
H    -4.716227  0.027185  3.345340
H    -4.553149  1.327721  4.536904
H    -4.939037  -0.283617  6.398994
H    -5.082065  -1.624439  5.235750
H    -7.014083  -0.081213  4.282270
H    -9.580543  0.079915  6.595139
H    -8.964530  0.920031  5.217251
H    -7.948079  -0.700004  8.173249
H    -6.584088  -1.505245  7.496229
N    0.068921  2.025591  4.395280
C    -0.408966  3.412652  4.329404
H    1.021058  1.913967  4.759200
H    0.418980  4.035348  3.971104
H    -0.700017  3.757618  5.330179
H    -1.245466  3.520780  3.634450
Cd    -0.064896  -1.967727  3.282375
