37
Energy: -175313.896731 eV PBE+vdW (tier 2 basis)
C    -1.445748  -1.541993  0.348286
C    -0.433516  -0.814320  1.163355
O    0.626293  -1.392284  1.613595
H    -0.940776  -2.091572  -0.459253
H    -2.205925  -0.899875  -0.103818
H    -1.954590  -2.281426  0.985572
N    -0.569148  0.467612  1.524914
C    -1.752956  1.343856  1.439985
C    -1.249199  2.768871  1.023604
O    -1.137005  3.648927  1.889158
H    0.198737  0.815967  2.106049
H    -2.412472  0.956642  0.653192
C    -2.503053  1.410056  2.781240
C    -3.800955  2.256262  2.710427
C    -4.035445  3.175765  3.912173
N    -3.081143  4.281374  3.938556
C    -3.153699  5.359046  4.753663
N    -2.257261  6.341564  4.590938
N    -4.094293  5.443865  5.692949
H    -1.813193  1.806340  3.540036
H    -2.743743  0.383235  3.087409
H    -4.670106  1.589663  2.645770
H    -3.832749  2.870710  1.797986
H    -3.967165  2.600196  4.854660
H    -5.058516  3.584716  3.857643
H    -2.293385  4.221333  3.279046
H    -2.232155  7.148796  5.207195
H    -1.607466  6.342358  3.812230
H    -4.200190  6.276952  6.264210
H    -4.723708  4.676747  5.897056
N    -0.954378  2.995986  -0.268115
C    -1.168968  2.131634  -1.426365
H    -0.668861  3.957782  -0.459693
H    -0.730865  1.139285  -1.271795
H    -2.237205  2.038414  -1.671816
H    -0.669216  2.589380  -2.285891
Cd    1.707728  -3.177905  1.067908
