37
Energy: -175315.284711 eV PBE+vdW (tier 2 basis)
C    1.069703  -0.551426  -0.285699
C    0.697319  0.255919  0.910115
O    0.562483  1.518371  0.742667
H    0.300488  -0.401938  -1.059441
H    1.160012  -1.622413  -0.073572
H    2.011239  -0.171040  -0.705946
N    0.504202  -0.374780  2.082633
C    -0.150534  0.131588  3.309892
C    0.885582  0.826923  4.228456
O    1.169116  2.072299  4.067098
H    0.689850  -1.376653  2.063384
H    -0.853233  0.924369  3.003005
C    -0.985645  -1.009351  3.935132
C    -1.950760  -0.583357  5.058365
C    -2.865485  -1.751824  5.475160
N    -3.826646  -1.331055  6.496326
C    -4.467590  -2.155734  7.356512
N    -5.191448  -1.627634  8.347326
N    -4.355976  -3.483579  7.242976
H    -0.322034  -1.822193  4.279439
H    -1.569231  -1.441748  3.107780
H    -2.575056  0.250448  4.698328
H    -1.405056  -0.217500  5.940681
H    -2.259951  -2.568545  5.894753
H    -3.390580  -2.141787  4.586461
H    -4.205945  -0.391538  6.421279
H    -5.849960  -2.189586  8.877390
H    -5.099361  -0.655342  8.619350
H    -4.706112  -4.095246  7.974076
H    -4.123963  -3.926755  6.362219
N    1.487790  0.145657  5.178044
C    2.531159  0.658979  6.078331
H    1.200534  -0.821510  5.315552
H    2.965409  1.568251  5.657337
H    3.301673  -0.111277  6.192255
H    2.095840  0.882550  7.060863
Cd    0.838165  3.018456  2.198474
