37
Energy: -175315.088324 eV PBE+vdW (tier 2 basis)
C    0.631032  0.650427  0.770219
C    0.746232  1.027912  2.207322
O    1.241239  2.179051  2.469269
H    0.029532  1.415505  0.255581
H    0.170985  -0.331780  0.616433
H    1.627056  0.674292  0.305703
N    0.314012  0.161243  3.141561
C    0.054501  0.408752  4.575976
C    1.341374  0.186396  5.409689
O    2.179929  1.146132  5.586058
H    -0.019703  -0.729663  2.776953
H    -0.179227  1.481424  4.683556
C    -1.211059  -0.368223  5.012871
C    -1.710092  -0.006982  6.427948
C    -3.201401  -0.272550  6.699836
N    -3.538028  -1.697704  6.823747
C    -4.808897  -2.177186  6.791901
N    -5.009570  -3.494297  6.890469
N    -5.847267  -1.354293  6.623694
H    -1.056745  -1.454997  4.902528
H    -1.987067  -0.106790  4.277285
H    -1.579625  1.073711  6.592009
H    -1.099363  -0.492874  7.204933
H    -3.801748  0.147777  5.879973
H    -3.470201  0.265535  7.623512
H    -2.883723  -2.271543  7.349515
H    -5.935303  -3.876852  7.055849
H    -4.252176  -4.161093  6.797830
H    -6.778544  -1.722535  6.453825
H    -5.791098  -0.367400  6.845403
N    1.590599  -0.989637  5.942891
C    2.795451  -1.343487  6.709585
H    0.884946  -1.714481  5.832163
H    2.605928  -1.215724  7.783624
H    3.624815  -0.697766  6.410229
H    3.040546  -2.390811  6.505943
Cd    2.253662  2.771508  4.224116
