37
Energy: -175314.044072 eV PBE+vdW (tier 2 basis)
C    -0.212757  -1.433180  -0.642258
C    0.348575  -1.867642  0.660697
O    1.428064  -2.564957  0.633016
H    -0.888608  -0.580648  -0.560292
H    -0.713022  -2.278296  -1.141345
H    0.636807  -1.171286  -1.292042
N    -0.156656  -1.518784  1.873663
C    -1.521555  -1.647360  2.422283
C    -1.656216  -3.116160  2.923333
O    -0.931574  -4.062682  2.429654
H    0.553141  -1.582672  2.607433
H    -1.531550  -0.999979  3.312800
C    -2.692568  -1.216117  1.509969
C    -2.814278  0.312087  1.351162
C    -4.043215  0.712001  0.515440
N    -4.173995  2.170080  0.453628
C    -4.881614  2.858381  -0.470144
N    -4.772755  4.189107  -0.517246
N    -5.658262  2.218208  -1.351443
H    -3.614247  -1.600708  1.969297
H    -2.626472  -1.724307  0.538130
H    -1.907795  0.737394  0.895637
H    -2.898301  0.764402  2.352928
H    -4.950430  0.260442  0.952369
H    -3.941396  0.333489  -0.512524
H    -3.868501  2.700949  1.264018
H    -4.024392  4.683295  -0.044341
H    -5.432069  4.754769  -1.042238
H    -6.071377  2.717618  -2.132986
H    -6.030020  1.295218  -1.163043
N    -2.535877  -3.435586  3.851590
C    -3.522813  -2.605241  4.548368
H    -2.540586  -4.429997  4.097170
H    -3.549352  -2.918076  5.598580
H    -4.520540  -2.757667  4.115304
H    -3.252843  -1.546398  4.504067
Cd    1.129495  -4.284410  1.883596
