37
Energy: -175314.682681 eV PBE+vdW (tier 2 basis)
C    -2.014297  0.650602  1.324304
C    -1.149292  0.149085  2.432076
O    -0.670378  -1.034757  2.299972
H    -2.786931  -0.101678  1.109188
H    -1.409895  0.740199  0.409134
H    -2.492677  1.611435  1.542528
N    -0.936843  0.952108  3.485688
C    -0.360337  0.722339  4.841102
C    1.183127  0.642476  4.869132
O    1.858790  -0.385380  4.482404
H    -1.365724  1.869481  3.380079
H    -0.607414  1.656380  5.364217
C    -1.043047  -0.407999  5.656484
C    -2.504684  -0.056406  6.022285
C    -3.084634  -0.741251  7.277734
N    -3.675349  -2.062249  7.040587
C    -4.699914  -2.583781  7.756530
N    -5.303283  -3.694670  7.319222
N    -5.123914  -1.992307  8.876285
H    -0.449982  -0.522797  6.577338
H    -0.983679  -1.371693  5.127907
H    -3.179540  -0.218245  5.169520
H    -2.549542  1.021654  6.240732
H    -3.891456  -0.097309  7.651806
H    -2.314781  -0.794808  8.066057
H    -3.192447  -2.711436  6.429174
H    -5.232395  -3.997319  6.354841
H    -5.927132  -4.225154  7.919251
H    -6.000468  -2.267823  9.309090
H    -4.535116  -1.365942  9.412254
N    1.829574  1.661634  5.397207
C    3.284862  1.773245  5.563397
H    1.278270  2.439533  5.757808
H    3.594820  2.774846  5.244296
H    3.786670  1.010201  4.965454
H    3.541371  1.640682  6.622872
Cd    1.191666  -1.708897  3.002044
