37
Energy: -175314.963047 eV PBE+vdW (tier 2 basis)
C    0.203235  0.281079  -0.047220
C    -0.255648  -0.208577  1.284106
O    0.564929  -0.101896  2.258873
H    1.092672  -0.288268  -0.353977
H    0.524166  1.328565  0.051711
H    -0.565868  0.207760  -0.823912
N    -1.496235  -0.718827  1.394644
C    -2.215760  -1.079832  2.627644
C    -1.784091  -2.476249  3.157746
O    -0.927871  -2.529349  4.126285
H    -2.027350  -0.764458  0.527054
H    -1.872943  -0.387080  3.414081
C    -3.741288  -0.865502  2.486376
C    -4.175410  0.612867  2.543422
C    -5.700366  0.754191  2.353757
N    -6.139014  2.152445  2.298733
C    -7.153159  2.716058  2.995681
N    -7.773896  3.784951  2.489922
N    -7.533216  2.230388  4.182882
H    -4.227650  -1.424436  3.300326
H    -4.096551  -1.323055  1.551236
H    -3.662703  1.189795  1.757536
H    -3.880495  1.059977  3.504744
H    -6.242535  0.247816  3.161991
H    -6.010909  0.258246  1.420126
H    -5.831174  2.685623  1.489984
H    -7.725441  4.018870  1.504094
H    -8.359743  4.378651  3.069123
H    -8.392107  2.547349  4.621109
H    -6.922707  1.654122  4.747250
N    -2.248821  -3.624588  2.711379
C    -3.244084  -3.932055  1.676800
H    -1.854180  -4.435953  3.197000
H    -3.034668  -4.942306  1.310262
H    -3.164942  -3.239791  0.833942
H    -4.258942  -3.917801  2.093842
Cd    0.668766  -1.139728  4.104445
