37
Energy: -175313.159940 eV PBE+vdW (tier 2 basis)
C    0.150338  0.153845  0.338401
C    -0.048592  -0.268968  1.753014
O    0.838163  -0.900919  2.431371
H    -0.456777  1.018621  0.050879
H    -0.094747  -0.685626  -0.332778
H    1.206010  0.400400  0.165111
N    -1.211154  -0.064202  2.397705
C    -2.484618  0.322708  1.797007
C    -2.812328  1.865365  1.959122
O    -3.252322  2.372326  0.926117
H    -1.210069  -0.367376  3.374387
H    -2.386222  0.207124  0.713569
C    -3.682005  -0.547835  2.267652
C    -4.924647  -0.351270  1.379063
C    -6.044696  -1.405887  1.561676
N    -6.949104  -1.200647  2.695458
C    -8.227327  -0.758622  2.618756
N    -9.059784  -0.997455  3.638012
N    -8.656168  -0.082781  1.550166
H    -3.908306  -0.349794  3.326234
H    -3.347847  -1.595424  2.197471
H    -4.617206  -0.417895  0.324391
H    -5.345383  0.655782  1.510780
H    -5.612163  -2.411055  1.667671
H    -6.652074  -1.438335  0.648270
H    -6.675670  -1.593158  3.591266
H    -9.967128  -0.544716  3.694700
H    -8.877635  -1.728376  4.317787
H    -9.645282  0.094584  1.405301
H    -8.020647  0.311601  0.868302
N    -2.671047  2.518097  3.117874
C    -2.182384  2.043097  4.411119
H    -2.911892  3.507966  3.055177
H    -1.085488  1.999160  4.446477
H    -2.615317  1.071455  4.678299
H    -2.509525  2.757791  5.173502
Cd    3.016433  -0.940767  2.321300
