37
Energy: -175313.522956 eV PBE+vdW (tier 2 basis)
C    0.382199  1.000393  0.786377
C    -0.372574  1.407351  2.004152
O    0.154186  2.085242  2.961507
H    -0.257537  0.711194  -0.052854
H    1.045471  0.156274  1.033856
H    1.022885  1.829264  0.454575
N    -1.646127  1.044651  2.210742
C    -2.410404  0.017828  1.488290
C    -3.324574  0.610375  0.354234
O    -3.333768  -0.060325  -0.683663
H    -2.051624  1.413797  3.074272
H    -1.693357  -0.605665  0.945157
C    -3.223931  -0.877969  2.460862
C    -3.507160  -2.322637  1.998936
C    -4.587274  -2.525867  0.919720
N    -4.931918  -3.945155  0.837585
C    -5.479152  -4.579850  -0.224688
N    -5.599171  -5.911892  -0.188129
N    -5.878854  -3.895367  -1.298036
H    -4.158986  -0.376803  2.752732
H    -2.623828  -0.965244  3.379002
H    -3.826851  -2.858592  2.906476
H    -2.572837  -2.802898  1.672265
H    -4.230180  -2.194505  -0.065569
H    -5.488183  -1.936606  1.170095
H    -4.869267  -4.484684  1.698144
H    -6.149017  -6.414016  -0.879024
H    -5.122802  -6.475720  0.508319
H    -6.171233  -4.373726  -2.144426
H    -6.032686  -2.895358  -1.266320
N    -4.062592  1.715538  0.523938
C    -4.233329  2.568657  1.699864
H    -4.589031  1.978979  -0.309563
H    -5.160077  3.136748  1.568129
H    -3.411869  3.289493  1.806441
H    -4.347968  1.979227  2.617687
Cd    1.846347  3.439123  3.059817
