37
Energy: -175315.256198 eV PBE+vdW (tier 2 basis)
C    -4.445683  2.059639  4.977984
C    -3.552273  1.331980  4.033002
O    -3.463663  1.793194  2.841674
H    -4.484400  1.604023  5.973615
H    -5.457143  2.121827  4.553359
H    -4.082250  3.095062  5.071544
N    -2.877353  0.256867  4.478468
C    -1.729528  -0.439272  3.855301
C    -2.226893  -1.548414  2.894154
O    -2.497053  -1.274076  1.665760
H    -3.086205  -0.009621  5.439669
H    -1.207980  0.293912  3.217389
C    -0.744207  -0.868639  4.966622
C    0.634393  -1.351477  4.476101
C    1.570639  -1.647683  5.663858
N    2.895928  -2.067323  5.204045
C    4.041523  -1.960976  5.915803
N    4.015165  -1.597639  7.202448
N    5.209244  -2.194756  5.310366
H    -1.213172  -1.626721  5.618649
H    -0.605864  0.017762  5.604549
H    1.096049  -0.578929  3.842900
H    0.531150  -2.256481  3.856199
H    1.121949  -2.421167  6.310552
H    1.695936  -0.736206  6.266304
H    2.945086  -2.643899  4.369301
H    4.873791  -1.361160  7.690218
H    3.194807  -1.736110  7.780110
H    5.295560  -2.214499  4.300377
H    6.061021  -2.336800  5.843953
N    -2.381529  -2.778783  3.331529
C    -2.903294  -3.913409  2.554799
H    -2.107826  -2.971653  4.293253
H    -3.391202  -3.546063  1.649516
H    -3.619972  -4.461331  3.176845
H    -2.078314  -4.583593  2.280508
Cd    -2.996437  0.706415  1.096277
