37
Energy: -175313.789975 eV PBE+vdW (tier 2 basis)
C    -0.554796  -1.397032  -0.657906
C    -0.624183  -2.137866  0.637648
O    -0.486579  -3.423727  0.712370
H    -0.679758  -0.315122  -0.542478
H    -1.352638  -1.755169  -1.327626
H    0.419280  -1.577949  -1.137249
N    -0.831496  -1.468750  1.760132
C    -0.988871  -2.038321  3.109373
C    -1.968106  -1.097521  3.820515
O    -1.854019  0.128433  3.593141
H    -0.975405  -0.455377  1.714243
H    -1.400907  -3.048326  2.992988
C    0.358366  -2.148292  3.880156
C    1.202213  -0.876187  4.116944
C    0.971352  -0.051063  5.405809
N    0.180316  1.156442  5.201590
C    0.260952  2.285686  5.946287
N    -0.442940  3.355517  5.552788
N    1.026245  2.344535  7.035908
H    0.972270  -2.859583  3.310568
H    0.148743  -2.649733  4.837171
H    1.190587  -0.206666  3.244737
H    2.242231  -1.224918  4.184781
H    1.951766  0.256000  5.797754
H    0.506797  -0.682328  6.186918
H    -0.588868  1.081388  4.520677
H    -0.510958  4.188968  6.130005
H    -0.870276  3.401668  4.634118
H    1.197970  3.225223  7.512599
H    1.403499  1.514293  7.477326
N    -2.880596  -1.573738  4.678718
C    -3.163961  -2.945477  5.085511
H    -3.488121  -0.850034  5.070555
H    -3.306783  -2.974806  6.173185
H    -2.345708  -3.620317  4.821545
H    -4.095067  -3.294911  4.613823
Cd    -0.255773  -4.789959  -0.937430
