37
Energy: -175313.673211 eV PBE+vdW (tier 2 basis)
C    0.598628  0.861146  0.737636
C    -0.009489  -0.362198  1.343031
O    0.622009  -1.489664  1.417720
H    1.518580  1.126478  1.281764
H    -0.067297  1.730574  0.760266
H    0.853307  0.661257  -0.314787
N    -1.244703  -0.305686  1.816765
C    -2.032266  -1.424339  2.357479
C    -3.475920  -1.185653  1.872703
O    -3.894642  -0.010573  1.844152
H    -1.773491  0.562473  1.692404
H    -1.628053  -2.348909  1.927792
C    -1.988416  -1.541473  3.911840
C    -2.002841  -0.260278  4.768559
C    -3.246226  0.640774  4.793570
N    -4.412439  0.024794  5.425197
C    -5.709108  0.357534  5.179746
N    -6.617533  0.165982  6.138768
N    -6.062060  0.842922  3.987719
H    -1.057699  -2.070664  4.160055
H    -2.800452  -2.222533  4.207724
H    -1.165181  0.391560  4.479306
H    -1.764052  -0.567968  5.798288
H    -3.521704  0.979284  3.788527
H    -2.986803  1.553823  5.361063
H    -4.243584  -0.469316  6.300259
H    -7.612995  0.246063  5.949727
H    -6.353712  0.049193  7.112611
H    -6.984456  1.240593  3.839060
H    -5.451109  0.760300  3.176701
N    -4.246715  -2.230702  1.536960
C    -3.881796  -3.640914  1.413731
H    -5.175221  -1.968213  1.201203
H    -3.408645  -3.845873  0.441379
H    -4.799058  -4.236808  1.471667
H    -3.216394  -3.954916  2.224714
Cd    2.647262  -1.867002  0.779494
