37
Energy: -175315.057750 eV PBE+vdW (tier 2 basis)
C    0.234414  -0.253170  -0.212502
C    -0.213532  -0.646335  1.154003
O    0.655594  -0.595699  2.090311
H    0.699611  0.741966  -0.162201
H    -0.578345  -0.239842  -0.946963
H    1.020386  -0.946643  -0.546428
N    -1.494066  -1.019807  1.332968
C    -2.187062  -1.272877  2.606770
C    -1.867056  -2.687524  3.166257
O    -0.985954  -2.791871  4.107609
H    -2.065626  -1.035405  0.490513
H    -1.744047  -0.593587  3.353852
C    -3.690597  -0.916681  2.528694
C    -3.974542  0.598136  2.569867
C    -5.487109  0.886591  2.518370
N    -5.753082  2.325742  2.571053
C    -6.891646  2.899002  3.022789
N    -6.930331  4.223359  3.195570
N    -7.960288  2.153560  3.324637
H    -4.185632  -1.404335  3.382189
H    -4.134091  -1.359765  1.625059
H    -3.478587  1.099177  1.722914
H    -3.559506  1.032933  3.491656
H    -5.978395  0.421017  3.385018
H    -5.922775  0.446729  1.605134
H    -5.121576  2.937908  2.062790
H    -6.086687  4.784435  3.229243
H    -7.810083  4.713664  3.321801
H    -8.752700  2.560738  3.811729
H    -8.109161  1.241687  2.909744
N    -2.450645  -3.799320  2.770608
C    -3.503391  -4.039669  1.776621
H    -2.117353  -4.630559  3.268253
H    -3.396279  -3.371231  0.917827
H    -4.498095  -3.931888  2.227135
H    -3.392653  -5.070260  1.423850
Cd    0.734888  -1.566176  3.974257
