37
Energy: -175314.393752 eV PBE+vdW (tier 2 basis)
C    -0.885901  -2.323514  -0.531254
C    -0.536160  -1.729886  0.790199
O    0.700216  -1.492876  1.013365
H    -1.959856  -2.504040  -0.651837
H    -0.332382  -3.263289  -0.667045
H    -0.543205  -1.641073  -1.324087
N    -1.525968  -1.463430  1.663940
C    -1.434243  -0.671556  2.901575
C    -0.877732  -1.516597  4.078971
O    0.362279  -1.369666  4.409344
H    -2.461666  -1.705873  1.343571
H    -0.652131  0.088916  2.738138
C    -2.740165  0.126879  3.139056
C    -2.684340  1.060567  4.364993
C    -3.693156  2.228770  4.337761
N    -5.096301  1.879307  4.600729
C    -5.855616  2.383590  5.605287
N    -7.180502  2.455315  5.450295
N    -5.300606  2.785986  6.752223
H    -3.603489  -0.550383  3.196860
H    -2.874403  0.730794  2.227629
H    -1.690709  1.533818  4.413533
H    -2.800458  0.489652  5.298620
H    -3.646975  2.739711  3.363819
H    -3.386861  2.977632  5.077909
H    -5.628156  1.511318  3.817693
H    -7.796012  2.621041  6.240911
H    -7.615046  2.448950  4.533707
H    -5.831895  3.326753  7.427409
H    -4.361307  2.522267  7.020115
N    -1.590197  -2.373940  4.781103
C    -3.001989  -2.757645  4.674016
H    -1.055412  -2.843889  5.517334
H    -3.640478  -2.072555  5.246013
H    -3.104459  -3.760923  5.100163
H    -3.322783  -2.798562  3.629411
Cd    1.750061  -1.130569  2.815527
