37
Energy: -175313.529617 eV PBE+vdW (tier 2 basis)
C    -0.069375  0.762274  0.624316
C    -0.162219  -0.371934  1.593368
O    0.803341  -1.216354  1.770185
H    0.772294  1.417010  0.901645
H    -0.974309  1.378832  0.593371
H    0.105005  0.367206  -0.388065
N    -1.275635  -0.534550  2.290310
C    -1.591472  -1.615208  3.241967
C    -3.007760  -2.084904  2.824488
O    -3.859278  -1.191227  2.706657
H    -2.062376  0.093088  2.098194
H    -0.833964  -2.398424  3.123572
C    -1.611728  -1.062421  4.693457
C    -2.224096  -2.017539  5.749463
C    -3.627738  -1.648432  6.257255
N    -3.579885  -0.578987  7.260387
C    -4.660699  0.056603  7.776088
N    -4.471924  1.025341  8.679482
N    -5.892182  -0.258403  7.372961
H    -2.156707  -0.107436  4.686411
H    -0.572085  -0.826867  4.955488
H    -1.543099  -2.099034  6.609249
H    -2.285455  -3.044054  5.362432
H    -4.088153  -2.547893  6.702378
H    -4.270834  -1.316815  5.425866
H    -2.718463  -0.493682  7.794638
H    -5.248458  1.427593  9.196195
H    -3.551883  1.402472  8.879438
H    -6.696926  0.281855  7.676014
H    -6.090071  -1.119112  6.877443
N    -3.297575  -3.383733  2.618864
C    -2.428966  -4.553934  2.607005
H    -4.263896  -3.533747  2.317155
H    -2.971824  -5.399767  3.048010
H    -1.517395  -4.384302  3.186239
H    -2.163168  -4.829379  1.574887
Cd    2.773481  -1.068093  0.897297
