37
Energy: -175315.076832 eV PBE+vdW (tier 2 basis)
C    -1.739036  1.974067  0.467173
C    -1.939781  0.700777  1.214942
O    -2.552970  -0.243509  0.606012
H    -1.211685  2.738236  1.048710
H    -2.711956  2.360864  0.133477
H    -1.161538  1.754630  -0.444520
N    -1.454864  0.602063  2.466550
C    -1.258098  -0.613433  3.285691
C    -2.535490  -0.933172  4.102493
O    -3.479444  -1.637746  3.584389
H    -1.027084  1.453732  2.826541
H    -1.139145  -1.460144  2.588983
C    0.072410  -0.494504  4.068887
C    0.498026  -1.792443  4.789474
C    2.009339  -1.950903  5.051918
N    2.527836  -1.153357  6.167970
C    3.563895  -1.523621  6.961327
N    4.289233  -2.610000  6.684245
N    3.839975  -0.797392  8.049166
H    0.028487  0.364181  4.761611
H    0.831856  -0.230809  3.316455
H    0.230273  -2.650407  4.153549
H    -0.051290  -1.931255  5.731740
H    2.573283  -1.737549  4.128217
H    2.178495  -3.005455  5.304984
H    2.288208  -0.167943  6.208434
H    4.938817  -2.986891  7.368090
H    4.346611  -2.996648  5.749596
H    3.166324  -0.154598  8.449088
H    4.714576  -0.912626  8.551589
N    -2.665114  -0.482394  5.330953
C    -3.839092  -0.663639  6.198414
H    -1.878670  0.027846  5.727342
H    -4.080262  0.297406  6.666487
H    -3.609018  -1.399245  6.979898
H    -4.684068  -1.016159  5.603461
Cd    -3.684035  -1.795956  1.479666
