37
Energy: -175314.973971 eV PBE+vdW (tier 2 basis)
C    1.514657  -1.598071  2.129147
C    0.865359  -0.258763  2.020198
O    1.638068  0.762197  2.091682
H    2.201181  -1.735166  1.280419
H    0.802260  -2.429459  2.162872
H    2.138914  -1.615391  3.034702
N    -0.467904  -0.209191  1.866936
C    -1.464324  0.895869  1.965902
C    -1.504719  1.802896  0.714857
O    -0.624265  2.708782  0.461195
H    -0.892369  -1.130639  1.784415
H    -2.421720  0.356717  1.970208
C    -1.413255  1.700700  3.290017
C    -1.702771  0.835256  4.532158
C    -1.672145  1.586102  5.881160
N    -2.858807  2.393146  6.192209
C    -3.752510  2.131714  7.176672
N    -4.473809  3.132788  7.688398
N    -3.930689  0.887327  7.630401
H    -2.161697  2.502753  3.193501
H    -0.438819  2.199382  3.415028
H    -0.949031  0.037091  4.603996
H    -2.677403  0.336000  4.415789
H    -0.794713  2.247550  5.934990
H    -1.538434  0.858063  6.691046
H    -2.878714  3.344712  5.839978
H    -4.187747  4.101682  7.598728
H    -5.288551  2.953856  8.267417
H    -4.459658  0.713087  8.479155
H    -3.616705  0.073819  7.117560
N    -2.538731  1.678448  -0.091928
C    -2.785306  2.459088  -1.312041
H    -3.254937  0.997171  0.156069
H    -1.884504  3.011044  -1.587318
H    -3.610477  3.161367  -1.134222
H    -3.070546  1.769212  -2.114974
Cd    1.362824  2.609854  1.132678
