37
Energy: -175313.760970 eV PBE+vdW (tier 2 basis)
C    -0.674352  2.546034  1.296724
C    -0.415899  1.222263  1.931133
O    0.525859  1.083853  2.802151
H    0.259481  2.943471  0.880704
H    -1.041098  3.225537  2.087458
H    -1.413407  2.535647  0.495364
N    -1.164514  0.114015  1.764569
C    -1.856564  -0.343488  0.547107
C    -0.859345  -0.221592  -0.657065
O    0.058566  0.595964  -0.591578
H    -0.853364  -0.643964  2.374571
H    -2.044846  -1.409036  0.738081
C    -3.200287  0.361161  0.232663
C    -4.342527  0.124585  1.248707
C    -5.284660  -1.032847  0.878182
N    -6.428452  -1.064725  1.795372
C    -7.364742  -2.037077  1.863141
N    -8.266661  -2.006413  2.849687
N    -7.374651  -3.035308  0.974209
H    -3.516906  0.039520  -0.770423
H    -3.030382  1.439176  0.133867
H    -4.939098  1.048244  1.287667
H    -3.940946  -0.027866  2.261620
H    -4.769257  -2.005148  0.932488
H    -5.636136  -0.889545  -0.158868
H    -6.628607  -0.213192  2.312817
H    -9.089483  -2.601170  2.833410
H    -8.158173  -1.403554  3.657994
H    -7.997463  -3.828578  1.091771
H    -6.930239  -2.944626  0.069037
N    -1.028223  -0.998119  -1.752774
C    -1.914733  -2.122510  -1.986399
H    -0.334953  -0.806136  -2.481036
H    -2.513964  -2.353383  -1.101702
H    -1.325899  -3.009227  -2.261828
H    -2.587036  -1.896154  -2.829681
Cd    1.706305  2.573390  3.791891
