37
Energy: -175313.576897 eV PBE+vdW (tier 2 basis)
C    -0.133739  1.000875  1.884882
C    -0.462662  -0.221166  2.666962
O    0.313667  -0.634372  3.611844
H    0.836606  0.863655  1.389073
H    -0.053708  1.845070  2.592460
H    -0.864291  1.259023  1.119028
N    -1.556789  -0.983249  2.504303
C    -2.456022  -1.181551  1.350144
C    -1.608694  -1.654333  0.124822
O    -0.625267  -0.980622  -0.185552
H    -1.603122  -1.733669  3.196694
H    -3.107443  -1.998992  1.682787
C    -3.348823  0.034179  0.980041
C    -4.503148  -0.371951  0.041915
C    -5.380151  0.778938  -0.477295
N    -6.354982  1.257832  0.510456
C    -7.139256  2.349879  0.338759
N    -7.993337  2.697360  1.308065
N    -7.042552  3.091237  -0.766649
H    -2.745737  0.809033  0.488946
H    -3.733743  0.460820  1.917273
H    -5.144727  -1.130133  0.520496
H    -4.092440  -0.854356  -0.856814
H    -5.910013  0.411983  -1.372864
H    -4.751205  1.627670  -0.785798
H    -6.698250  0.574607  1.180438
H    -7.962615  2.272607  2.227733
H    -8.709399  3.400872  1.156077
H    -6.610963  2.739192  -1.612698
H    -7.538229  3.973552  -0.848813
N    -1.967091  -2.756649  -0.572344
C    -2.925591  -3.808105  -0.258381
H    -1.322815  -2.953946  -1.343050
H    -3.309333  -4.215700  -1.202542
H    -3.770512  -3.430129  0.323117
H    -2.442367  -4.634510  0.286439
Cd    1.857061  0.391881  4.696547
