37
Energy: -175314.697674 eV PBE+vdW (tier 2 basis)
C    -2.330694  -0.244380  -0.141148
C    -1.902552  -0.451149  1.274112
O    -1.314159  -1.556000  1.538513
H    -2.943612  -1.102397  -0.453753
H    -1.441877  -0.246559  -0.789102
H    -2.895164  0.681396  -0.297247
N    -2.170249  0.521366  2.164336
C    -2.077143  0.584025  3.648146
C    -0.621449  0.714276  4.148894
O    0.156022  -0.304759  4.300257
H    -2.599397  1.340611  1.740677
H    -2.567163  1.533495  3.894245
C    -2.847932  -0.539937  4.383806
C    -4.389756  -0.495422  4.236547
C    -5.106005  0.223535  5.396334
N    -6.558969  0.168022  5.223387
C    -7.479334  0.048817  6.207014
N    -8.737847  -0.264372  5.887002
N    -7.137755  0.217456  7.489665
H    -2.564410  -0.493585  5.446323
H    -2.506756  -1.524538  4.032389
H    -4.762981  -1.527173  4.194403
H    -4.668204  -0.034775  3.275176
H    -4.771116  1.271625  5.482720
H    -4.860577  -0.284670  6.339446
H    -6.927226  0.322078  4.289250
H    -9.497053  -0.141431  6.549790
H    -8.980512  -0.658729  4.984780
H    -7.783900  -0.032669  8.232156
H    -6.340676  0.780798  7.759350
N    -0.142155  1.886379  4.515121
C    -0.775247  3.211923  4.551699
H    0.819052  1.845909  4.868191
H    -1.272283  3.375398  5.516921
H    -1.482798  3.340740  3.727348
H    0.015913  3.960859  4.437913
Cd    0.070961  -2.002163  3.061341
