37
Energy: -175313.980120 eV PBE+vdW (tier 2 basis)
C    0.247474  0.633139  0.045109
C    0.782299  -0.108938  1.221592
O    1.607962  -1.096282  1.086022
H    1.056896  1.235408  -0.398819
H    -0.576552  1.311095  0.283171
H    -0.095546  -0.081038  -0.714805
N    0.434721  0.161359  2.474503
C    -0.499895  1.150542  3.010651
C    0.156671  1.584859  4.362545
O    0.820004  0.760356  4.988943
H    0.932923  -0.354457  3.214857
H    -0.558269  2.001835  2.320852
C    -1.943273  0.625036  3.279694
C    -2.045099  -0.604253  4.200469
C    -3.378471  -0.774572  4.943759
N    -4.506864  -1.121354  4.069416
C    -5.805566  -1.099135  4.456181
N    -6.757110  -1.384904  3.559710
N    -6.139904  -0.768276  5.705153
H    -2.406526  0.434166  2.299633
H    -2.500340  1.471844  3.710490
H    -1.285316  -0.545156  4.995285
H    -1.806740  -1.525405  3.645665
H    -3.631762  0.158343  5.469817
H    -3.238959  -1.561253  5.704444
H    -4.301684  -1.696492  3.256887
H    -7.719125  -1.544999  3.842265
H    -6.564076  -1.416977  2.565245
H    -7.110481  -0.615946  5.962172
H    -5.475556  -0.816205  6.468537
N    -0.077038  2.849300  4.779965
C    0.543167  3.416019  5.969596
H    -0.574806  3.486851  4.160671
H    -0.151870  4.134981  6.421404
H    1.468469  3.957425  5.710991
H    0.794813  2.608812  6.665082
Cd    3.142253  -1.532718  -0.342597
