37
Energy: -175314.003790 eV PBE+vdW (tier 2 basis)
C    0.334731  1.260702  0.127109
C    0.098631  0.338777  1.272925
O    0.939611  -0.595957  1.582276
H    0.563871  0.673250  -0.772348
H    1.207069  1.896001  0.347951
H    -0.509402  1.919133  -0.093626
N    -0.987338  0.381093  2.035291
C    -2.216433  1.175660  1.921797
C    -2.641823  1.391084  3.411881
O    -2.597705  0.422586  4.167542
H    -1.022151  -0.289379  2.815951
H    -1.996017  2.131311  1.429014
C    -3.315308  0.387325  1.158592
C    -4.683822  1.086109  1.078961
C    -5.709814  0.206669  0.344146
N    -7.020695  0.858956  0.289923
C    -8.032147  0.523342  -0.542260
N    -7.949380  -0.565487  -1.310940
N    -9.112215  1.310886  -0.603347
H    -3.421855  -0.590748  1.652068
H    -2.930718  0.197967  0.144453
H    -4.595186  2.051754  0.557869
H    -5.057159  1.292846  2.094682
H    -5.792588  -0.767581  0.856990
H    -5.378189  0.019117  -0.688446
H    -7.249691  1.514500  1.031942
H    -8.637145  -0.744258  -2.036136
H    -7.312939  -1.323716  -1.096744
H    -9.109660  2.254528  -0.231477
H    -9.962262  1.007363  -1.068663
N    -3.045166  2.626540  3.779671
C    -3.396358  2.962783  5.154560
H    -2.956840  3.390093  3.112784
H    -4.171179  3.738351  5.145327
H    -2.521678  3.358423  5.695869
H    -3.743379  2.060602  5.668899
Cd    3.042790  -0.845852  1.313366
