37
Energy: -175314.926921 eV PBE+vdW (tier 2 basis)
C    1.651991  -2.552551  4.092531
C    0.940826  -1.260227  3.881348
O    1.525564  -0.385593  3.152025
H    1.825937  -3.018445  3.109928
H    1.097237  -3.252588  4.727027
H    2.643609  -2.359071  4.524774
N    -0.270601  -1.087981  4.441749
C    -1.284701  -0.053705  4.141721
C    -1.059106  1.199738  5.023283
O    -0.251032  2.126483  4.643828
H    -0.583790  -1.860632  5.027388
H    -1.109789  0.282035  3.105752
C    -2.694415  -0.691842  4.169991
C    -3.816093  0.215115  3.622637
C    -5.083616  -0.531657  3.154155
N    -5.956868  -1.055141  4.214038
C    -7.261611  -0.727571  4.390136
N    -8.082136  -1.604940  4.974591
N    -7.729673  0.464883  4.010315
H    -2.930412  -1.058711  5.184100
H    -2.620257  -1.590761  3.537964
H    -3.441412  0.742437  2.731189
H    -4.089142  0.994258  4.349317
H    -4.802576  -1.370550  2.499092
H    -5.678722  0.143420  2.527537
H    -5.690027  -1.944371  4.625814
H    -7.869585  -2.595999  5.013043
H    -8.997771  -1.325951  5.313882
H    -8.728175  0.644742  3.972908
H    -7.119693  1.244791  3.802370
N    -1.689907  1.320638  6.170841
C    -1.528176  2.420769  7.133080
H    -2.359904  0.593961  6.415057
H    -2.409105  3.074440  7.097715
H    -0.636076  2.998681  6.883005
H    -1.434277  1.995580  8.138701
Cd    1.281484  1.708316  3.237167
