37
Energy: -175314.018708 eV PBE+vdW (tier 2 basis)
C    -0.872076  -0.873891  -0.134065
C    -0.515169  -0.506602  1.255340
O    0.686281  -0.699366  1.662467
H    -0.655092  -1.951367  -0.247318
H    -0.218214  -0.366628  -0.857182
H    -1.928346  -0.710591  -0.366139
N    -1.426679  -0.015564  2.137336
C    -2.324168  1.132696  1.933558
C    -1.408714  2.388702  1.912587
O    -0.344563  2.426971  2.648132
H    -1.152937  -0.133816  3.115951
H    -2.835795  1.019671  0.969415
C    -3.334638  1.147377  3.115581
C    -4.478958  2.182419  3.087384
C    -5.803696  1.740691  2.442569
N    -6.566529  0.864839  3.343277
C    -7.719520  0.233026  3.016162
N    -8.293870  -0.580077  3.906351
N    -8.257391  0.383941  1.800970
H    -2.749759  1.296525  4.036685
H    -3.747408  0.128862  3.173836
H    -4.163894  3.113974  2.600950
H    -4.684697  2.489963  4.123557
H    -5.629773  1.199111  1.499318
H    -6.385812  2.646910  2.207768
H    -6.415047  1.003177  4.339055
H    -9.243334  -0.916469  3.780245
H    -7.816714  -0.874264  4.751010
H    -9.052533  -0.179217  1.514902
H    -8.058201  1.195783  1.229024
N    -1.689813  3.456599  1.193121
C    -2.812137  3.744366  0.295388
H    -1.001718  4.210870  1.285444
H    -3.386432  4.594539  0.685093
H    -3.466959  2.877231  0.185680
H    -2.409629  4.021034  -0.687504
Cd    1.283653  1.033861  2.792521
