37
Energy: -175313.938468 eV PBE+vdW (tier 2 basis)
C    -2.465039  0.494238  0.458195
C    -1.800870  0.777433  1.771467
O    -0.901522  1.617490  1.904834
H    -2.969515  -0.477023  0.417133
H    -1.722158  0.572996  -0.343856
H    -3.210988  1.285827  0.279763
N    -2.249228  0.061727  2.870217
C    -1.627887  0.042930  4.177319
C    -1.817571  1.409100  4.939883
O    -2.377210  1.276591  6.082852
H    -3.003093  -0.604017  2.712011
H    -2.191801  -0.686000  4.773243
C    -0.117675  -0.359080  4.225078
C    0.135302  -1.788117  3.721162
C    1.609543  -2.208730  3.954959
N    1.865061  -3.584909  3.536947
C    2.789847  -4.031424  2.652521
N    3.352970  -3.210903  1.761925
N    3.130815  -5.322960  2.680367
H    0.198890  -0.270961  5.275685
H    0.467277  0.369943  3.648101
H    -0.102146  -1.871661  2.650817
H    -0.518353  -2.498139  4.251388
H    1.851803  -2.131404  5.026194
H    2.303003  -1.538635  3.432314
H    1.387752  -4.310013  4.067652
H    4.151688  -3.508712  1.210358
H    2.960198  -2.305809  1.538588
H    2.927878  -5.915975  3.478684
H    3.680998  -5.741293  1.935909
N    -1.395239  2.518792  4.383176
C    -1.502695  3.860449  4.943226
H    -1.018342  2.387455  3.412799
H    -1.077536  4.569137  4.222912
H    -0.917533  3.958172  5.871192
H    -2.555425  4.156487  5.089143
Cd    -3.011293  2.700716  7.593645
