37
Energy: -175313.912006 eV PBE+vdW (tier 2 basis)
C    0.074402  1.447568  0.881699
C    -0.132273  0.396562  1.916374
O    0.847871  -0.322511  2.364538
H    0.592691  1.009919  0.017342
H    0.718003  2.240757  1.293718
H    -0.850316  1.915276  0.533906
N    -1.318583  0.091486  2.426305
C    -2.667729  0.551031  2.075418
C    -3.424629  0.472956  3.442030
O    -3.211083  -0.512322  4.148132
H    -1.332023  -0.631271  3.160993
H    -2.619140  1.575860  1.691252
C    -3.328597  -0.413080  1.049753
C    -4.793767  -0.101651  0.695788
C    -5.371596  -1.174834  -0.243125
N    -6.774128  -0.898272  -0.563126
C    -7.466310  -1.433009  -1.594779
N    -8.691457  -0.967910  -1.864787
N    -6.930808  -2.395318  -2.349833
H    -3.253685  -1.429807  1.464805
H    -2.710305  -0.388861  0.139326
H    -4.874623  0.882682  0.210328
H    -5.402937  -0.069138  1.613428
H    -5.280766  -2.166649  0.233584
H    -4.803951  -1.199037  -1.185783
H    -7.321711  -0.394174  0.128962
H    -9.313191  -1.455173  -2.503077
H    -9.028737  -0.090882  -1.482931
H    -7.384383  -2.697717  -3.206505
H    -6.160584  -2.965808  -2.022478
N    -4.282482  1.453938  3.805076
C    -4.502803  2.758327  3.196848
H    -4.671132  1.309352  4.740462
H    -3.742680  3.488330  3.518162
H    -5.478372  3.131131  3.528992
H    -4.505008  2.695092  2.103511
Cd    2.942695  0.006283  2.591214
