37
Energy: -175315.146038 eV PBE+vdW (tier 2 basis)
C    0.080352  -0.073030  -0.353581
C    0.236300  0.548983  0.991792
O    0.430196  1.813865  1.030404
H    -0.744117  0.432499  -0.879247
H    -0.124090  -1.148474  -0.312692
H    0.986655  0.112551  -0.947648
N    0.148064  -0.234974  2.081702
C    -0.002375  0.166238  3.496902
C    1.386643  0.407413  4.143707
O    1.944717  1.565555  4.078241
H    0.035165  -1.228709  1.886483
H    -0.505338  1.147710  3.507634
C    -0.932978  -0.836113  4.221943
C    -1.360135  -0.384462  5.633126
C    -2.155053  -1.419948  6.454792
N    -3.572705  -1.514117  6.093233
C    -4.570705  -1.827600  6.953672
N    -5.839808  -1.666258  6.565986
N    -4.300630  -2.271305  8.184569
H    -0.458448  -1.832588  4.263037
H    -1.811793  -0.957288  3.570161
H    -1.938219  0.550114  5.575392
H    -0.467509  -0.152689  6.233274
H    -2.111785  -1.102667  7.504829
H    -1.671656  -2.409678  6.388733
H    -3.825474  -1.523747  5.110720
H    -6.606323  -2.081572  7.086170
H    -6.088939  -1.077215  5.779745
H    -5.033322  -2.331997  8.885242
H    -3.419615  -2.714489  8.416117
N    2.009357  -0.571417  4.762619
C    3.345757  -0.489241  5.371973
H    1.519030  -1.459165  4.853517
H    3.912523  0.322149  4.909319
H    3.856673  -1.445075  5.216597
H    3.251955  -0.299168  6.449263
Cd    1.440629  2.913907  2.522275
