37
Energy: -175314.960121 eV PBE+vdW (tier 2 basis)
C    -1.416634  1.552693  0.930934
C    -0.927871  0.607978  1.977345
O    -0.528768  -0.539815  1.571424
H    -2.218532  1.058572  0.361626
H    -0.605881  1.751249  0.215167
H    -1.792999  2.498292  1.336010
N    -0.949751  1.011142  3.259461
C    -0.787370  0.285626  4.552957
C    0.702054  0.021177  4.888767
O    1.383746  -0.930262  4.357922
H    -1.258868  1.974766  3.369560
H    -1.143450  1.016530  5.291682
C    -1.684072  -0.969858  4.677173
C    -1.965746  -1.444343  6.123918
C    -3.256027  -0.858438  6.729906
N    -3.513678  -1.434006  8.051449
C    -4.729406  -1.656483  8.600828
N    -4.823027  -2.432827  9.683627
N    -5.831960  -1.128255  8.057970
H    -1.242596  -1.814766  4.123746
H    -2.626562  -0.753431  4.154217
H    -1.105756  -1.224300  6.777749
H    -2.062738  -2.538009  6.113275
H    -4.105686  -1.114006  6.080723
H    -3.201777  0.242199  6.793687
H    -2.715595  -1.604387  8.656067
H    -4.075695  -3.059772  9.960813
H    -5.663471  -2.445551  10.253149
H    -6.752414  -1.425243  8.367549
H    -5.798369  -0.291098  7.489211
N    1.273710  0.791485  5.792219
C    2.673913  0.708439  6.233836
H    0.711492  1.531323  6.209513
H    3.084881  -0.271021  5.980246
H    2.708033  0.861347  7.317757
H    3.258921  1.498133  5.743527
Cd    0.887949  -1.784078  2.491987
