37
Energy: -175313.607658 eV PBE+vdW (tier 2 basis)
C    0.798101  0.480693  0.638753
C    0.260408  -0.378867  1.735322
O    0.999894  -1.213118  2.391928
H    1.603122  1.121964  1.030712
H    0.039144  1.129228  0.188558
H    1.211266  -0.157580  -0.157016
N    -1.025347  -0.308336  2.051012
C    -1.724860  -1.175248  3.012787
C    -3.104985  -1.433884  2.380226
O    -3.608792  -0.492665  1.728691
H    -1.650770  0.256138  1.466048
H    -1.135923  -2.095548  3.102079
C    -1.888214  -0.540544  4.433236
C    -3.127246  0.309671  4.754894
C    -3.244393  1.732963  4.132193
N    -4.386144  1.851060  3.233569
C    -5.290965  2.858326  3.190702
N    -6.395176  2.688807  2.452831
N    -5.102163  3.993176  3.865829
H    -0.967881  0.021695  4.648591
H    -1.893794  -1.381570  5.141423
H    -3.123592  0.443971  5.846179
H    -4.050415  -0.252123  4.552815
H    -2.321431  2.000397  3.589855
H    -3.359382  2.467030  4.937728
H    -4.476211  1.099692  2.541810
H    -6.680207  1.773741  2.120764
H    -7.029586  3.459590  2.263411
H    -5.847843  4.676871  3.959131
H    -4.194565  4.265826  4.223348
N    -3.737783  -2.593954  2.577905
C    -3.266401  -3.804779  3.246794
H    -4.641874  -2.658146  2.105029
H    -4.125941  -4.297759  3.716092
H    -2.535615  -3.571348  4.026475
H    -2.826729  -4.505237  2.521353
Cd    3.135485  -1.479271  2.224403
