37
Energy: -175313.992846 eV PBE+vdW (tier 2 basis)
C    -0.143781  1.043166  -0.657862
C    -0.097732  0.659530  0.782364
O    1.026383  0.513900  1.409906
H    0.256605  2.063552  -0.772042
H    -1.144616  1.028641  -1.096825
H    0.492462  0.358843  -1.236804
N    -1.184473  0.422170  1.507311
C    -2.595975  0.429082  1.092258
C    -3.392065  0.805057  2.372877
O    -3.063008  0.275729  3.446613
H    -1.038501  0.188409  2.496173
H    -2.728629  1.202630  0.325906
C    -3.089092  -0.925845  0.517669
C    -3.193836  -2.128522  1.474315
C    -4.606136  -2.290183  2.101738
N    -4.693219  -3.388513  3.053967
C    -4.570801  -3.297428  4.399739
N    -4.864682  -4.370937  5.141722
N    -4.168080  -2.160894  4.971085
H    -2.399163  -1.183804  -0.300554
H    -4.055611  -0.737901  0.025068
H    -2.429412  -2.084903  2.262990
H    -2.985563  -3.042582  0.901729
H    -5.333954  -2.499611  1.306120
H    -4.941282  -1.373388  2.603197
H    -4.878350  -4.314904  2.676069
H    -4.701696  -4.386404  6.144062
H    -5.344700  -5.176936  4.752980
H    -4.189483  -2.058781  5.980400
H    -3.791819  -1.376809  4.438011
N    -4.423823  1.645964  2.214286
C    -5.258784  2.139876  3.307425
H    -4.566461  2.068758  1.299093
H    -6.303044  2.170858  2.973545
H    -5.149163  1.482758  4.174039
H    -4.954572  3.157674  3.591807
Cd    2.997606  1.200044  0.955002
