37
Energy: -175315.016433 eV PBE+vdW (tier 2 basis)
C    -1.309966  -2.957741  -0.348193
C    -0.874569  -2.031601  0.735099
O    0.306931  -1.549396  0.648952
H    -1.249369  -2.425879  -1.310070
H    -2.329546  -3.334186  -0.209389
H    -0.606841  -3.800135  -0.411987
N    -1.738327  -1.742634  1.726576
C    -1.614414  -0.689511  2.749216
C    -0.710584  -1.145890  3.926209
O    0.510570  -0.724249  3.962314
H    -2.644162  -2.203349  1.657155
H    -1.049055  0.140419  2.292892
C    -3.012204  -0.119661  3.088885
C    -3.013060  1.056161  4.083212
C    -4.413981  1.690264  4.183996
N    -4.416766  2.821719  5.113657
C    -5.510184  3.324755  5.731613
N    -6.734777  2.890625  5.414513
N    -5.352377  4.241053  6.691019
H    -3.673888  -0.920175  3.448004
H    -3.429631  0.217545  2.127213
H    -2.295140  1.822605  3.748416
H    -2.691114  0.729643  5.083740
H    -5.134441  0.945811  4.553572
H    -4.743474  2.011309  3.181117
H    -3.584920  3.403929  5.145374
H    -7.537064  3.150687  5.980202
H    -6.938364  2.480014  4.511173
H    -6.134731  4.793799  7.027006
H    -4.454439  4.407430  7.131308
N    -1.104543  -1.931057  4.908099
C    -2.404023  -2.560013  5.172621
H    -0.368224  -2.127605  5.592372
H    -2.875086  -2.900497  4.246316
H    -3.069464  -1.876557  5.715012
H    -2.223167  -3.436240  5.803643
Cd    1.542394  -0.640395  2.105143
