37
Energy: -175315.128862 eV PBE+vdW (tier 2 basis)
C    -1.097682  0.541097  -0.521499
C    -1.606253  -0.119865  0.713612
O    -2.478450  -1.045174  0.562348
H    -0.324230  1.291471  -0.324804
H    -1.937936  1.002758  -1.059668
H    -0.689588  -0.233038  -1.189278
N    -1.117649  0.269362  1.904860
C    -1.242236  -0.398701  3.219083
C    -2.534291  0.064589  3.941965
O    -3.650729  -0.541569  3.731812
H    -0.461482  1.047780  1.863946
H    -1.382413  -1.475587  3.026981
C    0.082008  -0.237099  4.002928
C    0.181045  -1.100127  5.275462
C    1.433282  -0.835478  6.140151
N    2.703477  -1.340947  5.604138
C    3.465868  -2.310673  6.165932
N    2.920234  -3.248374  6.946252
N    4.778297  -2.335276  5.919241
H    0.247984  0.827779  4.246395
H    0.886692  -0.510099  3.303228
H    0.139409  -2.165836  5.003647
H    -0.684477  -0.913025  5.929700
H    1.281191  -1.281460  7.130816
H    1.552193  0.243994  6.318344
H    3.194924  -0.743924  4.946422
H    3.501483  -3.860638  7.509948
H    1.925356  -3.431151  6.956289
H    5.278813  -1.516280  5.591169
H    5.341725  -3.150259  6.141654
N    -2.496952  1.082387  4.773174
C    -3.644349  1.664507  5.485400
H    -1.588378  1.504427  4.956505
H    -3.640264  2.749759  5.329827
H    -3.551564  1.455739  6.558822
H    -4.571638  1.231230  5.106109
Cd    -3.970417  -1.621299  1.938089
