37
Energy: -175314.751011 eV PBE+vdW (tier 2 basis)
C    0.412607  -0.474387  1.063451
C    0.084552  0.422281  2.207778
O    0.795882  1.476870  2.345711
H    -0.240187  -1.351731  0.999610
H    1.462133  -0.792192  1.135037
H    0.326957  0.106191  0.131645
N    -0.941593  0.093245  3.015012
C    -1.654961  0.943538  3.989413
C    -1.017203  0.840377  5.395366
O    0.079225  1.460029  5.660306
H    -1.376052  -0.802572  2.804362
H    -1.466972  1.988288  3.688245
C    -3.195965  0.778663  3.853393
C    -3.848385  -0.614191  4.000483
C    -5.242965  -0.718282  3.337388
N    -6.325223  -0.004703  4.025276
C    -7.494225  -0.554107  4.443786
N    -8.579261  0.218385  4.536584
N    -7.568954  -1.844064  4.783216
H    -3.424453  1.161251  2.846519
H    -3.651350  1.492871  4.555516
H    -3.947248  -0.918772  5.054357
H    -3.241254  -1.395421  3.515587
H    -5.523845  -1.775162  3.261106
H    -5.186833  -0.347859  2.301803
H    -6.359355  1.002384  3.897587
H    -8.657817  1.098697  4.038621
H    -9.403212  -0.087813  5.045531
H    -8.468371  -2.293698  4.923667
H    -6.748771  -2.400584  4.985681
N    -1.581537  0.139755  6.353273
C    -1.040355  -0.000131  7.716053
H    -2.443796  -0.351052  6.133940
H    -0.745667  0.981758  8.101217
H    -0.166682  -0.664231  7.707615
H    -1.818868  -0.428630  8.352113
Cd    1.233005  2.435001  4.175751
