37
Energy: -175314.436401 eV PBE+vdW (tier 2 basis)
C    -1.477596  -0.335253  -0.786462
C    -1.537933  -0.497754  0.695531
O    -1.326916  -1.676751  1.151986
H    -1.682600  0.687013  -1.122845
H    -2.211824  -1.017292  -1.242179
H    -0.489963  -0.655353  -1.147777
N    -1.820989  0.582909  1.442200
C    -2.217523  0.755608  2.868915
C    -1.018504  0.634989  3.834187
O    -0.573522  -0.499639  4.258776
H    -1.929292  1.430627  0.888950
H    -2.530054  1.806155  2.906171
C    -3.452350  -0.083086  3.278623
C    -4.161818  0.454758  4.537471
C    -5.526270  -0.223504  4.761254
N    -6.207576  0.349876  5.924605
C    -7.235617  -0.221633  6.592180
N    -7.646504  0.317579  7.743119
N    -7.817096  -1.332794  6.126830
H    -3.195417  -1.145747  3.417630
H    -4.141300  -0.051408  2.421622
H    -4.323866  1.538675  4.416082
H    -3.535328  0.317691  5.431813
H    -5.389680  -1.300126  4.941877
H    -6.143431  -0.106158  3.853980
H    -6.033993  1.328443  6.133927
H    -8.533951  0.056749  8.161332
H    -7.084568  0.991674  8.250753
H    -8.484344  -1.843217  6.697359
H    -7.788478  -1.577995  5.144580
N    -0.444842  1.722753  4.307916
C    -0.768414  3.138724  4.063100
H    0.341019  1.540829  4.938624
H    -0.610773  3.399721  3.009482
H    -0.087354  3.742393  4.669747
H    -1.794919  3.371816  4.369670
Cd    -0.566412  -2.212273  3.030970
