37
Energy: -175314.532760 eV PBE+vdW (tier 2 basis)
C    -1.793291  1.497280  1.520975
C    -1.113751  0.555386  2.458324
O    -0.787024  -0.588905  1.984504
H    -2.666606  0.990532  1.084123
H    -1.117046  1.722478  0.683288
H    -2.115656  2.430989  1.994560
N    -0.902319  0.960701  3.722795
C    -0.476190  0.247939  4.960859
C    1.045995  -0.026200  5.002423
O    1.608481  -0.986183  4.355165
H    -1.183169  1.925793  3.881776
H    -0.666527  0.989857  5.748927
C    -1.319888  -1.007967  5.297914
C    -2.815045  -0.723010  5.570978
C    -3.188220  -0.318664  7.015946
N    -3.345852  -1.437865  7.951633
C    -4.479467  -2.153094  8.150844
N    -4.466547  -3.165742  9.020793
N    -5.592380  -1.881909  7.460557
H    -0.851363  -1.497403  6.165662
H    -1.255969  -1.740540  4.478842
H    -3.392796  -1.616604  5.299280
H    -3.172177  0.067339  4.894051
H    -4.107291  0.284848  6.998735
H    -2.435267  0.345602  7.461245
H    -2.637317  -1.540207  8.669928
H    -3.612530  -3.486759  9.462414
H    -5.323930  -3.623717  9.313644
H    -6.425223  -2.450332  7.580064
H    -5.728256  -0.990968  6.999721
N    1.781668  0.732096  5.789734
C    3.234191  0.628214  5.987923
H    1.309284  1.462991  6.319731
H    3.438431  0.479518  7.055271
H    3.705301  1.564525  5.662623
H    3.627129  -0.211997  5.413185
Cd    0.811620  -1.811023  2.592562
