37
Energy: -175313.718598 eV PBE+vdW (tier 2 basis)
C    -0.386247  0.751332  1.307011
C    -0.285828  -0.234291  2.415291
O    0.854759  -0.562233  2.921020
H    0.182766  0.380473  0.443370
H    0.069491  1.698026  1.644607
H    -1.404992  0.951055  0.975587
N    -1.324844  -0.869630  2.980586
C    -2.703043  -1.119419  2.519095
C    -2.675682  -1.928770  1.178151
O    -2.120391  -1.427325  0.201171
H    -1.030692  -1.470305  3.753844
H    -3.113688  -1.766203  3.307262
C    -3.615092  0.130831  2.408829
C    -5.103315  -0.269364  2.469513
C    -6.105823  0.889148  2.590239
N    -6.357780  1.579289  1.320296
C    -7.068852  2.727932  1.204493
N    -7.578576  3.325279  2.283486
N    -7.228374  3.275970  -0.005435
H    -3.400460  0.685900  1.486455
H    -3.374136  0.789100  3.256213
H    -5.269113  -0.894711  3.359525
H    -5.375773  -0.901425  1.608667
H    -5.746846  1.628586  3.322422
H    -7.049809  0.468075  2.977022
H    -6.291246  1.018405  0.474841
H    -8.007261  4.243517  2.217905
H    -7.708710  2.831959  3.158811
H    -6.704720  2.956776  -0.812447
H    -7.887493  4.032433  -0.161050
N    -3.283983  -3.130027  1.176623
C    -3.299483  -4.012614  0.013129
H    -3.626002  -3.506908  2.057769
H    -2.450612  -4.712996  0.043084
H    -3.224110  -3.410041  -0.897872
H    -4.227982  -4.594795  0.023355
Cd    2.737832  0.471741  2.969984
