37
Energy: -175313.912514 eV PBE+vdW (tier 2 basis)
C    -0.791710  1.280503  -0.137582
C    -0.169997  1.172826  1.211518
O    1.078386  1.436184  1.408882
H    -0.650856  2.302210  -0.522134
H    -1.860653  1.055116  -0.162243
H    -0.280061  0.590220  -0.824508
N    -0.831920  0.766235  2.298151
C    -2.180825  0.169954  2.413134
C    -2.791735  0.774066  3.717831
O    -2.576912  0.199053  4.793670
H    -0.258996  0.725290  3.146395
H    -2.770763  0.488472  1.546548
C    -2.118014  -1.368803  2.463146
C    -3.486284  -2.086731  2.414116
C    -4.194588  -2.406991  3.746923
N    -3.549344  -3.465123  4.523494
C    -3.184264  -3.411038  5.830679
N    -3.044478  -4.557533  6.503369
N    -2.951967  -2.235894  6.415991
H    -1.533283  -1.684097  3.339089
H    -1.545814  -1.681777  1.577904
H    -3.352209  -3.029672  1.865384
H    -4.203092  -1.512311  1.807350
H    -5.209228  -2.763949  3.500277
H    -4.319640  -1.529850  4.387723
H    -3.545274  -4.392936  4.102130
H    -2.622665  -4.581296  7.427249
H    -3.455135  -5.425893  6.173790
H    -2.835224  -2.175604  7.422733
H    -2.816466  -1.379824  5.873594
N    -3.517497  1.902121  3.634773
C    -3.939430  2.651143  2.453103
H    -3.907994  2.203879  4.529633
H    -4.220845  3.659527  2.775071
H    -4.817424  2.193954  1.973935
H    -3.124209  2.743292  1.727777
Cd    2.552686  2.547011  0.307646
