37
Energy: -175313.982163 eV PBE+vdW (tier 2 basis)
C    -0.612348  1.454678  0.443009
C    -0.106610  0.579353  1.536618
O    1.117654  0.640251  1.945311
H    -0.550035  2.506630  0.763674
H    -1.644797  1.256444  0.145263
H    0.028878  1.332047  -0.441478
N    -0.851841  -0.343453  2.148089
C    -2.208363  -0.833272  1.815562
C    -2.895338  -1.103681  3.190690
O    -2.639058  -2.150577  3.798106
H    -0.356444  -0.879506  2.867318
H    -2.740637  -0.031645  1.288207
C    -2.155288  -2.098094  0.937368
C    -3.526173  -2.625166  0.459550
C    -4.255415  -3.657897  1.343995
N    -3.624829  -4.978065  1.356512
C    -3.253222  -5.695610  2.446774
N    -3.122176  -7.020538  2.326311
N    -3.005535  -5.083663  3.605925
H    -1.588710  -2.880429  1.463379
H    -1.564704  -1.835068  0.047886
H    -3.389749  -3.067582  -0.537297
H    -4.228135  -1.792252  0.300041
H    -5.268733  -3.789536  0.929180
H    -4.382644  -3.323450  2.377763
H    -3.635453  -5.488550  0.474835
H    -2.693854  -7.579350  3.058469
H    -3.542787  -7.532621  1.556862
H    -2.865006  -4.072766  3.667839
H    -2.886629  -5.624006  4.457054
N    -3.730276  -0.154715  3.646040
C    -4.486837  -0.273006  4.889609
H    -3.925005  0.648980  3.053653
H    -4.611555  0.726372  5.321847
H    -3.944240  -0.927182  5.579465
H    -5.486032  -0.695281  4.704614
Cd    2.631419  2.157153  1.810032
