37
Energy: -175313.608376 eV PBE+vdW (tier 2 basis)
C    -0.166041  -1.852124  0.969208
C    -0.016034  -0.452802  1.461761
O    1.082103  -0.038620  2.010119
H    0.571599  -2.038873  0.173317
H    -1.156490  -2.083683  0.569411
H    0.037725  -2.549224  1.795128
N    -0.989621  0.447126  1.396794
C    -2.351106  0.309707  0.856504
C    -2.734748  1.710931  0.325368
O    -2.418376  2.713485  0.989893
H    -0.769612  1.386986  1.746225
H    -2.319423  -0.396023  0.019236
C    -3.407996  -0.198979  1.880292
C    -3.377732  0.325315  3.328486
C    -3.709433  1.795377  3.624157
N    -5.099426  2.153251  3.344996
C    -5.548808  3.403411  3.052301
N    -6.813024  3.719359  3.342161
N    -4.739940  4.285491  2.461468
H    -3.287217  -1.290827  1.941718
H    -4.397878  -0.044878  1.424003
H    -2.386471  0.145502  3.770566
H    -4.055990  -0.317861  3.910039
H    -3.046649  2.475105  3.076740
H    -3.512419  1.975667  4.696999
H    -5.808624  1.494344  3.662806
H    -7.238629  4.575166  2.996846
H    -7.362808  3.179827  4.003935
H    -5.005134  5.262206  2.379841
H    -3.873061  3.996090  2.011483
N    -3.431679  1.796752  -0.821734
C    -3.775879  0.740562  -1.772507
H    -3.613986  2.756990  -1.118552
H    -4.530296  1.135679  -2.460382
H    -4.198716  -0.134275  -1.265301
H    -2.903455  0.438533  -2.372100
Cd    3.051582  -0.863696  2.076876
