37
Energy: -175313.988165 eV PBE+vdW (tier 2 basis)
C    0.195567  0.738272  1.074686
C    -0.042719  -0.257958  2.156251
O    0.926064  -0.935478  2.683916
H    0.792414  0.275255  0.277369
H    0.774077  1.582188  1.482630
H    -0.718649  1.144397  0.634441
N    -1.246096  -0.548246  2.636347
C    -2.587752  -0.105500  2.238158
C    -3.326177  0.080406  3.607580
O    -3.215899  -0.813722  4.442991
H    -1.267879  -1.217619  3.417608
H    -2.518039  0.842907  1.691032
C    -3.312342  -1.193657  1.397267
C    -4.782799  -0.857831  1.082313
C    -5.629865  -2.026646  0.546020
N    -5.468880  -2.274903  -0.890274
C    -6.393586  -2.871114  -1.677898
N    -7.459096  -3.470086  -1.142834
N    -6.234250  -2.842695  -3.007219
H    -3.263109  -2.134497  1.966679
H    -2.724118  -1.341431  0.478327
H    -4.860141  0.000004  0.396850
H    -5.287007  -0.551012  2.010617
H    -6.688432  -1.784268  0.714790
H    -5.404352  -2.942534  1.119532
H    -4.569086  -2.086441  -1.320253
H    -8.235945  -3.769891  -1.724118
H    -7.483107  -3.761170  -0.172615
H    -6.800064  -3.424533  -3.617603
H    -5.622014  -2.172098  -3.458194
N    -4.055662  1.204493  3.783884
C    -4.761358  1.507141  5.022636
H    -4.030655  1.924831  3.065236
H    -5.706294  2.010733  4.783552
H    -4.163416  2.187480  5.651191
H    -4.935834  0.579591  5.576316
Cd    3.016181  -0.583351  2.955996
