37
Energy: -175315.210166 eV PBE+vdW (tier 2 basis)
C    -4.361896  2.253201  4.906540
C    -3.471178  1.496497  3.982015
O    -3.420987  1.893494  2.765474
H    -4.343325  1.872384  5.933548
H    -5.390210  2.237164  4.518741
H    -4.046327  3.308161  4.908082
N    -2.760758  0.462939  4.468815
C    -1.608583  -0.238767  3.859373
C    -2.096400  -1.413966  2.975022
O    -2.415349  -1.216026  1.743555
H    -2.940965  0.245796  5.448095
H    -1.121591  0.469495  3.168243
C    -0.588076  -0.576236  4.970735
C    0.790098  -1.060143  4.479590
C    1.782961  -1.185407  5.651941
N    3.108009  -1.593022  5.180338
C    4.058054  -2.191953  5.934880
N    3.891969  -2.338057  7.253909
N    5.156136  -2.669142  5.342147
H    -1.024629  -1.300852  5.680667
H    -0.455669  0.351964  5.547810
H    1.186206  -0.335765  3.749578
H    0.715955  -2.028359  3.962666
H    1.427489  -1.945917  6.362657
H    1.841990  -0.222679  6.187873
H    3.422619  -1.218877  4.289746
H    4.526201  -2.920217  7.792541
H    3.285417  -1.726060  7.786451
H    5.208313  -2.805104  4.338895
H    5.976049  -2.929750  5.880896
N    -2.192728  -2.624096  3.480039
C    -2.693449  -3.814720  2.776990
H    -1.880907  -2.757582  4.440151
H    -3.266417  -3.509595  1.898619
H    -3.328305  -4.383560  3.465026
H    -1.848925  -4.441775  2.462853
Cd    -2.981794  0.714527  1.073501
