37
Energy: -175313.955126 eV PBE+vdW (tier 2 basis)
C    -0.285240  0.633833  -0.401600
C    -0.050637  0.773724  1.061956
O    1.139390  0.875498  1.552725
H    -0.006333  1.575547  -0.900745
H    -1.319874  0.409521  -0.672254
H    0.359943  -0.160873  -0.799022
N    -1.023904  0.772545  1.973881
C    -2.467168  0.525983  1.856749
C    -3.128149  1.775069  2.557626
O    -2.943948  1.922422  3.760922
H    -0.702487  0.925336  2.936642
H    -2.742571  0.495479  0.795761
C    -2.887443  -0.769105  2.585775
C    -4.413128  -0.985951  2.583342
C    -4.935802  -2.048163  3.560981
N    -4.686851  -3.426580  3.120689
C    -4.913205  -4.521571  3.887169
N    -4.655149  -5.734084  3.382593
N    -5.360124  -4.397588  5.137721
H    -2.527422  -0.703557  3.623478
H    -2.364683  -1.611807  2.109978
H    -4.778738  -1.201567  1.566326
H    -4.914874  -0.055475  2.887080
H    -6.021517  -1.889981  3.679635
H    -4.467440  -1.909108  4.547217
H    -4.663754  -3.590519  2.117484
H    -4.947948  -6.579877  3.861957
H    -4.145366  -5.857506  2.515249
H    -5.415494  -5.201299  5.755673
H    -5.783438  -3.541440  5.475190
N    -3.854131  2.603866  1.778931
C    -4.611212  3.726688  2.324722
H    -4.012623  2.352823  0.806086
H    -5.638109  3.427852  2.586583
H    -4.665621  4.514455  1.564125
H    -4.110861  4.085946  3.230848
Cd    2.997910  1.673014  0.815939
