37
Energy: -175314.226891 eV PBE+vdW (tier 2 basis)
C    -2.813646  0.397839  -0.135497
C    -1.829892  0.407879  0.989778
O    -0.613671  0.152934  0.676146
H    -2.563288  1.208817  -0.835802
H    -3.854147  0.504554  0.190037
H    -2.701549  -0.541216  -0.696089
N    -2.293596  0.677555  2.220784
C    -1.772017  0.618420  3.621005
C    -0.620874  1.583089  3.952447
O    0.602746  1.412909  3.570899
H    -3.292869  0.873554  2.208020
H    -2.625964  1.014977  4.181852
C    -1.597251  -0.817086  4.198420
C    -0.498722  -1.751557  3.668973
C    -0.652551  -3.219133  4.122432
N    -0.425823  -3.415167  5.559236
C    -0.842663  -4.503369  6.256936
N    -0.634023  -4.547867  7.575563
N    -1.486500  -5.502867  5.648273
H    -2.576459  -1.299777  4.055152
H    -1.490538  -0.691578  5.287153
H    0.501674  -1.388056  3.957697
H    -0.529884  -1.795489  2.569480
H    0.046582  -3.835486  3.534269
H    -1.672867  -3.557934  3.891365
H    0.362295  -2.921488  5.969831
H    -0.752417  -5.408800  8.100704
H    -0.362086  -3.727145  8.104404
H    -1.396966  -5.673006  4.653656
H    -1.930295  -6.239002  6.189718
N    -0.849663  2.592900  4.770410
C    -2.089094  3.004099  5.452063
H    -0.016810  3.151157  4.979191
H    -1.896245  3.968155  5.931978
H    -2.371146  2.282914  6.229558
H    -2.906176  3.139405  4.733830
Cd    1.136676  0.750269  1.654712
