37
Energy: -175314.632597 eV PBE+vdW (tier 2 basis)
C    -1.050651  -1.778655  -0.607035
C    -0.697124  -1.357485  0.778194
O    0.529486  -1.078422  1.007889
H    -0.467553  -2.671347  -0.875165
H    -0.745401  -0.985089  -1.305734
H    -2.119477  -1.982017  -0.736491
N    -1.674611  -1.279867  1.700985
C    -1.591787  -0.687069  3.046098
C    -0.947282  -1.672298  4.060455
O    0.291709  -1.497703  4.383511
H    -2.602953  -1.538006  1.371064
H    -0.864691  0.140236  2.990417
C    -2.944710  -0.044747  3.441799
C    -2.913883  0.664413  4.809347
C    -4.269129  1.206370  5.307330
N    -4.679073  2.467508  4.682000
C    -5.414561  3.429078  5.289790
N    -5.987216  3.207948  6.476341
N    -5.544826  4.620617  4.697858
H    -3.743651  -0.799299  3.426764
H    -3.176533  0.668008  2.635113
H    -2.177952  1.482666  4.806314
H    -2.578219  -0.043772  5.582550
H    -4.165550  1.399580  6.382929
H    -5.052926  0.439886  5.182546
H    -4.580723  2.565966  3.676922
H    -6.380295  3.975646  7.012576
H    -6.201348  2.274109  6.805334
H    -6.247270  5.286659  5.003748
H    -4.914098  4.927121  3.966162
N    -1.579535  -2.677898  4.630310
C    -2.968972  -3.135064  4.509446
H    -0.989240  -3.219539  5.268716
H    -2.989071  -4.198666  4.768624
H    -3.333884  -3.027789  3.484290
H    -3.621413  -2.597861  5.209591
Cd    1.620416  -0.954217  2.818412
