37
Energy: -175314.162240 eV PBE+vdW (tier 2 basis)
C    -0.479009  0.992035  -0.673362
C    -0.327421  0.694160  0.768410
O    0.806742  0.899785  1.332753
H    0.261754  0.369292  -1.207573
H    -0.200607  2.032177  -0.893097
H    -1.472204  0.750865  -1.063372
N    -1.332462  0.160814  1.516440
C    -2.714946  0.636046  1.619709
C    -2.697498  1.861499  2.583764
O    -1.746900  2.067245  3.427619
H    -1.010021  -0.354722  2.339189
H    -3.038743  0.981786  0.627015
C    -3.614863  -0.539439  2.091565
C    -5.138337  -0.338229  1.996934
C    -5.876323  -1.665446  2.268757
N    -7.328834  -1.495072  2.201127
C    -8.219002  -2.460222  1.875245
N    -9.493979  -2.123703  1.659275
N    -7.831055  -3.732823  1.739346
H    -3.335984  -0.810149  3.122951
H    -3.326439  -1.388690  1.453735
H    -5.418067  0.021432  0.994422
H    -5.475401  0.411682  2.730447
H    -5.578744  -2.062947  3.253677
H    -5.588283  -2.402334  1.505710
H    -7.722436  -0.654957  2.614626
H    -10.227134  -2.825173  1.630177
H    -9.774153  -1.163866  1.491901
H    -8.457246  -4.422674  1.335498
H    -7.007506  -4.092561  2.206739
N    -3.712508  2.700009  2.556292
C    -3.843438  3.895324  3.406300
H    -4.469396  2.508335  1.902970
H    -4.701510  4.473360  3.053726
H    -2.936980  4.506875  3.333307
H    -3.998225  3.603103  4.452258
Cd    0.371079  1.743396  3.261625
