37
Energy: -175315.115330 eV PBE+vdW (tier 2 basis)
C    -0.220777  -2.228853  0.156055
C    -0.220926  -1.112748  1.143664
O    0.682382  -0.215775  1.009556
H    0.756647  -2.731021  0.170733
H    -0.336512  -1.801377  -0.852206
H    -1.019160  -2.958921  0.328989
N    -1.168519  -1.093527  2.098939
C    -1.556051  0.022975  2.987319
C    -0.694942  0.019374  4.275385
O    0.434632  0.634509  4.307963
H    -1.793831  -1.897890  2.097548
H    -1.294650  0.959192  2.465856
C    -3.093249  0.028866  3.168606
C    -3.634037  1.285668  3.882187
C    -5.110011  1.625519  3.609959
N    -6.059015  0.715167  4.265976
C    -7.378571  0.645621  3.949898
N    -8.154723  -0.232639  4.590993
N    -7.892963  1.411702  2.984422
H    -3.429436  -0.896446  3.666518
H    -3.511344  -0.017825  2.151420
H    -3.070847  2.166502  3.537645
H    -3.458789  1.237072  4.968369
H    -5.298463  1.589461  2.527164
H    -5.279359  2.661469  3.946233
H    -5.840423  0.450306  5.223066
H    -7.767154  -0.972869  5.164324
H    -9.166828  -0.192865  4.522232
H    -8.839204  1.257600  2.648844
H    -7.450459  2.274923  2.692130
N    -1.111068  -0.617658  5.347967
C    -0.369130  -0.741967  6.612382
H    -2.031634  -1.049804  5.308965
H    -0.568652  -1.731711  7.035820
H    -0.702434  0.030351  7.317968
H    0.700538  -0.621864  6.424164
Cd    1.494964  1.024484  2.511947
