37
Energy: -175313.997302 eV PBE+vdW (tier 2 basis)
C    -0.130653  -1.558599  -0.278046
C    0.000931  -0.780989  0.985481
O    0.984054  -0.972313  1.806310
H    0.726574  -1.334116  -0.932173
H    -1.043463  -1.344434  -0.839785
H    -0.108727  -2.633021  -0.047779
N    -0.880806  0.131710  1.378426
C    -2.194450  0.487722  0.823670
C    -2.369141  1.987357  1.213720
O    -2.136281  2.313587  2.377118
H    -0.677282  0.606738  2.267858
H    -2.176300  0.368307  -0.267363
C    -3.307354  -0.389756  1.454804
C    -4.767801  -0.079631  1.057641
C    -5.508658  0.868657  2.014416
N    -6.944759  0.854842  1.722460
C    -7.883292  1.614855  2.330296
N    -9.143228  1.574716  1.882919
N    -7.553888  2.413475  3.348870
H    -3.192789  -0.350286  2.548198
H    -3.082428  -1.424022  1.157957
H    -5.300785  -1.042316  1.057924
H    -4.829084  0.300936  0.026470
H    -5.141133  1.903770  1.928671
H    -5.334986  0.537636  3.053706
H    -7.286723  0.120930  1.107657
H    -9.388206  1.131528  1.003827
H    -9.903406  2.008659  2.397964
H    -6.691388  2.290702  3.865090
H    -8.232709  3.052140  3.751483
N    -2.787567  2.832634  0.248420
C    -2.888457  4.275586  0.451345
H    -2.849874  2.488110  -0.706936
H    -1.959255  4.778602  0.142425
H    -3.055178  4.478586  1.513892
H    -3.710554  4.665974  -0.159448
Cd    2.947970  -1.774879  1.580929
