37
Energy: -175314.463750 eV PBE+vdW (tier 2 basis)
C    -1.239122  -0.250200  -0.251835
C    -0.715416  -0.386960  1.137311
O    0.545708  -0.259325  1.300178
H    -0.782899  -1.023065  -0.887309
H    -0.914283  0.718527  -0.659264
H    -2.330605  -0.322787  -0.311403
N    -1.585320  -0.622358  2.137533
C    -1.310807  -0.603906  3.582901
C    -0.660267  -1.930832  4.065196
O    0.620042  -1.958357  4.243158
H    -2.558186  -0.721837  1.855258
H    -0.515272  0.142492  3.744967
C    -2.523654  -0.108487  4.408349
C    -2.746454  1.414916  4.301881
C    -3.669984  2.016414  5.383463
N    -5.111694  1.797601  5.203054
C    -6.037396  2.771418  5.023447
N    -5.707182  3.939947  4.465590
N    -7.302199  2.547708  5.391134
H    -2.320232  -0.371874  5.458112
H    -3.430885  -0.658921  4.120583
H    -3.118065  1.687220  3.302733
H    -1.776701  1.922935  4.423264
H    -3.497220  3.098468  5.432848
H    -3.391152  1.629381  6.375245
H    -5.487048  0.916055  5.538619
H    -6.341796  4.731543  4.498118
H    -4.846560  4.068234  3.949703
H    -8.055734  3.156170  5.086032
H    -7.546247  1.830317  6.065364
N    -1.322743  -3.035767  4.336644
C    -2.757690  -3.336185  4.292031
H    -0.721756  -3.801450  4.656457
H    -3.237702  -3.083767  5.245978
H    -2.863995  -4.413141  4.125019
H    -3.245299  -2.812534  3.465184
Cd    1.829812  -0.901593  2.862460
