37
Energy: -175313.582566 eV PBE+vdW (tier 2 basis)
C    -0.001007  -1.227564  -0.586794
C    -0.347236  -1.568681  0.823223
O    -0.502709  -2.713952  1.243942
H    0.315370  -0.187253  -0.722970
H    -0.876123  -1.418410  -1.227049
H    0.787145  -1.909628  -0.930844
N    -0.525272  -0.504670  1.727911
C    -0.784940  -0.725474  3.117102
C    -2.320754  -1.148456  3.374740
O    -3.055199  -0.305099  3.982845
H    -0.615436  0.440579  1.355823
H    -0.271415  -1.669732  3.380395
C    -0.320219  0.419134  4.024241
C    1.195569  0.419804  4.333452
C    2.092996  1.209969  3.371666
N    3.469330  1.207069  3.874143
C    4.556072  1.713397  3.248783
N    5.769596  1.457843  3.747428
N    4.422391  2.439723  2.134730
H    -0.849880  0.311632  4.979314
H    -0.645952  1.390157  3.620034
H    1.563072  -0.615613  4.413338
H    1.306196  0.860137  5.336467
H    1.720498  2.246984  3.293980
H    2.086466  0.772187  2.358405
H    3.615796  0.863666  4.819925
H    6.591472  1.961558  3.426670
H    5.923858  0.739496  4.447564
H    3.551057  2.901960  1.905276
H    5.239088  2.736493  1.609077
N    -2.638439  -2.346116  2.948815
C    -3.946276  -2.997441  3.039088
H    -1.880143  -2.835556  2.436989
H    -3.863387  -3.983501  2.569062
H    -4.716503  -2.438198  2.486582
H    -4.236618  -3.162582  4.087105
Cd    -5.146549  -0.283853  4.604866
