37
Energy: -175314.024248 eV PBE+vdW (tier 2 basis)
C    0.089159  -0.054077  -0.071215
C    0.255919  -0.342750  1.373792
O    1.455453  -0.442569  1.823583
H    -0.887125  0.369139  -0.314373
H    0.291177  -0.953945  -0.672776
H    0.878644  0.662982  -0.349051
N    -0.767467  -0.412610  2.273596
C    -1.987598  -1.249406  2.323373
C    -1.631587  -2.400119  3.302168
O    -0.459180  -2.945816  3.282034
H    -0.465064  -0.124525  3.207358
H    -2.776910  -0.627570  2.767898
C    -2.467798  -1.758626  0.943029
C    -3.823894  -2.492634  0.944331
C    -4.287529  -2.781285  -0.498080
N    -5.566606  -3.493950  -0.515435
C    -6.496823  -3.422803  -1.495809
N    -7.700436  -3.965196  -1.291186
N    -6.234348  -2.793643  -2.646360
H    -1.695063  -2.404511  0.499175
H    -2.559480  -0.870958  0.302676
H    -4.590869  -1.881661  1.442026
H    -3.745338  -3.443101  1.495248
H    -3.516504  -3.360376  -1.033690
H    -4.427237  -1.829781  -1.030443
H    -5.690583  -4.248948  0.152772
H    -8.342230  -4.130664  -2.060183
H    -8.027842  -4.210620  -0.363609
H    -6.979367  -2.595598  -3.307480
H    -5.288234  -2.685319  -2.991066
N    -2.508392  -2.875883  4.164601
C    -3.899461  -2.499051  4.433270
H    -2.142087  -3.638667  4.742896
H    -4.024717  -2.409774  5.519174
H    -4.576644  -3.281199  4.068342
H    -4.152568  -1.544931  3.965758
Cd    1.497511  -2.074140  3.216847
