37
Energy: -175314.150981 eV PBE+vdW (tier 2 basis)
C    -0.644006  -0.571912  3.071127
C    -0.421838  0.404890  1.980415
O    0.562655  1.223828  2.070082
H    -0.706664  0.000727  4.013137
H    0.228623  -1.230846  3.189996
H    -1.563716  -1.151747  2.951775
N    -1.248468  0.495444  0.903646
C    -1.678541  -0.612795  0.047651
C    -0.566009  -0.811602  -1.035748
O    0.398558  0.025453  -1.205418
H    -1.201741  1.395318  0.420034
H    -1.696010  -1.523208  0.665888
C    -3.088493  -0.380730  -0.551936
C    -4.192274  -0.347098  0.525133
C    -5.634644  -0.557296  0.024480
N    -6.250113  0.628095  -0.581171
C    -7.577845  0.893619  -0.571074
N    -8.007241  2.091088  -0.983832
N    -8.455460  -0.013962  -0.134823
H    -3.072107  0.539332  -1.158593
H    -3.294009  -1.200685  -1.256505
H    -4.140095  0.579583  1.114493
H    -4.010955  -1.170864  1.232875
H    -6.242511  -0.822649  0.899513
H    -5.669873  -1.411342  -0.673146
H    -5.697916  1.188851  -1.221377
H    -8.988377  2.258509  -1.182895
H    -7.386478  2.889343  -1.047761
H    -9.421308  0.242716  0.045181
H    -8.240547  -1.003512  -0.110231
N    -0.636651  -1.868063  -1.816685
C    0.328874  -2.221027  -2.869594
H    -1.440732  -2.485390  -1.712936
H    1.340532  -1.954555  -2.550219
H    0.087083  -1.685141  -3.796846
H    0.265145  -3.298844  -3.044737
Cd    1.482784  1.306115  0.129452
