37
Energy: -175313.731054 eV PBE+vdW (tier 2 basis)
C    0.009920  -1.303616  0.632198
C    -0.714599  -1.831947  1.819514
O    -0.300014  -2.857995  2.478970
H    0.521948  -2.123211  0.113860
H    0.759173  -0.569888  0.973929
H    -0.651677  -0.808423  -0.088941
N    -1.853328  -1.300411  2.296878
C    -2.807233  -0.329035  1.720762
C    -3.390720  -0.881832  0.374337
O    -2.754939  -0.676239  -0.663670
H    -2.178234  -1.770875  3.143518
H    -3.618343  -0.305398  2.460045
C    -2.246145  1.097489  1.549553
C    -3.362729  2.125120  1.282420
C    -2.801732  3.549648  1.114792
N    -3.885629  4.514652  0.920132
C    -3.797786  5.690641  0.257614
N    -4.919323  6.372154  -0.002411
N    -2.615776  6.159448  -0.150214
H    -1.522063  1.114833  0.724780
H    -1.709305  1.355870  2.473991
H    -4.076574  2.115817  2.122175
H    -3.920042  1.859867  0.371735
H    -2.144982  3.592580  0.234142
H    -2.205553  3.826853  2.001071
H    -4.741932  4.363238  1.447282
H    -5.835754  5.942727  0.066065
H    -4.891123  7.338394  -0.313933
H    -2.560973  6.959033  -0.773601
H    -1.747473  5.859476  0.276087
N    -4.552652  -1.561069  0.395801
C    -5.436794  -1.839008  1.525596
H    -4.862296  -1.869501  -0.527541
H    -6.264679  -2.454593  1.161000
H    -5.865639  -0.918431  1.947088
H    -4.921583  -2.402887  2.314558
Cd    1.664322  -3.712117  2.687556
