37
Energy: -175313.878815 eV PBE+vdW (tier 2 basis)
C    -0.859450  -0.760456  0.135523
C    -0.544257  0.070021  1.336678
O    0.660031  0.450710  1.623005
H    -0.535160  -0.233456  -0.774784
H    -1.926776  -0.984269  0.034038
H    -0.321530  -1.719180  0.201594
N    -1.520790  0.438437  2.150880
C    -1.377999  1.204766  3.402812
C    -2.438551  0.633898  4.353715
O    -3.583455  0.424508  3.901292
H    -2.470852  0.114808  1.952746
H    -0.364124  1.020523  3.784623
C    -1.534534  2.737551  3.191617
C    -2.822477  3.298119  2.543779
C    -3.975629  3.777094  3.451373
N    -5.023232  2.784695  3.659765
C    -6.308640  3.062165  3.985079
N    -7.189394  2.052577  4.007301
N    -6.696923  4.305241  4.268216
H    -0.685264  3.036281  2.561885
H    -1.353739  3.220024  4.164144
H    -3.220342  2.629127  1.766986
H    -2.506560  4.199300  1.999762
H    -4.440595  4.655585  2.978213
H    -3.576775  4.122019  4.424317
H    -4.723097  1.797931  3.659291
H    -8.139639  2.183139  4.342490
H    -6.967824  1.147824  3.606111
H    -7.679366  4.538898  4.379883
H    -6.035017  5.050265  4.450770
N    -2.083710  0.409207  5.626116
C    -2.975580  -0.111954  6.655285
H    -1.125709  0.617478  5.902342
H    -3.233882  0.680462  7.373971
H    -2.463366  -0.912516  7.204182
H    -3.883749  -0.497938  6.185533
Cd    2.461369  -0.041946  0.547803
