37
Energy: -175314.715906 eV PBE+vdW (tier 2 basis)
C    1.863772  0.667882  0.549757
C    0.865388  -0.373332  0.931842
O    0.971642  -1.510816  0.352458
H    1.853987  0.779208  -0.544879
H    2.871781  0.315959  0.814235
H    1.680157  1.642860  1.014143
N    -0.074418  -0.050412  1.838063
C    -1.339031  -0.711947  2.269808
C    -1.099611  -1.885032  3.249218
O    -0.705618  -3.051666  2.874568
H    0.052160  0.882431  2.224643
H    -1.838376  0.071476  2.856925
C    -2.291984  -1.090720  1.108484
C    -2.757376  0.107753  0.245877
C    -4.063521  0.808749  0.657251
N    -5.247755  0.053836  0.223996
C    -6.526239  0.389313  0.528410
N    -7.523696  -0.391024  0.104653
N    -6.787542  1.463087  1.280914
H    -3.154138  -1.613786  1.549392
H    -1.809195  -1.824685  0.445840
H    -2.851412  -0.223062  -0.798913
H    -1.971880  0.875875  0.214741
H    -4.060708  1.811372  0.198895
H    -4.119254  0.943467  1.748998
H    -5.138254  -0.511055  -0.614005
H    -8.490706  -0.084740  0.147787
H    -7.356194  -1.309958  -0.289111
H    -7.731510  1.648088  1.607131
H    -6.132999  2.232687  1.355847
N    -1.369070  -1.684757  4.523362
C    -1.224782  -2.674164  5.600604
H    -1.734690  -0.773443  4.794637
H    -2.208819  -3.092306  5.850945
H    -0.814846  -2.169015  6.482041
H    -0.557449  -3.476648  5.279114
Cd    0.419744  -3.385247  1.127628
