37
Energy: -175314.125974 eV PBE+vdW (tier 2 basis)
C    0.964074  0.711353  0.759472
C    0.301659  0.572165  2.076138
O    1.026109  0.447908  3.128229
H    1.649293  1.570845  0.752518
H    0.260534  0.754775  -0.076878
H    1.607263  -0.177311  0.627490
N    -1.051780  0.523190  2.213025
C    -2.028689  1.471629  1.667842
C    -1.957316  2.749516  2.561014
O    -1.551451  2.702970  3.783347
H    -1.364212  0.064575  3.072316
H    -1.720751  1.742554  0.647372
C    -3.428289  0.796158  1.638845
C    -4.541537  1.583784  0.928035
C    -5.906717  0.872265  0.872525
N    -5.942571  -0.231244  -0.096564
C    -6.928320  -1.162065  -0.151136
N    -6.850957  -2.139917  -1.058466
N    -7.946393  -1.132077  0.713305
H    -3.736433  0.579002  2.674820
H    -3.277672  -0.174397  1.143408
H    -4.232847  1.854743  -0.095744
H    -4.734166  2.530732  1.452979
H    -6.668367  1.627445  0.619848
H    -6.152493  0.465777  1.864529
H    -5.452222  -0.077485  -0.973928
H    -7.645142  -2.739740  -1.258032
H    -6.003160  -2.318282  -1.584134
H    -8.605310  -1.903063  0.765476
H    -8.210787  -0.284528  1.200954
N    -2.364694  3.892872  2.049135
C    -2.390818  5.195821  2.728001
H    -2.716013  3.878897  1.092068
H    -3.429689  5.474301  2.949000
H    -1.953994  5.947945  2.060878
H    -1.825498  5.138040  3.659887
Cd    0.118906  1.667148  4.650060
