37
Energy: -175313.898353 eV PBE+vdW (tier 2 basis)
C    -0.905276  -0.078648  -0.978487
C    -0.298831  -0.214239  0.375509
O    0.919959  0.129672  0.626146
H    -1.167718  0.978486  -1.141425
H    -1.808966  -0.680102  -1.116005
H    -0.182257  -0.382027  -1.747857
N    -0.985147  -0.677511  1.418323
C    -2.424470  -0.969402  1.497005
C    -3.243621  0.336296  1.264963
O    -2.721033  1.435548  1.423389
H    -0.466145  -0.670164  2.296927
H    -2.664467  -1.695766  0.705814
C    -2.768937  -1.628473  2.859848
C    -2.671192  -0.719103  4.097617
C    -2.782556  -1.450805  5.446669
N    -4.147643  -1.898714  5.748707
C    -4.466029  -2.793563  6.716623
N    -5.743691  -3.159172  6.868594
N    -3.519361  -3.329440  7.489794
H    -2.108810  -2.504244  2.968488
H    -3.784520  -2.039641  2.768760
H    -3.419756  0.087765  4.052220
H    -1.702645  -0.196724  4.127643
H    -2.430864  -0.765390  6.235823
H    -2.126166  -2.333915  5.450354
H    -4.903699  -1.283646  5.458212
H    -6.050410  -3.684655  7.681597
H    -6.448925  -2.948190  6.171649
H    -3.732948  -4.099385  8.116658
H    -2.613699  -2.891499  7.609129
N    -4.543816  0.174477  0.901869
C    -5.429453  1.295395  0.627285
H    -4.866716  -0.755196  0.637854
H    -6.457133  1.010912  0.883401
H    -5.411522  1.562367  -0.442946
H    -5.098945  2.166931  1.202529
Cd    2.531909  0.720632  -0.650783
