37
Energy: -175314.850623 eV PBE+vdW (tier 2 basis)
C    -0.798614  -2.155774  -0.407339
C    -0.555415  -1.503763  0.910486
O    0.625298  -1.064946  1.133816
H    -0.107539  -3.002182  -0.527388
H    -0.555163  -1.437873  -1.205327
H    -1.831370  -2.498854  -0.534564
N    -1.577266  -1.398853  1.780449
C    -1.625107  -0.601259  3.018413
C    -0.938480  -1.344350  4.195954
O    0.257738  -0.989855  4.533140
H    -2.459868  -1.793691  1.459749
H    -0.985942  0.283314  2.858727
C    -3.057561  -0.063275  3.246206
C    -3.214386  0.881999  4.452134
C    -4.660915  1.410092  4.554347
N    -4.868459  2.268576  5.725285
C    -5.509175  3.461339  5.755116
N    -6.088547  3.859271  6.890641
N    -5.557471  4.250416  4.676322
H    -3.769158  -0.897255  3.324181
H    -3.318722  0.476088  2.322267
H    -2.520207  1.731752  4.368734
H    -2.957420  0.358459  5.387176
H    -5.367620  0.566203  4.608861
H    -4.930402  1.973628  3.652798
H    -4.763697  1.821377  6.632009
H    -6.362590  4.826715  7.032832
H    -6.322753  3.208313  7.632437
H    -6.171888  5.057975  4.652162
H    -4.897498  4.160557  3.914997
N    -1.495860  -2.314500  4.891942
C    -2.820607  -2.937476  4.783790
H    -0.888174  -2.688209  5.626844
H    -3.125161  -3.042697  3.738798
H    -3.570800  -2.369020  5.347746
H    -2.749576  -3.939265  5.219753
Cd    1.595371  -0.548975  2.941504
