37
Energy: -175314.955614 eV PBE+vdW (tier 2 basis)
C    -1.423128  0.450730  0.622533
C    -0.832743  0.047569  1.931975
O    -0.209456  -1.072924  1.959826
H    -0.624436  0.523545  -0.129353
H    -1.980034  1.392989  0.664797
H    -2.096189  -0.350737  0.282004
N    -1.001105  0.864550  2.984803
C    -0.808512  0.689039  4.453749
C    0.671789  0.804175  4.889254
O    1.526025  -0.149923  4.750777
H    -1.483086  1.728482  2.743844
H    -1.311044  1.573594  4.868928
C    -1.544839  -0.541842  5.040407
C    -1.658673  -0.472744  6.576555
C    -2.380765  -1.653670  7.257276
N    -3.843338  -1.562537  7.213735
C    -4.680142  -2.015224  8.177780
N    -5.971710  -1.673849  8.131853
N    -4.226835  -2.776382  9.177851
H    -1.053560  -1.483538  4.746404
H    -2.535576  -0.562077  4.562535
H    -2.150529  0.464661  6.879486
H    -0.648823  -0.444555  7.013278
H    -2.089206  -1.646269  8.315432
H    -2.039353  -2.610989  6.828539
H    -4.288492  -1.291785  6.343167
H    -6.299545  -0.889103  7.580530
H    -6.663489  -2.152027  8.700561
H    -4.807392  -2.964846  9.989527
H    -3.375996  -3.320032  9.098197
N    1.046775  1.919163  5.482022
C    2.395396  2.233168  5.972080
H    0.337760  2.635924  5.632743
H    3.087898  1.440049  5.685339
H    2.369726  2.328634  7.065203
H    2.711602  3.190648  5.539994
Cd    1.400022  -1.572868  3.205373
