37
Energy: -175314.511705 eV PBE+vdW (tier 2 basis)
C    0.135880  0.781579  0.415777
C    0.082384  -0.558436  1.071889
O    1.055222  -1.353639  0.829407
H    0.279801  0.639602  -0.665353
H    1.022539  1.323253  0.777026
H    -0.759259  1.389548  0.586303
N    -0.975553  -0.838228  1.854467
C    -1.468168  -2.095435  2.480625
C    -0.645394  -2.517650  3.717734
O    0.480284  -3.142084  3.629408
H    -1.610466  -0.050131  1.957434
H    -2.457456  -1.815831  2.861109
C    -1.661720  -3.271942  1.490148
C    -2.776867  -3.083705  0.433942
C    -4.181413  -3.511677  0.910532
N    -5.211627  -3.347259  -0.118191
C    -5.915578  -4.327776  -0.729067
N    -7.091940  -4.033983  -1.287682
N    -5.451712  -5.582333  -0.777563
H    -1.854419  -4.176028  2.088685
H    -0.722450  -3.468633  0.952739
H    -2.509103  -3.680238  -0.449058
H    -2.803272  -2.040768  0.082308
H    -4.499628  -2.928639  1.788855
H    -4.179401  -4.562534  1.229505
H    -5.543101  -2.402661  -0.290265
H    -7.533574  -4.664021  -1.950526
H    -7.608273  -3.194766  -1.046307
H    -6.051152  -6.343484  -1.080973
H    -4.466154  -5.792578  -0.687860
N    -1.118671  -2.317700  4.931748
C    -2.385665  -1.717805  5.375596
H    -0.512983  -2.678258  5.675306
H    -2.247987  -1.381794  6.408494
H    -3.194453  -2.459826  5.358015
H    -2.646701  -0.844120  4.770164
Cd    1.827030  -2.897020  2.034631
