37
Energy: -175313.245815 eV PBE+vdW (tier 2 basis)
C    0.566588  0.433990  1.871704
C    -0.227060  -0.826281  1.828377
O    0.295722  -1.944468  1.461662
H    0.943993  0.653600  0.861994
H    1.435861  0.291574  2.531693
H    0.014916  1.309309  2.223216
N    -1.530041  -0.883020  2.132623
C    -2.471183  0.226296  2.391949
C    -3.441847  -0.192948  3.538804
O    -4.660537  -0.218395  3.324867
H    -1.934495  -1.817137  2.040518
H    -1.888452  1.067547  2.793240
C    -3.177879  0.744601  1.119894
C    -3.919386  -0.237648  0.186273
C    -5.417839  -0.504105  0.434043
N    -6.264894  0.659190  0.192205
C    -7.281690  1.100639  0.980499
N    -8.237511  1.854285  0.430597
N    -7.300301  0.800332  2.278753
H    -2.386365  1.226651  0.527037
H    -3.840120  1.564698  1.432401
H    -3.430163  -1.223039  0.164862
H    -3.808203  0.139869  -0.840702
H    -5.612891  -0.890010  1.437521
H    -5.734789  -1.296139  -0.269236
H    -6.209694  1.078799  -0.734827
H    -8.389644  1.879207  -0.573114
H    -8.922298  2.341014  1.002247
H    -8.120449  0.994019  2.845205
H    -6.468257  0.450230  2.752932
N    -2.937023  -0.485029  4.751669
C    -1.584446  -0.304094  5.270241
H    -3.653389  -0.738741  5.434716
H    -1.650028  0.000287  6.320119
H    -1.049178  0.482395  4.726324
H    -1.015953  -1.243353  5.217758
Cd    2.334054  -2.631153  1.223628
