37
Energy: -175314.214601 eV PBE+vdW (tier 2 basis)
C    0.481697  1.271059  0.270274
C    0.139879  0.898218  1.671467
O    1.091286  0.666156  2.503467
H    1.130053  0.506403  -0.178697
H    1.078400  2.197024  0.305140
H    -0.390750  1.438100  -0.370391
N    -1.153366  0.864397  2.029625
C    -1.808977  0.858350  3.352522
C    -1.275049  -0.174351  4.349981
O    -0.717199  -1.271103  3.958246
H    -1.790205  1.105053  1.272210
H    -1.624524  1.851470  3.796083
C    -3.352929  0.726589  3.167389
C    -3.862599  -0.606976  2.591727
C    -5.389420  -0.796549  2.650952
N    -6.124598  0.062265  1.711806
C    -7.458431  0.301707  1.784372
N    -8.017295  1.142766  0.909256
N    -8.204077  -0.261483  2.739192
H    -3.672559  1.579839  2.548789
H    -3.810399  0.903009  4.150923
H    -3.439903  -1.449241  3.159483
H    -3.517378  -0.755093  1.555648
H    -5.748280  -0.570665  3.665722
H    -5.604206  -1.858077  2.447197
H    -5.723251  0.168209  0.783872
H    -7.461369  1.761259  0.330111
H    -9.025177  1.204371  0.804671
H    -9.165182  0.031989  2.886536
H    -7.920006  -1.113712  3.207315
N    -1.455324  0.025562  5.644738
C    -2.074971  1.142670  6.366250
H    -1.133298  -0.750260  6.229737
H    -1.517700  1.299712  7.296467
H    -3.115377  0.901251  6.622573
H    -2.044826  2.063667  5.776277
Cd    1.344167  -1.214004  3.425668
