37
Energy: -175313.703969 eV PBE+vdW (tier 2 basis)
C    -1.268903  -0.053654  -0.234701
C    -0.304614  0.031746  0.893091
O    0.907987  0.430883  0.710494
H    -2.273778  -0.357673  0.057113
H    -0.896538  -0.775402  -0.974609
H    -1.326195  0.938771  -0.714688
N    -0.576336  -0.288674  2.169608
C    -1.615698  -1.139565  2.773642
C    -1.483994  -2.597130  2.209311
O    -1.583938  -2.744052  0.990312
H    0.218133  -0.104202  2.786108
H    -1.340100  -1.145797  3.835993
C    -3.074289  -0.626163  2.653222
C    -3.966205  -1.235357  3.753862
C    -5.395380  -0.675841  3.841434
N    -6.298648  -1.221098  2.822338
C    -7.553848  -0.762545  2.591274
N    -8.285919  -1.327791  1.624931
N    -8.045904  0.258968  3.294834
H    -3.482373  -0.851392  1.659343
H    -3.049368  0.467801  2.762921
H    -3.511362  -1.034592  4.735090
H    -4.010276  -2.333087  3.662549
H    -5.381975  0.420450  3.743557
H    -5.781330  -0.916289  4.846981
H    -6.115571  -2.171334  2.510203
H    -9.278412  -1.134773  1.531493
H    -7.883783  -1.971595  0.953147
H    -7.648800  0.539210  4.183840
H    -8.934797  0.682855  3.046831
N    -1.279573  -3.619370  3.062130
C    -0.979306  -3.589129  4.493468
H    -1.180850  -4.520802  2.590808
H    -0.983959  -4.621699  4.857358
H    -1.735786  -3.029161  5.055404
H    0.019072  -3.171740  4.692621
Cd    1.772647  1.673033  -0.815974
