37
Energy: -175313.731497 eV PBE+vdW (tier 2 basis)
C    -3.877524  1.190125  -0.133525
C    -3.008619  0.666751  0.959159
O    -1.876117  0.282371  0.895967
H    -4.946121  0.983817  0.009660
H    -3.536060  0.788174  -1.094146
H    -3.762834  2.286896  -0.175793
N    -3.670476  0.637937  2.333895
C    -2.698049  0.671495  3.469573
C    -3.319725  -0.013551  4.714255
O    -3.981740  -1.108037  4.590058
H    -4.377311  1.383714  2.405200
H    -1.887663  -0.006079  3.145821
C    -2.090168  2.083957  3.689138
C    -0.670630  2.059870  4.328162
C    0.523342  2.165963  3.353629
N    0.910224  3.554660  3.081465
C    2.175239  3.990513  2.874462
N    2.431474  5.301167  2.935552
N    3.163177  3.125804  2.627084
H    -2.781799  2.699429  4.283753
H    -2.036518  2.575480  2.707829
H    -0.524162  1.128721  4.895223
H    -0.589976  2.867312  5.070189
H    0.305874  1.631160  2.413302
H    1.388606  1.675468  3.817900
H    0.180100  4.253519  2.985371
H    1.803592  5.950573  3.396656
H    3.304365  5.683953  2.584940
H    4.133194  3.425977  2.651025
H    2.987241  2.199537  2.256637
N    -3.111861  0.473605  5.917147
C    -3.566039  -0.147081  7.172269
H    -2.555524  1.320726  6.001697
H    -4.442376  -0.771060  6.979042
H    -3.815585  0.650379  7.879496
H    -2.762336  -0.767164  7.591467
Cd    -4.785226  -1.413683  2.646599
