37
Energy: -175313.928691 eV PBE+vdW (tier 2 basis)
C    -0.723974  -1.388617  0.276283
C    -0.260884  -0.339237  1.226368
O    0.971230  -0.273420  1.622120
H    -0.413584  -2.376108  0.643731
H    -0.244763  -1.227320  -0.702243
H    -1.805630  -1.398491  0.119295
N    -1.060433  0.574541  1.760729
C    -2.513010  0.768681  1.676668
C    -2.650038  2.328352  1.653184
O    -1.937459  2.964547  2.429858
H    -0.608677  1.279315  2.361257
H    -2.893413  0.307986  0.758886
C    -3.226942  0.206067  2.940619
C    -4.730445  0.536120  3.017746
C    -5.383188  0.324101  4.396240
N    -5.760016  -1.065839  4.674107
C    -6.713666  -1.443135  5.556962
N    -7.125652  -2.717346  5.567343
N    -7.248735  -0.558277  6.399909
H    -2.713909  0.630282  3.817392
H    -3.049485  -0.880336  2.957783
H    -5.301900  -0.008871  2.251124
H    -4.875510  1.605206  2.803568
H    -6.304578  0.922271  4.431852
H    -4.711613  0.703018  5.186214
H    -5.211478  -1.812932  4.260628
H    -7.702737  -3.077576  6.321302
H    -6.967632  -3.337129  4.780658
H    -8.073954  -0.788845  6.945071
H    -6.794746  0.320625  6.618952
N    -3.529245  2.933730  0.821071
C    -4.334702  2.377807  -0.254960
H    -3.488146  3.954742  0.883848
H    -5.238545  2.990200  -0.363294
H    -4.632839  1.346728  -0.042871
H    -3.795088  2.413488  -1.215272
Cd    2.843486  -0.826456  0.761168
