37
Energy: -175313.330823 eV PBE+vdW (tier 2 basis)
C    1.571767  2.858341  -0.168099
C    1.111695  2.146599  1.080697
O    1.731191  2.185961  2.138391
H    2.030287  2.137866  -0.861609
H    2.319306  3.608543  0.103251
H    0.727398  3.339344  -0.681327
N    -0.059327  1.402967  0.941909
C    -0.649967  0.450752  1.858334
C    -2.012451  1.023461  2.452850
O    -2.991390  0.229786  2.233118
H    -0.399635  1.340325  -0.016551
H    -0.997366  -0.396832  1.253381
C    0.211832  -0.119858  3.016184
C    1.397675  -0.968264  2.520923
C    2.191379  -1.545009  3.723267
N    3.300453  -2.397906  3.312282
C    4.625784  -2.156880  3.459410
N    5.078822  -0.924832  3.705573
N    5.479955  -3.178205  3.352434
H    -0.458018  -0.753587  3.617623
H    0.562099  0.689304  3.666599
H    2.079435  -0.369686  1.902369
H    1.034252  -1.799421  1.898308
H    1.524112  -2.154708  4.350959
H    2.577410  -0.743108  4.365396
H    3.058044  -3.318783  2.954224
H    6.042229  -0.768829  3.985348
H    4.509512  -0.102151  3.553665
H    5.173890  -4.143667  3.421330
H    6.482152  -3.025602  3.287291
N    -2.107705  2.171797  3.084133
C    -1.087557  3.181355  3.401880
H    -3.051167  2.424257  3.386262
H    -1.270702  3.539767  4.420878
H    -1.174296  4.024860  2.705421
H    -0.081889  2.759247  3.349953
Cd    -5.161989  0.182252  2.600573
