37
Energy: -175314.290349 eV PBE+vdW (tier 2 basis)
C    -0.254262  -1.000827  0.292312
C    0.132847  0.048556  1.280017
O    1.388132  0.275825  1.412864
H    0.277019  -1.931036  0.544624
H    0.096184  -0.705482  -0.707337
H    -1.331280  -1.199079  0.263537
N    -0.843359  0.668722  1.962860
C    -0.860226  1.528023  3.181760
C    -0.417120  2.980958  2.914976
O    0.828913  3.324254  2.845956
H    -1.773405  0.366140  1.679529
H    -1.928575  1.577884  3.419609
C    -0.189182  0.881993  4.422325
C    -0.614644  1.582018  5.733771
C    -0.647098  0.708219  7.000048
N    0.679856  0.414374  7.559631
C    0.893894  -0.513451  8.528760
N    2.135523  -0.705594  8.984078
N    -0.110299  -1.258170  8.997599
H    0.905945  0.846082  4.327123
H    -0.525674  -0.165106  4.430619
H    -1.648408  1.945341  5.623794
H    -0.008599  2.483528  5.914522
H    -1.139751  -0.247826  6.770455
H    -1.264689  1.233702  7.746936
H    1.346368  1.182200  7.555321
H    2.944705  -0.312263  8.518451
H    2.313050  -1.252019  9.820972
H    0.069791  -2.043983  9.615406
H    -1.077886  -0.971523  8.910217
N    -1.300783  3.954704  2.826518
C    -2.764561  3.967830  2.939107
H    -0.874611  4.875782  2.678637
H    -3.160028  4.593769  2.129974
H    -3.058702  4.410727  3.899505
H    -3.190420  2.966460  2.843116
Cd    2.279688  2.091625  1.956295
