37
Energy: -175314.486900 eV PBE+vdW (tier 2 basis)
C    1.387588  -0.592751  0.658192
C    1.095041  -0.531415  2.119837
O    2.084604  -0.734086  2.911765
H    0.500376  -0.465620  0.028439
H    1.850766  -1.566158  0.435693
H    2.136959  0.171072  0.405028
N    -0.166085  -0.282356  2.507144
C    -0.892758  -0.428400  3.803327
C    -0.618630  0.720436  4.801333
O    0.457548  0.809387  5.505312
H    -0.790787  -0.104991  1.722701
H    -1.940833  -0.307876  3.496898
C    -0.796839  -1.848909  4.419477
C    -1.880345  -2.085180  5.497604
C    -2.413279  -3.521841  5.635965
N    -1.485268  -4.444695  6.304603
C    -1.662682  -5.791466  6.333980
N    -0.769100  -6.552311  6.972891
N    -2.691202  -6.360403  5.700682
H    0.209102  -2.055681  4.814406
H    -0.938766  -2.548638  3.582873
H    -2.770578  -1.487170  5.247359
H    -1.548722  -1.710681  6.478451
H    -2.635389  -3.925783  4.637384
H    -3.362028  -3.467283  6.195036
H    -0.974275  -4.068555  7.099061
H    -0.953135  -7.530769  7.170953
H    0.121853  -6.185408  7.285501
H    -2.747310  -7.369798  5.603030
H    -3.527142  -5.841767  5.459091
N    -1.574355  1.609011  4.980942
C    -1.529947  2.763309  5.888166
H    -2.439349  1.486235  4.455716
H    -2.226334  2.598142  6.720670
H    -1.845267  3.655120  5.333505
H    -0.517305  2.893281  6.274143
Cd    2.312235  0.097927  4.818649
