37
Energy: -175313.725516 eV PBE+vdW (tier 2 basis)
C    0.025609  0.201260  -0.043938
C    -0.055396  -0.704637  1.134320
O    0.950329  -1.441885  1.471198
H    0.277299  -0.392140  -0.933936
H    0.836603  0.928052  0.139129
H    -0.890015  0.748148  -0.266552
N    -1.119515  -0.850317  1.939765
C    -2.551106  -0.520705  1.762003
C    -3.105859  -1.263604  0.502879
O    -2.583485  -1.048137  -0.589510
H    -0.932234  -1.502561  2.703807
H    -3.020798  -0.950322  2.658257
C    -2.861979  0.997000  1.702294
C    -4.368395  1.337634  1.777068
C    -4.992905  1.473206  3.185835
N    -4.820100  2.785084  3.818183
C    -5.751384  3.765031  3.880862
N    -5.608570  4.741849  4.782792
N    -6.803366  3.766463  3.057389
H    -2.470559  1.407480  0.764388
H    -2.303500  1.486134  2.514194
H    -4.951083  0.585253  1.224442
H    -4.525035  2.278358  1.231341
H    -4.582917  0.728609  3.883775
H    -6.070565  1.269719  3.134432
H    -3.978786  2.942900  4.363485
H    -6.172565  5.585310  4.740877
H    -5.009387  4.638261  5.594743
H    -6.824538  3.220147  2.205846
H    -7.586534  4.393508  3.213195
N    -4.151114  -2.098426  0.683655
C    -4.750047  -2.863815  -0.404830
H    -4.443631  -2.319980  1.632636
H    -4.267075  -3.849308  -0.501316
H    -4.618558  -2.318275  -1.345245
H    -5.812220  -3.021248  -0.185789
Cd    3.019251  -1.271809  0.927571
