37
Energy: -175314.119210 eV PBE+vdW (tier 2 basis)
C    -0.337315  0.569660  -0.762656
C    -0.131473  0.717088  0.696630
O    1.064590  0.838030  1.146621
H    0.069075  1.435541  -1.305269
H    -1.379918  0.384329  -1.036526
H    0.270819  -0.291618  -1.091133
N    -1.161188  0.682572  1.584997
C    -2.381099  1.496453  1.525133
C    -2.011828  2.898013  2.092963
O    -0.968610  3.067284  2.839196
H    -0.868653  0.473553  2.542136
H    -2.657620  1.615610  0.467442
C    -3.550327  0.831982  2.294497
C    -4.047141  -0.457680  1.612467
C    -5.401327  -1.000610  2.098584
N    -5.333980  -1.662474  3.409260
C    -6.426432  -2.023387  4.127922
N    -6.261231  -2.608944  5.317941
N    -7.657077  -1.764292  3.677679
H    -4.373750  1.557585  2.352241
H    -3.240571  0.650271  3.335859
H    -3.285229  -1.250494  1.673349
H    -4.180620  -0.263248  0.537205
H    -5.766947  -1.706715  1.335066
H    -6.127977  -0.177792  2.169074
H    -4.499952  -2.213613  3.593583
H    -5.362110  -2.631421  5.784304
H    -7.035652  -3.054174  5.799772
H    -7.845913  -1.602096  2.695824
H    -8.467728  -1.904919  4.272823
N    -2.777102  3.945442  1.866767
C    -4.042116  4.050555  1.132496
H    -2.444460  4.810749  2.302756
H    -4.883091  4.108118  1.836246
H    -4.179615  3.204894  0.453346
H    -4.017734  4.975138  0.543905
Cd    1.054190  2.380761  2.646237
