37
Energy: -175314.616195 eV PBE+vdW (tier 2 basis)
C    -0.121865  1.023757  0.419401
C    -0.074767  0.672274  1.866899
O    0.980608  0.997121  2.511773
H    -1.058004  0.726942  -0.066399
H    0.728958  0.555750  -0.095941
H    0.010661  2.111412  0.316362
N    -1.135405  0.052474  2.418156
C    -1.387702  -0.187194  3.848597
C    -0.606050  -1.428454  4.360881
O    0.478088  -1.235570  5.037348
H    -1.902209  -0.145952  1.777923
H    -0.934061  0.652111  4.401748
C    -2.905678  -0.131499  4.151496
C    -3.240883  -0.293098  5.646755
C    -4.742629  -0.382345  5.985358
N    -5.437654  0.908390  5.981472
C    -6.493601  1.220609  6.770380
N    -6.910142  2.489500  6.828778
N    -7.103438  0.284373  7.502699
H    -3.440119  -0.889157  3.561483
H    -3.242857  0.847558  3.777056
H    -2.786021  0.517173  6.236439
H    -2.798669  -1.228487  6.023059
H    -4.821919  -0.787816  7.002401
H    -5.242603  -1.093263  5.305564
H    -5.258642  1.553688  5.219191
H    -7.810363  2.730047  7.231677
H    -6.323583  3.260405  6.530788
H    -7.769163  0.543252  8.224619
H    -7.059367  -0.699025  7.263638
N    -0.975269  -2.677566  4.163241
C    -2.143844  -3.239476  3.476070
H    -0.330979  -3.361129  4.571871
H    -3.004217  -3.305249  4.154276
H    -1.881321  -4.252892  3.155440
H    -2.399286  -2.656748  2.586699
Cd    1.764995  0.310081  4.354796
