37
Energy: -175315.081589 eV PBE+vdW (tier 2 basis)
C    -1.402430  2.158943  0.510908
C    -1.756683  0.887914  1.203946
O    -2.433209  0.030059  0.536968
H    -0.792374  2.830856  1.124353
H    -2.322597  2.671586  0.196199
H    -0.853220  1.912569  -0.410766
N    -1.338894  0.701550  2.469493
C    -1.307110  -0.552718  3.251579
C    -2.651591  -0.772843  3.990458
O    -3.621081  -1.387574  3.409344
H    -0.841163  1.491913  2.876398
H    -1.234256  -1.383707  2.529813
C    -0.018941  -0.594364  4.108700
C    0.236198  -1.956138  4.788151
C    1.697068  -2.246318  5.175190
N    2.168866  -1.471887  6.331710
C    3.477656  -1.352399  6.676188
N    4.433744  -1.931950  5.945812
N    3.805380  -0.610037  7.737549
H    -0.011392  0.231536  4.840126
H    0.806151  -0.376951  3.413260
H    -0.040348  -2.763321  4.092642
H    -0.414577  -2.095036  5.665672
H    2.352483  -2.016775  4.322573
H    1.777985  -3.326303  5.380053
H    1.518827  -1.382320  7.108425
H    5.413518  -1.724991  6.115781
H    4.242789  -2.723378  5.342947
H    3.141822  0.014125  8.181296
H    4.738386  -0.640640  8.136566
N    -2.808727  -0.331051  5.219126
C    -4.037660  -0.426661  6.021343
H    -2.005465  0.109926  5.662509
H    -4.875021  -0.704914  5.378119
H    -4.226990  0.545555  6.490470
H    -3.908589  -1.186445  6.803129
Cd    -3.730554  -1.453810  1.291965
