37
Energy: -175313.249687 eV PBE+vdW (tier 2 basis)
C    0.858944  -1.218149  2.243380
C    0.018231  -0.003491  2.437171
O    0.523326  1.121609  2.826198
H    1.193939  -1.581460  3.227823
H    1.751047  -0.953062  1.660001
H    0.344157  -2.040189  1.740611
N    -1.298917  0.028205  2.242743
C    -2.275566  -0.940707  1.670437
C    -2.080981  -2.398169  2.158349
O    -1.825607  -3.300841  1.347925
H    -1.705280  0.945168  2.448004
H    -3.228535  -0.620092  2.121830
C    -2.482814  -0.777827  0.147844
C    -1.317245  -0.967573  -0.843320
C    -1.103168  -2.366089  -1.456852
N    -2.212212  -2.807521  -2.296122
C    -2.832986  -4.015673  -2.252589
N    -3.515885  -4.423410  -3.325976
N    -2.773818  -4.761132  -1.148994
H    -2.864276  0.245537  0.017149
H    -3.330776  -1.425764  -0.120045
H    -0.355528  -0.665814  -0.403152
H    -1.470169  -0.256152  -1.667964
H    -0.204121  -2.318396  -2.097360
H    -0.905036  -3.125735  -0.697030
H    -2.450604  -2.213344  -3.088961
H    -3.374821  -4.007767  -4.241881
H    -4.125852  -5.235398  -3.289034
H    -3.097991  -5.723211  -1.154167
H    -2.465990  -4.369857  -0.259045
N    -2.255063  -2.669103  3.470402
C    -2.846792  -1.833692  4.513863
H    -2.179352  -3.666215  3.682923
H    -2.586323  -2.266724  5.486016
H    -3.945311  -1.819071  4.438150
H    -2.463379  -0.809520  4.477380
Cd    2.392642  1.754430  3.668354
