37
Energy: -175313.842333 eV PBE+vdW (tier 2 basis)
C    0.365396  0.755779  0.840468
C    -0.038056  0.318013  2.205654
O    0.821413  0.161806  3.153975
H    -0.280062  0.351410  0.053569
H    1.387313  0.416060  0.630808
H    0.332977  1.857124  0.795770
N    -1.303120  0.055370  2.577282
C    -2.539877  -0.178296  1.798158
C    -2.387125  -1.459330  0.909901
O    -1.606178  -1.430315  -0.042095
H    -1.370536  -0.190792  3.566402
H    -3.290782  -0.389558  2.572862
C    -2.983296  1.041736  0.959306
C    -4.360681  0.914462  0.267940
C    -5.557579  1.372281  1.119341
N    -6.785413  1.331309  0.320782
C    -7.861359  2.138847  0.455548
N    -8.780975  2.162465  -0.514979
N    -8.000842  2.915933  1.533565
H    -2.241080  1.219514  0.173318
H    -2.961600  1.923609  1.616430
H    -4.520444  -0.118062  -0.081990
H    -4.331938  1.537353  -0.636320
H    -5.401410  2.409988  1.448396
H    -5.673486  0.747047  2.022085
H    -6.860249  0.600249  -0.381549
H    -8.590681  1.801065  -1.443705
H    -9.690535  2.590735  -0.371088
H    -7.525084  2.711206  2.403742
H    -8.722268  3.629558  1.569425
N    -3.136934  -2.529082  1.234141
C    -3.050616  -3.800206  0.517050
H    -3.670669  -2.510002  2.099595
H    -4.018854  -4.308312  0.580318
H    -2.283316  -4.450718  0.963234
H    -2.779185  -3.606191  -0.526217
Cd    2.811828  0.945727  3.367228
