37
Energy: -175315.024523 eV PBE+vdW (tier 2 basis)
C    -2.199638  0.421168  0.061457
C    -1.842743  0.003157  1.449518
O    -1.571566  -1.236872  1.623585
H    -1.334399  0.253610  -0.597060
H    -2.518591  1.466436  -0.013222
H    -3.001488  -0.233020  -0.310355
N    -1.840070  0.940558  2.411788
C    -1.747917  0.871233  3.895685
C    -0.326873  0.566719  4.414029
O    0.168783  -0.625786  4.454261
H    -2.045388  1.872695  2.058878
H    -1.957422  1.902572  4.203632
C    -2.820192  -0.016168  4.577536
C    -4.239769  0.578850  4.490089
C    -5.255478  -0.205657  5.340766
N    -6.570324  0.439578  5.297874
C    -7.747977  -0.151961  5.600239
N    -8.888009  0.496221  5.345608
N    -7.779507  -1.385049  6.118378
H    -2.525865  -0.116038  5.634057
H    -2.817071  -1.034333  4.158935
H    -4.586030  0.607514  3.446543
H    -4.207370  1.620803  4.849362
H    -4.891529  -0.272846  6.380385
H    -5.364789  -1.228928  4.952173
H    -6.590780  1.452471  5.222905
H    -9.769823  0.190617  5.744886
H    -8.920365  1.305308  4.735419
H    -8.658915  -1.885158  6.205359
H    -6.994454  -1.766900  6.631780
N    0.408825  1.531121  4.929030
C    0.112096  2.958530  5.126318
H    1.313766  1.212364  5.288639
H    1.067396  3.480655  5.241040
H    -0.477853  3.110260  6.039568
H    -0.402091  3.382688  4.258021
Cd    -0.275580  -2.104407  3.034898
