37
Energy: -175315.208547 eV PBE+vdW (tier 2 basis)
C    -1.501256  0.016392  0.490580
C    -0.823922  0.115179  1.814942
O    0.031528  1.055885  1.964892
H    -1.960471  0.988596  0.257087
H    -2.266598  -0.766157  0.451503
H    -0.747176  -0.163415  -0.289355
N    -1.152801  -0.764691  2.777191
C    -0.822997  -0.731306  4.218059
C    0.538989  -1.425574  4.486296
O    1.644282  -0.780709  4.334399
H    -1.803626  -1.493704  2.489495
H    -0.672511  0.325850  4.494295
C    -2.000228  -1.273757  5.059140
C    -3.259739  -0.383024  5.062275
C    -4.383081  -1.009161  5.916172
N    -5.632590  -0.243207  5.867198
C    -6.368848  0.179441  6.921458
N    -7.681705  0.366556  6.764333
N    -5.802165  0.423502  8.108611
H    -1.636800  -1.385550  6.091983
H    -2.268955  -2.286126  4.708222
H    -3.630528  -0.238444  4.035667
H    -3.013642  0.616897  5.450253
H    -4.071680  -1.103386  6.964059
H    -4.594462  -2.032625  5.567138
H    -6.125883  -0.248344  4.978470
H    -8.222809  0.904713  7.434177
H    -8.197846  -0.059950  6.002190
H    -6.373386  0.574186  8.934039
H    -4.812448  0.610622  8.201585
N    0.580730  -2.678998  4.878919
C    1.801063  -3.456291  5.146750
H    -0.304672  -3.149671  5.056477
H    2.646843  -3.010414  4.618619
H    1.638610  -4.483483  4.803676
H    2.003862  -3.463230  6.225935
Cd    1.746919  0.996398  3.197267
