37
Energy: -175315.336392 eV PBE+vdW (tier 2 basis)
C    -1.284456  -0.046783  -0.268061
C    -1.153774  -0.698595  1.066342
O    -0.531175  -1.816301  1.112900
H    -1.764250  0.937000  -0.225340
H    -1.852137  -0.707219  -0.939639
H    -0.282013  0.054669  -0.710087
N    -1.674151  -0.080234  2.141108
C    -1.471252  -0.380919  3.574081
C    -2.500971  -1.431804  4.068037
O    -2.288951  -2.690012  3.889680
H    -2.191141  0.773563  1.937345
H    -0.486951  -0.869460  3.669738
C    -1.428372  0.921096  4.404376
C    -0.189732  1.804522  4.150947
C    -0.165824  3.018198  5.099529
N    1.032490  3.831871  4.882768
C    1.169228  5.132124  5.230078
N    2.245952  5.806964  4.817481
N    0.226851  5.749710  5.950527
H    -1.446097  0.629094  5.465335
H    -2.344725  1.509206  4.220576
H    -0.162638  2.159983  3.110412
H    0.718866  1.201688  4.311223
H    -0.212636  2.669435  6.145462
H    -1.044667  3.653261  4.914327
H    1.891759  3.345437  4.644321
H    2.841320  5.462672  4.072757
H    2.493210  6.704699  5.221614
H    0.251025  6.756945  6.076901
H    -0.405571  5.237494  6.553389
N    -3.599459  -1.050626  4.680511
C    -4.660010  -1.941756  5.177013
H    -3.716215  -0.057036  4.869931
H    -4.620815  -2.894838  4.644826
H    -5.626660  -1.454614  5.010623
H    -4.521932  -2.115174  6.252555
Cd    -0.891124  -3.395261  2.471413
