37
Energy: -175314.953034 eV PBE+vdW (tier 2 basis)
C    -2.828701  -3.791229  2.885256
C    -3.334456  -2.426348  2.564303
O    -4.476586  -2.345248  1.990498
H    -1.887169  -3.785246  3.445069
H    -2.702388  -4.359668  1.952106
H    -3.596051  -4.322989  3.467816
N    -2.585414  -1.362488  2.904970
C    -2.954884  0.070358  2.937013
C    -2.711830  0.727917  1.552785
O    -3.602592  0.650419  0.624578
H    -1.675377  -1.590163  3.303129
H    -4.044184  0.125399  3.102011
C    -2.245865  0.764004  4.124650
C    -2.703542  0.283207  5.526604
C    -3.733423  1.176644  6.251206
N    -3.181611  2.395681  6.855284
C    -2.612478  2.487492  8.081651
N    -2.133211  3.664244  8.491463
N    -2.492338  1.409523  8.864445
H    -2.402214  1.848491  4.027359
H    -1.159211  0.603713  4.030409
H    -1.819129  0.175719  6.168301
H    -3.134979  -0.726980  5.458494
H    -4.254868  0.582614  7.016340
H    -4.527505  1.507797  5.568666
H    -3.458512  3.278399  6.439746
H    -1.839236  3.811615  9.451888
H    -2.078261  4.468079  7.876183
H    -2.019924  1.472738  9.761109
H    -3.058699  0.583023  8.720201
N    -1.594588  1.378775  1.316315
C    -1.219823  2.021244  0.046984
H    -0.934339  1.478015  2.085641
H    -1.877475  1.672579  -0.751622
H    -0.178432  1.765401  -0.178888
H    -1.308815  3.110671  0.149001
Cd    -5.085889  -0.854400  0.625035
