37
Energy: -175313.974533 eV PBE+vdW (tier 2 basis)
C    -4.914472  -0.516091  2.241829
C    -3.660488  0.155786  2.713960
O    -2.664462  0.301083  1.993074
H    -5.447441  0.188034  1.583243
H    -5.586017  -0.820394  3.051318
H    -4.645215  -1.381952  1.625313
N    -3.652513  0.635698  4.013201
C    -2.490071  1.129535  4.724188
C    -2.000745  2.515989  4.165367
O    -1.941251  3.429164  5.060657
H    -4.502991  0.508009  4.557720
H    -2.828485  1.348962  5.745225
C    -1.275348  0.150945  4.815033
C    -1.594394  -1.115614  5.625067
C    -0.354688  -2.029489  5.746044
N    -0.675453  -3.237707  6.505681
C    -0.101723  -4.455117  6.353950
N    0.973636  -4.613018  5.578213
N    -0.641436  -5.505535  6.981324
H    -0.449932  0.702463  5.290139
H    -0.950596  -0.106169  3.797238
H    -2.407017  -1.682439  5.148194
H    -1.935787  -0.837342  6.635056
H    0.467998  -1.482330  6.235754
H    -0.013766  -2.334677  4.746511
H    -1.277815  -3.128809  7.318065
H    1.313990  -5.541543  5.346497
H    1.591120  -3.840389  5.358311
H    -1.579228  -5.477154  7.367592
H    -0.138081  -6.383279  7.071935
N    -1.689174  2.626270  2.896197
C    -1.231749  3.835321  2.222709
H    -1.872792  1.755387  2.339477
H    -1.084095  3.604153  1.161238
H    -0.259160  4.171883  2.615200
H    -1.990749  4.635246  2.264512
Cd    -1.460467  5.542668  4.979316
