37
Energy: -175315.312866 eV PBE+vdW (tier 2 basis)
C    -2.893691  2.603882  4.809111
C    -2.634993  1.492894  3.849276
O    -2.747569  1.759877  2.602088
H    -2.258954  3.460104  4.536327
H    -2.706039  2.329193  5.852734
H    -3.933675  2.943674  4.697038
N    -2.284759  0.288283  4.333595
C    -1.749060  -0.885020  3.610928
C    -2.902725  -1.784601  3.091498
O    -3.519913  -1.489322  1.999852
H    -2.295189  0.213945  5.349599
H    -1.242847  -0.508728  2.705809
C    -0.692453  -1.617818  4.467484
C    0.622569  -0.839008  4.675124
C    1.632874  -1.660516  5.498629
N    2.892098  -0.932651  5.669281
C    4.094969  -1.496551  5.923079
N    4.192002  -2.799408  6.209035
N    5.196001  -0.742778  5.855912
H    -0.465320  -2.566769  3.958719
H    -1.126772  -1.878108  5.448990
H    0.425044  0.115630  5.188018
H    1.068500  -0.596225  3.698882
H    1.856100  -2.601209  4.974333
H    1.196431  -1.914417  6.479867
H    2.841669  0.075050  5.785842
H    5.098764  -3.255366  6.239170
H    3.414807  -3.319998  6.597326
H    5.199486  0.160769  5.396163
H    6.078556  -1.061809  6.242818
N    -3.253799  -2.861624  3.757023
C    -4.330413  -3.795651  3.392739
H    -2.730353  -3.085294  4.601425
H    -4.717395  -3.545784  2.403333
H    -5.132698  -3.729076  4.138717
H    -3.926223  -4.814586  3.390464
Cd    -3.370030  0.413017  1.097774
