37
Energy: -175315.065363 eV PBE+vdW (tier 2 basis)
C    -1.709347  3.312705  3.527207
C    -1.985248  1.982526  2.914201
O    -2.637117  1.969877  1.813147
H    -2.656416  3.843089  3.697811
H    -1.141616  3.916733  2.802184
H    -1.142042  3.249418  4.462029
N    -1.522756  0.877269  3.527954
C    -1.366606  -0.483934  2.978434
C    -2.615413  -1.356267  3.256523
O    -3.727053  -1.110707  2.657283
H    -1.069391  1.046237  4.422981
H    -1.361036  -0.379098  1.879383
C    0.027886  -1.075169  3.320210
C    0.547283  -1.043071  4.774764
C    1.928201  -1.727853  4.855383
N    2.493476  -1.651740  6.203248
C    3.813217  -1.713967  6.502402
N    4.715759  -2.004519  5.560089
N    4.209131  -1.450113  7.750396
H    0.743671  -0.526383  2.690823
H    0.038415  -2.106105  2.933123
H    -0.143553  -1.537007  5.478738
H    0.662579  -0.007262  5.130875
H    2.621316  -1.220546  4.168846
H    1.839726  -2.777733  4.527968
H    1.859695  -1.771464  6.988065
H    5.708288  -1.892208  5.743887
H    4.471499  -2.525263  4.726186
H    3.605815  -0.981808  8.417205
H    5.143340  -1.687735  8.069115
N    -2.562664  -2.380926  4.078466
C    -3.683720  -3.290653  4.366066
H    -1.685958  -2.554773  4.561543
H    -3.273440  -4.246714  4.702997
H    -4.278670  -3.438962  3.460124
H    -4.319933  -2.866353  5.153611
Cd    -3.970318  0.438479  1.232732
