37
Energy: -175313.480345 eV PBE+vdW (tier 2 basis)
C    0.034492  -1.007663  0.136840
C    -0.263385  -0.012177  1.199968
O    0.561342  0.933241  1.502219
H    0.124102  -0.490310  -0.829627
H    -0.704978  -1.809138  0.066482
H    1.010598  -1.471368  0.348361
N    -1.402401  0.019585  1.904570
C    -2.696388  -0.685953  1.746027
C    -2.490643  -2.192331  2.150772
O    -2.188818  -3.001276  1.275902
H    -1.393318  0.739444  2.631215
H    -3.346313  -0.209523  2.490792
C    -3.371735  -0.562262  0.365980
C    -4.807851  -1.123734  0.405143
C    -5.527005  -1.237429  -0.946357
N    -6.049045  0.044337  -1.437797
C    -6.640668  0.211969  -2.645604
N    -7.096797  1.423611  -2.985042
N    -6.743105  -0.807363  -3.499799
H    -2.788876  -1.110692  -0.385415
H    -3.370106  0.500899  0.084406
H    -5.432322  -0.546215  1.106619
H    -4.783482  -2.148509  0.802341
H    -6.361117  -1.949048  -0.821346
H    -4.845764  -1.652363  -1.705195
H    -6.271615  0.746863  -0.737313
H    -7.670603  1.560961  -3.811473
H    -6.885755  2.250191  -2.437466
H    -6.622141  -1.768969  -3.205232
H    -7.086197  -0.666369  -4.444942
N    -2.648389  -2.549730  3.447005
C    -3.187725  -1.793480  4.570865
H    -2.552904  -3.558611  3.589588
H    -2.866690  -0.747366  4.548866
H    -2.808668  -2.247400  5.494702
H    -4.287111  -1.843913  4.603899
Cd    2.718497  1.078298  1.444068
