37
Energy: -175314.554001 eV PBE+vdW (tier 2 basis)
C    -1.745049  0.980134  0.791232
C    -1.103284  0.248679  1.922720
O    -0.593741  -0.894872  1.649522
H    -0.986932  1.193608  0.023475
H    -2.235484  1.911544  1.094164
H    -2.485352  0.317186  0.319283
N    -1.110099  0.825020  3.136887
C    -0.798753  0.318274  4.504377
C    0.725131  0.229458  4.772172
O    1.457247  -0.743858  4.359317
H    -1.524668  1.754794  3.132770
H    -1.172831  1.121560  5.154261
C    -1.570995  -0.969390  4.882013
C    -1.570206  -1.283881  6.398446
C    -2.695303  -0.653534  7.246227
N    -3.930273  -1.444794  7.231801
C    -4.787148  -1.584654  8.269939
N    -5.708237  -2.552168  8.230567
N    -4.708963  -0.780422  9.334849
H    -1.159569  -1.837590  4.343403
H    -2.593557  -0.853916  4.493643
H    -0.611346  -0.976411  6.842324
H    -1.603806  -2.372965  6.537369
H    -2.902040  0.383408  6.928394
H    -2.350168  -0.611466  8.287541
H    -4.219295  -1.877474  6.360534
H    -5.623940  -3.348915  7.609324
H    -6.494929  -2.556519  8.872422
H    -5.224103  -0.994429  10.183531
H    -4.285989  0.138344  9.284995
N    1.274813  1.180898  5.499815
C    2.695517  1.285551  5.859885
H    0.664922  1.912372  5.862088
H    2.819662  1.059841  6.927202
H    3.028123  2.313054  5.672136
H    3.281201  0.581533  5.265641
Cd    1.005445  -1.847002  2.619728
