37
Energy: -175313.265565 eV PBE+vdW (tier 2 basis)
C    -0.479258  -0.362153  -0.976711
C    -0.203692  0.157966  0.392137
O    0.817531  0.087278  1.014897
H    0.392304  -0.171979  -1.616726
H    -1.386082  0.036667  -1.444543
H    -0.580740  -1.459088  -0.910054
N    -1.414503  0.803827  1.067003
C    -1.333492  1.007661  2.554322
C    -2.703527  1.538634  3.025196
O    -3.262665  2.496930  2.370756
H    -2.211475  0.187015  0.844371
H    -1.142032  0.024614  3.006183
C    -0.230122  2.031303  2.951292
C    0.394904  1.815082  4.342987
C    1.398594  0.646598  4.471930
N    2.699243  0.858604  3.834574
C    3.861659  1.131743  4.476628
N    3.860610  1.656209  5.704978
N    5.019850  0.875250  3.861889
H    -0.673992  3.043529  2.934666
H    0.554861  2.025172  2.188537
H    -0.391580  1.664843  5.097904
H    0.893010  2.752503  4.627743
H    0.984990  -0.281084  4.048658
H    1.568443  0.439590  5.536775
H    2.786472  0.585459  2.860209
H    3.047388  2.110509  6.100740
H    4.715106  1.704883  6.251762
H    5.081578  0.230548  3.081201
H    5.898912  1.236918  4.220058
N    -3.302698  1.093838  4.108669
C    -2.937697  0.027060  5.048126
H    -4.179427  1.581205  4.323215
H    -3.765677  -0.690981  5.100428
H    -2.783643  0.461124  6.043882
H    -2.031912  -0.496068  4.732820
Cd    -2.392943  2.856258  0.443623
