37
Energy: -175313.870923 eV PBE+vdW (tier 2 basis)
C    -1.124595  1.157719  1.779846
C    -0.842548  0.140275  2.831539
O    -0.510095  0.501222  4.023364
H    -1.284861  0.754889  0.779691
H    -0.288231  1.865190  1.721747
H    -2.039113  1.700856  2.080078
N    -0.979187  -1.192588  2.688274
C    -0.780991  -2.020709  1.488148
C    0.598209  -1.642674  0.832659
O    1.025257  -0.496948  0.939616
H    -0.805884  -1.683804  3.567185
H    -0.700162  -3.043623  1.883245
C    -1.918722  -1.972667  0.436394
C    -3.269637  -2.591031  0.871222
C    -3.421202  -4.075464  0.493516
N    -4.765514  -4.557408  0.819090
C    -5.469164  -5.491467  0.140290
N    -6.775126  -5.630869  0.390883
N    -4.878212  -6.256653  -0.782469
H    -1.548373  -2.475976  -0.468966
H    -2.089704  -0.935517  0.126554
H    -4.074169  -2.030764  0.375444
H    -3.420618  -2.457352  1.954103
H    -2.663633  -4.696226  1.003192
H    -3.277488  -4.189864  -0.590578
H    -5.192580  -4.211093  1.673753
H    -7.290916  -6.444116  0.068668
H    -7.309175  -4.912929  0.868515
H    -5.430557  -6.840988  -1.402614
H    -3.879291  -6.422320  -0.777945
N    1.239530  -2.618944  0.152603
C    2.525087  -2.415931  -0.501680
H    0.890786  -3.572984  0.214404
H    2.627744  -1.362188  -0.780169
H    2.581557  -3.065905  -1.383117
H    3.354896  -2.682150  0.174195
Cd    -0.626343  2.432420  4.961171
