37
Energy: -175313.835473 eV PBE+vdW (tier 2 basis)
C    -1.511135  2.274234  2.163822
C    -1.167934  0.897568  2.646770
O    -0.035779  0.584203  3.037255
H    -1.667989  2.913087  3.048276
H    -2.410296  2.312032  1.539569
H    -0.652512  2.686913  1.621394
N    -2.188454  -0.040978  2.656688
C    -2.021891  -1.463054  2.878935
C    -1.674950  -1.774859  4.381636
O    -2.509326  -2.566676  4.942432
H    -3.103564  0.269872  2.336494
H    -3.009873  -1.915231  2.723107
C    -0.999697  -2.181767  1.932811
C    -1.429056  -2.104497  0.461006
C    -0.328794  -2.507876  -0.558833
N    -0.092212  -3.939263  -0.741620
C    -0.489438  -4.681739  -1.804148
N    -1.484439  -4.273765  -2.594433
N    0.124891  -5.844260  -2.047516
H    -0.921141  -3.226898  2.266824
H    -0.014142  -1.715421  2.072028
H    -1.687379  -1.065092  0.210543
H    -2.335455  -2.704086  0.287548
H    0.629450  -2.051294  -0.274407
H    -0.589034  -2.080868  -1.536644
H    0.594698  -4.378672  -0.136047
H    -1.670056  -4.731234  -3.481736
H    -2.108694  -3.521123  -2.334407
H    1.037963  -6.059109  -1.660304
H    -0.240528  -6.501420  -2.730554
N    -0.607140  -1.235279  4.920408
C    -0.158066  -1.402864  6.296612
H    -0.112862  -0.557349  4.290152
H    0.755912  -0.813355  6.435750
H    0.100604  -2.451489  6.511489
H    -0.895145  -1.006090  7.016440
Cd    -2.736481  -3.250673  6.991646
