37
Energy: -175313.888609 eV PBE+vdW (tier 2 basis)
C    0.412913  -1.493994  0.731565
C    0.074248  -0.535952  1.826866
O    0.813673  -0.396250  2.881805
H    1.390432  -1.227844  0.297802
H    -0.320271  -1.496953  -0.082371
H    0.470299  -2.514573  1.139163
N    -1.029011  0.190980  1.735998
C    -1.548966  1.157892  2.724835
C    -3.045634  0.801399  2.895720
O    -3.768007  0.885832  1.885037
H    -1.629092  0.038067  0.922378
H    -0.990389  1.007662  3.658631
C    -1.374299  2.601847  2.199921
C    -1.963032  3.712153  3.092541
C    -3.443265  4.098048  2.875394
N    -3.699039  4.786176  1.610364
C    -4.617750  4.454043  0.667018
N    -5.037369  5.403164  -0.175695
N    -5.075175  3.204259  0.574438
H    -1.785548  2.660768  1.181134
H    -0.293278  2.772713  2.100541
H    -1.353393  4.616683  2.957030
H    -1.853588  3.459179  4.158093
H    -3.723584  4.794925  3.682948
H    -4.125992  3.245904  2.949364
H    -3.277618  5.708483  1.509207
H    -5.592434  5.175915  -0.995863
H    -4.917310  6.391296  0.026423
H    -5.874182  2.994349  -0.016103
H    -4.607935  2.412370  1.023784
N    -3.477490  0.427666  4.104090
C    -4.866008  0.079557  4.405947
H    -2.811185  0.411754  4.872662
H    -4.876532  -0.773081  5.094569
H    -5.381763  -0.179256  3.476620
H    -5.382024  0.921345  4.889779
Cd    2.764596  -1.256577  3.182667
