37
Energy: -175314.776825 eV PBE+vdW (tier 2 basis)
C    1.381573  0.997536  0.395532
C    0.816485  -0.170814  1.131780
O    1.566871  -1.205289  1.227716
H    2.299733  1.333976  0.898221
H    0.682110  1.835406  0.301926
H    1.681993  0.664616  -0.609565
N    -0.428927  -0.068970  1.625989
C    -1.395369  -1.071476  2.159477
C    -1.068657  -1.495122  3.608083
O    -0.191541  -2.398286  3.891503
H    -0.844463  0.846928  1.468583
H    -2.330126  -0.500662  2.213776
C    -1.660152  -2.258720  1.202036
C    -3.002836  -2.967169  1.471142
C    -3.279518  -4.084173  0.442702
N    -4.524250  -4.811304  0.708564
C    -5.547455  -5.015981  -0.153716
N    -6.339283  -6.077412  0.016931
N    -5.781886  -4.169965  -1.163381
H    -0.838931  -2.993698  1.231731
H    -1.652107  -1.844988  0.182866
H    -3.822676  -2.233098  1.437982
H    -3.010672  -3.402759  2.483041
H    -2.452614  -4.811865  0.443004
H    -3.324421  -3.675806  -0.574809
H    -4.528166  -5.412869  1.527625
H    -7.243350  -6.140943  -0.441171
H    -6.053545  -6.879099  0.569036
H    -6.435811  -4.412900  -1.900742
H    -5.444615  -3.216364  -1.153495
N    -1.740946  -0.972798  4.614100
C    -2.837568  0.010142  4.603353
H    -1.458364  -1.324667  5.533256
H    -3.029898  0.299716  5.640661
H    -3.756138  -0.427087  4.192816
H    -2.554686  0.911163  4.047498
Cd    1.553206  -2.659202  2.737949
