37
Energy: -175315.281772 eV PBE+vdW (tier 2 basis)
C    -4.202619  2.400496  5.055136
C    -3.340150  1.641867  4.105838
O    -3.230322  2.108517  2.918144
H    -4.213284  1.975785  6.064838
H    -5.226845  2.447552  4.658213
H    -3.840238  3.438754  5.103270
N    -2.716816  0.532398  4.541828
C    -1.607377  -0.216060  3.909815
C    -2.162728  -1.292385  2.942538
O    -2.425974  -0.993813  1.718167
H    -2.935808  0.269613  5.501845
H    -1.052295  0.494463  3.274569
C    -0.640077  -0.701315  5.013966
C    0.711744  -1.244637  4.512378
C    1.639321  -1.597996  5.691141
N    2.944453  -2.062782  5.216900
C    4.094052  -2.026822  5.928965
N    4.083916  -1.704597  7.226741
N    5.250699  -2.288992  5.313716
H    -1.142014  -1.441683  5.661775
H    -0.456902  0.172027  5.658584
H    1.206495  -0.488086  3.884774
H    0.562480  -2.137233  3.883889
H    1.161976  -2.363855  6.326314
H    1.804078  -0.702997  6.308718
H    2.968482  -2.613266  4.363684
H    4.952182  -1.519770  7.719785
H    3.258743  -1.825072  7.801624
H    5.335350  -2.276354  4.303517
H    6.096470  -2.483365  5.840357
N    -2.371357  -2.517820  3.371292
C    -2.949076  -3.623383  2.592938
H    -2.110046  -2.727617  4.333141
H    -3.804306  -4.033814  3.143270
H    -2.195654  -4.410315  2.464198
H    -3.269252  -3.257291  1.615895
Cd    -2.824298  1.012849  1.163233
