37
Energy: -175314.020857 eV PBE+vdW (tier 2 basis)
C    -1.119233  0.294300  -0.622075
C    -0.303637  -0.172093  0.526461
O    0.969426  -0.013190  0.448771
H    -0.656573  1.218755  -0.999991
H    -2.160207  0.484864  -0.357218
H    -1.056116  -0.430198  -1.449448
N    -0.817324  -0.689892  1.671840
C    -1.769367  -1.799646  1.877267
C    -0.946852  -3.113350  1.721676
O    0.141071  -3.140660  1.028344
H    -0.158722  -0.606546  2.450168
H    -2.053489  -1.726682  2.938629
C    -3.081525  -1.786008  1.054828
C    -4.052311  -0.675122  1.510392
C    -5.536857  -0.877961  1.164468
N    -5.859749  -0.640335  -0.250062
C    -7.051822  -0.965534  -0.812748
N    -7.245185  -0.728466  -2.113534
N    -8.010344  -1.553363  -0.091847
H    -3.559325  -2.762411  1.218603
H    -2.869081  -1.749205  -0.021701
H    -3.720888  0.315442  1.161509
H    -4.020764  -0.607233  2.608529
H    -6.118327  -0.195946  1.806516
H    -5.836784  -1.907011  1.411774
H    -5.376908  0.133209  -0.699106
H    -8.169877  -0.782217  -2.528869
H    -6.480553  -0.493471  -2.735267
H    -8.842738  -1.924129  -0.540344
H    -8.042747  -1.479260  0.918035
N    -1.350662  -4.236101  2.282412
C    -2.547772  -4.521503  3.078696
H    -0.731095  -5.033712  2.111939
H    -3.306122  -5.019806  2.459965
H    -2.960605  -3.607963  3.516080
H    -2.261926  -5.201259  3.889725
Cd    1.890996  -1.902660  0.885433
