37
Energy: -175314.547457 eV PBE+vdW (tier 2 basis)
C    -2.252255  0.982582  1.558570
C    -1.329123  0.384600  2.567443
O    -0.915124  -0.807653  2.334641
H    -3.070979  0.274983  1.363494
H    -1.714564  1.099990  0.605668
H    -2.669487  1.948159  1.864018
N    -1.001534  1.117948  3.642227
C    -0.327375  0.792966  4.931753
C    1.209124  0.663155  4.825187
O    1.812699  -0.360513  4.324799
H    -1.394029  2.056986  3.617742
H    -0.497748  1.702926  5.523292
C    -0.976967  -0.360674  5.740519
C    -2.400881  -0.011021  6.231750
C    -2.873800  -0.746877  7.505019
N    -3.360464  -2.122289  7.331074
C    -4.619718  -2.545736  7.602187
N    -4.822806  -3.823222  7.937762
N    -5.659201  -1.710679  7.516719
H    -0.318923  -0.527124  6.608329
H    -0.981574  -1.301253  5.169010
H    -3.134859  -0.148001  5.424640
H    -2.424322  1.059161  6.492435
H    -3.681364  -0.164144  7.965081
H    -2.065395  -0.766557  8.251557
H    -2.661807  -2.858651  7.319410
H    -4.079839  -4.403985  8.311236
H    -5.755416  -4.225147  7.940814
H    -6.565471  -1.965140  7.896939
H    -5.603124  -0.825772  7.029549
N    1.934276  1.628393  5.352222
C    3.401707  1.681450  5.399728
H    1.443955  2.399724  5.803314
H    3.743688  1.434769  6.413868
H    3.719253  2.701095  5.154084
H    3.822366  0.969638  4.686683
Cd    0.963081  -1.589084  2.855236
