37
Energy: -175313.721360 eV PBE+vdW (tier 2 basis)
C    -0.039788  0.519162  0.487325
C    -0.428106  0.221846  1.891157
O    0.361943  0.508547  2.872077
H    0.887168  -0.018132  0.245081
H    0.154292  1.603412  0.412633
H    -0.786061  0.240113  -0.253798
N    -1.586459  -0.327435  2.291124
C    -2.595456  -1.195262  1.643046
C    -1.925856  -2.380414  0.888124
O    -0.960565  -2.176111  0.152553
H    -1.641471  -0.358483  3.311325
H    -3.128907  -1.611764  2.507864
C    -3.707416  -0.514328  0.785837
C    -3.377554  0.023946  -0.615398
C    -4.581464  0.104543  -1.569548
N    -5.589332  1.093120  -1.165100
C    -6.839486  1.165911  -1.682946
N    -7.698696  2.063713  -1.187474
N    -7.224827  0.335036  -2.654083
H    -4.147103  0.270397  1.418414
H    -4.484384  -1.289327  0.693862
H    -2.661458  -0.640390  -1.122547
H    -2.893800  1.011029  -0.556521
H    -5.073676  -0.878192  -1.622477
H    -4.200150  0.343992  -2.576430
H    -5.255311  1.936271  -0.706343
H    -8.576478  2.269046  -1.654736
H    -7.527165  2.543604  -0.311222
H    -8.196721  0.288689  -2.944879
H    -6.556815  -0.149346  -3.241920
N    -2.488004  -3.597034  1.063157
C    -1.977478  -4.804608  0.428407
H    -3.196086  -3.712523  1.786029
H    -2.814907  -5.487607  0.241685
H    -1.258066  -5.318879  1.086599
H    -1.466009  -4.536940  -0.502066
Cd    2.072830  1.800418  2.993082
