37
Energy: -175314.556491 eV PBE+vdW (tier 2 basis)
C    0.057051  -0.668599  -0.566578
C    -0.304632  -0.741099  0.877576
O    0.615701  -0.473398  1.724176
H    -0.790163  -0.858647  -1.234714
H    0.860987  -1.389579  -0.774593
H    0.471691  0.328171  -0.778347
N    -1.566704  -1.067048  1.213785
C    -2.189009  -1.004801  2.547129
C    -1.832411  -2.250986  3.403406
O    -0.894104  -2.142235  4.287142
H    -2.183883  -1.277256  0.431525
H    -1.706488  -0.173503  3.087753
C    -3.694048  -0.649664  2.455194
C    -3.941083  0.830420  2.099624
C    -5.407477  1.186496  1.772980
N    -6.323251  1.259173  2.918831
C    -6.955907  2.376274  3.352525
N    -8.104877  2.258375  4.023886
N    -6.438123  3.588706  3.133168
H    -4.150456  -0.891458  3.426835
H    -4.182448  -1.297550  1.712002
H    -3.359201  1.096011  1.203176
H    -3.574892  1.475994  2.912639
H    -5.824059  0.462800  1.056242
H    -5.432045  2.155069  1.258427
H    -6.739466  0.388086  3.232481
H    -8.495504  3.039164  4.542433
H    -8.677536  1.423244  3.965614
H    -6.988934  4.427047  3.288811
H    -5.470972  3.722919  2.868863
N    -2.434462  -3.418823  3.314678
C    -3.542014  -3.874270  2.466588
H    -2.065809  -4.114934  3.969818
H    -3.484116  -3.431744  1.468249
H    -4.509526  -3.649112  2.932425
H    -3.452314  -4.960685  2.364148
Cd    0.811485  -0.997553  3.768100
