37
Energy: -175315.081255 eV PBE+vdW (tier 2 basis)
C    -0.280012  -2.188210  1.338152
C    -1.680158  -1.821829  1.694207
O    -2.603627  -2.631207  1.332969
H    -0.196128  -2.294915  0.247382
H    -0.059044  -3.178434  1.765604
H    0.460883  -1.467299  1.700666
N    -1.896889  -0.686140  2.382847
C    -3.121790  -0.259264  3.092148
C    -4.074730  0.498632  2.133354
O    -4.940644  -0.143206  1.430986
H    -1.062204  -0.131042  2.564812
H    -3.667052  -1.174068  3.379571
C    -2.732329  0.458305  4.407352
C    -3.925511  0.735352  5.345699
C    -3.577225  0.919740  6.833384
N    -2.906958  2.193049  7.132612
C    -2.267808  2.451928  8.303220
N    -1.666947  3.633729  8.468348
N    -2.200509  1.528573  9.265744
H    -2.162284  1.378455  4.193873
H    -2.023005  -0.214590  4.913080
H    -4.612275  -0.124571  5.318901
H    -4.521358  1.592586  4.995036
H    -2.914996  0.103593  7.156787
H    -4.515605  0.838055  7.405819
H    -3.271508  3.016258  6.660148
H    -1.345448  3.940295  9.381177
H    -1.505928  4.266673  7.693574
H    -1.600911  1.665294  10.074204
H    -2.867717  0.768684  9.327899
N    -4.003931  1.807728  2.029177
C    -4.811390  2.642300  1.126090
H    -3.344958  2.290795  2.635997
H    -4.179977  3.450355  0.742097
H    -5.658692  3.073138  1.675725
H    -5.187819  2.033217  0.300926
Cd    -4.634513  -2.189955  0.963430
