37
Energy: -175314.507049 eV PBE+vdW (tier 2 basis)
C    -0.237553  1.481707  0.720170
C    -0.248905  0.166463  1.425733
O    0.804921  -0.554166  1.314861
H    0.555656  2.112309  1.148543
H    -1.194017  2.013565  0.767695
H    0.035909  1.316096  -0.332251
N    -1.352630  -0.175729  2.111069
C    -1.813638  -1.451336  2.726711
C    -1.102181  -1.780279  4.055258
O    0.076171  -2.305813  4.114164
H    -2.064066  0.551948  2.105157
H    -2.854201  -1.230747  2.993967
C    -1.857260  -2.665347  1.763539
C    -2.829888  -2.462417  0.585533
C    -2.902773  -3.634324  -0.417494
N    -3.697746  -4.793328  0.007764
C    -4.858430  -5.202862  -0.559181
N    -5.224533  -6.482855  -0.448777
N    -5.645737  -4.342542  -1.211976
H    -2.159215  -3.533219  2.370779
H    -0.854588  -2.897092  1.370807
H    -2.521376  -1.578705  0.007218
H    -3.839340  -2.248506  0.970029
H    -1.892504  -3.993438  -0.664561
H    -3.321071  -3.268262  -1.363343
H    -3.231204  -5.492981  0.576040
H    -6.169431  -6.782317  -0.669345
H    -4.557564  -7.215572  -0.232069
H    -6.413812  -4.672517  -1.787961
H    -5.557453  -3.340459  -1.104769
N    -1.731557  -1.603569  5.199593
C    -3.095020  -1.117305  5.467190
H    -1.187977  -1.887465  6.019983
H    -3.160797  -0.895623  6.536862
H    -3.840219  -1.886912  5.228398
H    -3.301116  -0.192487  4.917355
Cd    1.587147  -1.917915  2.709310
