37
Energy: -175314.003298 eV PBE+vdW (tier 2 basis)
C    -0.520375  0.665797  -0.729705
C    -0.103679  0.546877  0.696660
O    1.134892  0.367312  1.029865
H    -0.121099  1.605604  -1.144399
H    -1.603120  0.671486  -0.880245
H    -0.093656  -0.165841  -1.306393
N    -0.958737  0.585211  1.710560
C    -2.416070  0.724522  1.708411
C    -2.718764  1.468744  3.046131
O    -1.968844  1.296168  4.005439
H    -0.564137  0.571881  2.663151
H    -2.712418  1.342272  0.850719
C    -3.206364  -0.614447  1.640715
C    -3.057381  -1.567588  2.837485
C    -3.951498  -2.809919  2.670433
N    -3.863186  -3.686809  3.840100
C    -4.790489  -4.595931  4.216212
N    -4.674928  -5.185453  5.411842
N    -5.820517  -4.890023  3.418464
H    -2.909215  -1.115721  0.705871
H    -4.265057  -0.341870  1.509328
H    -3.333773  -1.058175  3.772584
H    -2.007414  -1.882752  2.944936
H    -3.661274  -3.362063  1.759799
H    -5.001754  -2.502172  2.556350
H    -2.982442  -3.707740  4.346714
H    -4.070243  -4.814026  6.136498
H    -5.229069  -6.001047  5.654485
H    -6.593758  -5.455853  3.754611
H    -5.793410  -4.711587  2.421648
N    -3.823792  2.249068  3.075354
C    -4.185457  3.068125  4.222210
H    -4.344939  2.393748  2.211915
H    -3.812742  4.099263  4.100548
H    -3.740319  2.641420  5.126518
H    -5.279660  3.114561  4.294330
Cd    2.970657  0.933784  0.087112
