37
Energy: -175314.015494 eV PBE+vdW (tier 2 basis)
C    -0.468755  -1.241848  -1.248755
C    0.284197  -1.319071  0.026442
O    1.519619  -1.668143  -0.041222
H    -1.322763  -0.564423  -1.207140
H    -0.791303  -2.248830  -1.560166
H    0.233788  -0.906185  -2.026667
N    -0.215159  -0.978768  1.246600
C    -1.433214  -1.424192  1.953690
C    -1.074994  -2.785522  2.621080
O    -0.134055  -3.533086  2.154225
H    0.532565  -0.732637  1.899594
H    -1.578264  -0.689509  2.761230
C    -2.733056  -1.486948  1.117531
C    -3.216709  -0.100330  0.611729
C    -4.445056  0.513979  1.301903
N    -5.697231  -0.121577  0.866190
C    -6.925408  0.208998  1.336522
N    -7.997561  -0.445617  0.882578
N    -7.061930  1.149483  2.276731
H    -3.504852  -1.947291  1.749540
H    -2.597912  -2.188017  0.284100
H    -3.422909  -0.156493  -0.467775
H    -2.407409  0.637868  0.705268
H    -4.457109  1.588695  1.056456
H    -4.367871  0.423990  2.396919
H    -5.688551  -0.553649  -0.053579
H    -7.916379  -1.283853  0.318447
H    -8.938746  -0.116176  1.073091
H    -6.351288  1.854319  2.433043
H    -7.964920  1.323964  2.707479
N    -1.743856  -3.226747  3.668623
C    -2.879538  -2.637875  4.381954
H    -1.425456  -4.137335  4.012683
H    -2.737788  -2.815971  5.454115
H    -3.815896  -3.119190  4.069760
H    -2.934999  -1.559136  4.211208
Cd    1.852362  -3.216326  1.403760
