37
Energy: -175314.834432 eV PBE+vdW (tier 2 basis)
C    0.245087  -1.081288  1.049491
C    -0.057113  -0.084779  2.116078
O    0.621599  0.999122  2.108475
H    1.306838  -1.360549  1.101028
H    0.096941  -0.600534  0.070246
H    -0.379360  -1.979496  1.107051
N    -1.026499  -0.363831  3.008007
C    -1.683511  0.557331  3.956431
C    -0.905265  0.624031  5.294721
O    0.070793  1.452024  5.434522
H    -1.444660  -1.286170  2.908071
H    -1.573610  1.569486  3.533111
C    -3.221752  0.334023  3.995947
C    -3.794285  -1.030282  4.436531
C    -5.228207  -1.313498  3.943410
N    -6.237160  -0.451662  4.571099
C    -7.500096  -0.289697  4.098319
N    -8.318828  0.566499  4.714766
N    -7.911990  -0.943377  3.008551
H    -3.560144  0.543456  2.969680
H    -3.640020  1.141299  4.613581
H    -3.787658  -1.140722  5.533902
H    -3.193862  -1.870262  4.052445
H    -5.448370  -2.375116  4.141727
H    -5.275493  -1.156059  2.856001
H    -6.128826  -0.270410  5.565555
H    -7.980381  1.239535  5.393016
H    -9.315516  0.576757  4.521270
H    -8.799228  -0.712253  2.571155
H    -7.477501  -1.806882  2.704902
N    -1.214101  -0.148829  6.312400
C    -0.498823  -0.155339  7.600699
H    -2.006414  -0.776734  6.210830
H    -0.895265  -0.972741  8.208162
H    -0.650352  0.798865  8.120273
H    0.573313  -0.307403  7.431809
Cd    1.059718  2.263488  3.744742
