37
Energy: -175314.415427 eV PBE+vdW (tier 2 basis)
C    -0.516291  0.395333  0.236930
C    -0.461903  0.087252  1.696007
O    0.198529  -0.956688  2.037222
H    -1.143141  1.260452  -0.005167
H    -0.899637  -0.489020  -0.293930
H    0.504857  0.561481  -0.135941
N    -1.110247  0.905566  2.541999
C    -1.487705  0.795923  3.979272
C    -0.302275  1.053741  4.934952
O    0.570515  0.148593  5.228052
H    -1.544816  1.696882  2.071609
H    -2.172156  1.641888  4.115434
C    -2.297584  -0.478559  4.326897
C    -2.989015  -0.366714  5.700616
C    -3.817420  -1.589515  6.145906
N    -5.157685  -1.650420  5.555245
C    -6.260868  -2.129178  6.178571
N    -7.461476  -1.920783  5.629121
N    -6.163847  -2.784273  7.339086
H    -1.664575  -1.379964  4.301347
H    -3.029945  -0.604474  3.515663
H    -3.632437  0.526237  5.730173
H    -2.224902  -0.222370  6.479702
H    -3.948485  -1.514123  7.232938
H    -3.263368  -2.522091  5.945749
H    -5.257909  -1.482781  4.559488
H    -7.614318  -1.202833  4.930141
H    -8.279196  -2.435869  5.940251
H    -6.991544  -2.978829  7.894553
H    -5.310804  -3.249821  7.624627
N    -0.189864  2.214858  5.547599
C    -1.060087  3.401251  5.493041
H    0.616108  2.278007  6.176501
H    -1.984951  3.236738  6.060383
H    -1.284797  3.680702  4.458014
H    -0.515748  4.229955  5.955980
Cd    1.208069  -1.302033  3.842680
