37
Energy: -175313.750654 eV PBE+vdW (tier 2 basis)
C    -0.901207  -0.258864  -0.144981
C    -0.228493  -0.417613  1.174762
O    0.432457  -1.466039  1.506465
H    -1.908038  -0.705740  -0.097885
H    -0.344207  -0.797364  -0.921729
H    -1.002402  0.785933  -0.457197
N    -0.314559  0.524263  2.134337
C    -1.294153  1.615879  2.222791
C    -0.654864  3.039575  2.065250
O    -1.410788  3.996123  2.283323
H    0.176069  0.277566  2.998501
H    -1.959381  1.535021  1.352436
C    -2.179641  1.506196  3.485524
C    -1.547462  1.824191  4.860038
C    -1.722071  3.262941  5.397253
N    -3.107970  3.620054  5.692491
C    -3.800773  4.678563  5.197505
N    -4.884612  5.098526  5.856306
N    -3.412216  5.268576  4.066210
H    -2.568655  0.478287  3.499596
H    -3.058000  2.142561  3.312581
H    -0.463980  1.623009  4.875101
H    -1.968592  1.130417  5.600838
H    -1.301453  4.015386  4.724650
H    -1.160619  3.334389  6.343701
H    -3.545472  3.130574  6.471466
H    -5.519348  5.780893  5.451917
H    -5.062118  4.835962  6.820947
H    -3.839657  6.139543  3.766324
H    -2.729989  4.841432  3.437063
N    0.608868  3.155373  1.663312
C    1.274434  4.445850  1.439729
H    1.157202  2.308054  1.554035
H    0.538546  5.175353  1.087754
H    2.051973  4.310669  0.681638
H    1.736168  4.811939  2.365882
Cd    1.370154  -3.082943  0.390952
