37
Energy: -175314.106515 eV PBE+vdW (tier 2 basis)
C    -0.669859  0.485079  -0.476185
C    -0.191171  0.197675  0.898663
O    1.060759  0.369603  1.133452
H    -0.118591  1.367746  -0.835863
H    -1.742924  0.674773  -0.530501
H    -0.386303  -0.334124  -1.156069
N    -0.993407  -0.162193  1.935607
C    -1.983766  -1.251162  2.052212
C    -1.178037  -2.545436  2.372581
O    0.063204  -2.661994  2.040344
H    -0.561076  0.054508  2.836924
H    -2.570849  -1.005495  2.950697
C    -2.970652  -1.434353  0.876905
C    -4.053613  -0.339835  0.811531
C    -5.063166  -0.591798  -0.322163
N    -6.128264  0.413982  -0.300300
C    -6.935567  0.726877  -1.338588
N    -7.745994  1.784355  -1.240154
N    -6.903925  0.009920  -2.467728
H    -3.458199  -2.409555  1.016615
H    -2.422627  -1.524513  -0.071008
H    -3.604248  0.656496  0.686829
H    -4.590815  -0.318391  1.773882
H    -5.486657  -1.605983  -0.222297
H    -4.558040  -0.533669  -1.297778
H    -6.411035  0.774842  0.606268
H    -8.508279  1.928312  -1.894738
H    -7.627748  2.485524  -0.517392
H    -7.396401  0.330004  -3.295911
H    -6.583338  -0.950648  -2.480522
N    -1.753059  -3.569048  2.971706
C    -3.139745  -3.755209  3.409014
H    -1.129251  -4.366821  3.125288
H    -3.682064  -4.385829  2.691671
H    -3.651474  -2.795832  3.526075
H    -3.124923  -4.266951  4.378274
Cd    1.792624  -1.396822  2.110256
