37
Energy: -175313.684387 eV PBE+vdW (tier 2 basis)
C    0.013196  -0.892718  0.534072
C    -0.164431  -0.247222  1.864569
O    0.802083  -0.108293  2.698625
H    0.544827  -1.847094  0.665815
H    0.643339  -0.254024  -0.103229
H    -0.926465  -1.100594  0.015532
N    -1.340758  0.241847  2.295680
C    -2.561967  0.639761  1.553800
C    -3.522722  -0.545850  1.215538
O    -4.527067  -0.283024  0.544715
H    -1.287521  0.599842  3.252911
H    -3.130297  1.218860  2.297657
C    -2.241036  1.580971  0.356829
C    -3.401720  2.140478  -0.481916
C    -4.456628  2.964862  0.289428
N    -5.510610  3.480846  -0.577143
C    -6.675088  2.854056  -0.868725
N    -7.620598  3.532174  -1.528948
N    -6.874033  1.588338  -0.497326
H    -1.573696  1.068731  -0.348346
H    -1.660350  2.413225  0.783881
H    -3.899101  1.327941  -1.027517
H    -2.944515  2.783623  -1.249317
H    -3.987714  3.836507  0.766879
H    -4.934060  2.375168  1.084242
H    -5.353900  4.384186  -1.017949
H    -8.456540  3.073925  -1.879871
H    -7.577539  4.540189  -1.644132
H    -6.118498  0.993624  -0.164508
H    -7.788775  1.159619  -0.593785
N    -3.262313  -1.767244  1.704145
C    -4.179453  -2.898724  1.544095
H    -2.518252  -1.855105  2.390278
H    -3.610280  -3.828014  1.646451
H    -4.644171  -2.848975  0.554060
H    -4.968004  -2.877146  2.309578
Cd    2.745588  -1.044057  2.978045
