37
Energy: -175314.084461 eV PBE+vdW (tier 2 basis)
C    -1.607126  1.034174  0.042426
C    -0.545174  0.548270  0.957766
O    0.669321  0.857147  0.680473
H    -2.565885  1.190780  0.541944
H    -1.735336  0.322601  -0.791492
H    -1.260004  1.969688  -0.418632
N    -0.781904  -0.170661  2.090408
C    -1.581011  -1.401673  2.274224
C    -0.791718  -2.568509  1.591448
O    0.472564  -2.491699  1.353912
H    -0.013922  -0.101402  2.759955
H    -1.504479  -1.610977  3.354296
C    -3.076842  -1.295186  1.912570
C    -3.878058  -0.221520  2.692953
C    -4.609555  -0.766723  3.934169
N    -5.410583  0.282954  4.567512
C    -6.580212  0.105619  5.221760
N    -7.338962  1.168388  5.503377
N    -6.992150  -1.120491  5.564844
H    -3.539775  -2.274462  2.107030
H    -3.188688  -1.134399  0.833253
H    -4.630047  0.203368  2.014505
H    -3.215901  0.608175  2.986156
H    -3.893766  -1.193213  4.658026
H    -5.295467  -1.568678  3.625677
H    -5.017562  1.218874  4.604742
H    -8.094070  1.112820  6.179757
H    -7.210618  2.058823  5.035313
H    -7.938578  -1.271062  5.900630
H    -6.339294  -1.881958  5.704080
N    -1.403183  -3.702404  1.328103
C    -0.752901  -4.901418  0.772389
H    -2.388968  -3.781890  1.564930
H    -1.532946  -5.619183  0.506268
H    -0.082963  -5.346415  1.518813
H    -0.177743  -4.635708  -0.121006
Cd    1.852858  -0.919748  0.932962
