37
Energy: -175315.058079 eV PBE+vdW (tier 2 basis)
C    -1.752246  -1.422091  -0.260629
C    -1.070256  -1.256991  1.054827
O    0.186603  -1.023485  1.035375
H    -1.541895  -0.539979  -0.882919
H    -2.836018  -1.555299  -0.171942
H    -1.316807  -2.284255  -0.786652
N    -1.803163  -1.349131  2.179746
C    -1.381082  -1.041601  3.556320
C    -0.571998  -2.210201  4.186200
O    0.718169  -2.121501  4.212071
H    -2.789296  -1.561167  2.041293
H    -0.644500  -0.223673  3.491124
C    -2.552208  -0.508810  4.414829
C    -2.942598  0.949635  4.102798
C    -4.058370  1.442363  5.043560
N    -4.393549  2.842794  4.775872
C    -5.561566  3.444305  5.097023
N    -6.475997  2.809572  5.838474
N    -5.809660  4.674093  4.637524
H    -2.245210  -0.586893  5.468967
H    -3.427584  -1.164963  4.302870
H    -3.277965  1.052260  3.059941
H    -2.056984  1.594498  4.223834
H    -3.739788  1.314852  6.092303
H    -4.966875  0.841713  4.890283
H    -3.633357  3.463946  4.514801
H    -7.409508  3.193962  5.947182
H    -6.223117  2.060442  6.471366
H    -6.560420  5.239489  5.020946
H    -5.272750  5.081763  3.880402
N    -1.105542  -3.285110  4.727809
C    -2.505981  -3.684326  4.912470
H    -0.409580  -3.935952  5.104349
H    -2.908646  -3.273836  5.847030
H    -2.530090  -4.777160  4.975085
H    -3.119980  -3.377135  4.061363
Cd    1.679813  -1.297127  2.516100
