37
Energy: -175313.223030 eV PBE+vdW (tier 2 basis)
C    0.648333  -0.148907  1.614528
C    0.032735  -0.069355  2.967935
O    0.694240  -0.273100  4.050383
H    1.634769  0.335960  1.628834
H    0.052265  0.320474  0.826238
H    0.814367  -1.206621  1.354395
N    -1.277342  0.164441  3.147075
C    -2.330090  0.163837  2.127381
C    -2.532191  1.619451  1.533270
O    -2.364860  1.693551  0.317511
H    -1.562790  0.229854  4.127353
H    -1.959436  -0.396286  1.263568
C    -3.642691  -0.493068  2.611317
C    -4.760754  -0.415309  1.553587
C    -6.113315  -1.026376  1.982882
N    -6.218407  -2.486660  1.894091
C    -6.922700  -3.173534  0.964053
N    -7.285484  -4.434755  1.222928
N    -7.245626  -2.614105  -0.204735
H    -3.984505  -0.023203  3.545784
H    -3.402927  -1.541799  2.847072
H    -4.425999  -0.876492  0.612210
H    -4.967227  0.639793  1.318430
H    -6.913299  -0.594339  1.368449
H    -6.350872  -0.746028  3.019475
H    -5.912962  -3.027825  2.697077
H    -7.653195  -5.037761  0.493213
H    -7.321862  -4.797342  2.169772
H    -7.918236  -3.052082  -0.826281
H    -6.806510  -1.765375  -0.537658
N    -2.847320  2.681427  2.299399
C    -3.337915  2.745478  3.673511
H    -2.966748  3.534552  1.748418
H    -3.134276  3.752820  4.054952
H    -2.822359  2.036710  4.327940
H    -4.422726  2.577216  3.727785
Cd    2.787631  0.024643  4.559253
