37
Energy: -175313.899407 eV PBE+vdW (tier 2 basis)
C    -0.457875  -0.636856  -0.014897
C    -0.375268  0.051318  1.308320
O    0.753025  0.296283  1.896370
H    0.095753  -0.056012  -0.769217
H    -1.485478  -0.758471  -0.373720
H    -0.007838  -1.638535  0.063892
N    -1.488163  0.421774  1.920790
C    -1.591861  1.033690  3.255999
C    -2.870204  0.428630  3.872061
O    -3.828941  0.235713  3.095377
H    -2.389028  0.160621  1.507936
H    -0.694502  0.754006  3.820619
C    -1.697558  2.583365  3.199942
C    -2.953354  3.195136  2.544907
C    -4.103180  3.483671  3.549525
N    -5.312836  3.979770  2.908468
C    -6.392946  3.244495  2.546709
N    -7.491486  3.886255  2.134355
N    -6.358886  1.912208  2.602652
H    -0.810629  2.932803  2.652646
H    -1.574606  2.961786  4.226057
H    -3.321980  2.568518  1.720319
H    -2.669900  4.153412  2.089216
H    -3.778640  4.256390  4.259872
H    -4.367347  2.599357  4.142951
H    -5.361014  4.979037  2.721568
H    -8.293098  3.384599  1.763276
H    -7.606150  4.888002  2.255331
H    -7.203683  1.370070  2.451816
H    -5.500557  1.386197  2.768024
N    -2.942217  0.192813  5.188123
C    -1.888006  0.272790  6.199216
H    -3.823822  -0.230991  5.484578
H    -2.355571  0.487710  7.166846
H    -1.180031  1.076274  5.975909
H    -1.353244  -0.684443  6.285597
Cd    2.718336  -0.119784  1.121674
