37
Energy: -175314.008070 eV PBE+vdW (tier 2 basis)
C    -0.089077  0.381829  -0.406748
C    0.306046  -0.707957  0.517842
O    1.426086  -1.297394  0.292895
H    -0.884505  1.016071  -0.013008
H    -0.353653  -0.022924  -1.395238
H    0.811729  0.995350  -0.575946
N    -0.383402  -1.057101  1.640336
C    -1.785759  -1.489924  1.833054
C    -1.718348  -3.042784  1.812439
O    -0.950150  -3.649121  0.966563
H    0.236542  -1.460413  2.347370
H    -2.074369  -1.159215  2.840581
C    -2.794098  -0.909498  0.810837
C    -4.260145  -1.304039  1.072922
C    -5.283075  -0.684388  0.103015
N    -5.566834  0.727096  0.398736
C    -6.281015  1.544383  -0.416389
N    -6.479082  2.814979  -0.053932
N    -6.747032  1.102511  -1.587914
H    -2.511572  -1.222136  -0.205513
H    -2.698337  0.183751  0.857713
H    -4.551033  -1.055304  2.105882
H    -4.381107  -2.392160  0.975038
H    -6.207699  -1.280625  0.167808
H    -4.911511  -0.753533  -0.930120
H    -5.583781  0.985807  1.381865
H    -7.150206  3.404513  -0.536223
H    -5.983181  3.234958  0.723845
H    -7.168185  1.743308  -2.253845
H    -6.879091  0.115598  -1.773934
N    -2.442839  -3.786964  2.625024
C    -3.406336  -3.425628  3.669956
H    -2.302185  -4.793575  2.491786
H    -3.192189  -4.036993  4.554947
H    -4.427100  -3.647360  3.333440
H    -3.325992  -2.369739  3.938387
Cd    1.132581  -3.411402  0.513650
