37
Energy: -175314.225023 eV PBE+vdW (tier 2 basis)
C    1.881146  -0.038914  0.673653
C    0.786840  -0.578507  1.529796
O    0.854440  -0.339170  2.782678
H    1.932498  1.051512  0.812677
H    1.746100  -0.261465  -0.390633
H    2.844261  -0.442378  1.017597
N    -0.210740  -1.271037  0.944583
C    -1.469130  -1.699572  1.565534
C    -1.285844  -3.020031  2.364897
O    -1.151748  -2.946832  3.646708
H    -0.114206  -1.401451  -0.059356
H    -1.671388  -0.971024  2.365649
C    -2.731895  -1.596180  0.631152
C    -2.543920  -1.523671  -0.896291
C    -3.771128  -0.986570  -1.660755
N    -4.903571  -1.921048  -1.700153
C    -6.170588  -1.558339  -2.031439
N    -7.137222  -2.479994  -2.006874
N    -6.462887  -0.292362  -2.339940
H    -3.244602  -0.676424  0.943341
H    -3.414812  -2.413723  0.900360
H    -2.239449  -2.488438  -1.328595
H    -1.747466  -0.807427  -1.151117
H    -3.443910  -0.738363  -2.683458
H    -4.114971  -0.057902  -1.182954
H    -4.679370  -2.893831  -1.893186
H    -8.045734  -2.304006  -2.424527
H    -7.006430  -3.383768  -1.567681
H    -7.428486  0.007057  -2.438618
H    -5.758432  0.355782  -2.671673
N    -1.272618  -4.224086  1.831506
C    -1.424415  -4.640983  0.437140
H    -1.148877  -4.976773  2.514774
H    -2.483766  -4.768785  0.180509
H    -0.922027  -5.606837  0.320436
H    -0.947630  -3.926616  -0.239557
Cd    -0.077258  -1.292406  4.433662
