37
Energy: -175314.248734 eV PBE+vdW (tier 2 basis)
C    -0.659271  -0.204413  0.181147
C    -0.232979  0.411950  1.468108
O    0.950881  0.906289  1.556579
H    -0.616425  0.577461  -0.594880
H    -1.672065  -0.620932  0.203553
H    0.056389  -0.978933  -0.125610
N    -1.116222  0.473519  2.476410
C    -1.147248  1.301973  3.698752
C    0.091440  1.203703  4.596738
O    0.898473  0.197542  4.534654
H    -2.020095  0.061279  2.251066
H    -1.204214  2.352269  3.363293
C    -2.465851  1.009758  4.473439
C    -2.617641  -0.376204  5.127701
C    -3.986517  -0.483298  5.827411
N    -4.171604  -1.792670  6.456284
C    -5.366307  -2.342204  6.773973
N    -5.410185  -3.610940  7.191558
N    -6.497363  -1.641001  6.645402
H    -3.286957  1.190650  3.760888
H    -2.579348  1.791961  5.235901
H    -1.814694  -0.536800  5.865098
H    -2.531514  -1.183117  4.384193
H    -4.788304  -0.348167  5.086609
H    -4.081126  0.321847  6.576184
H    -3.356838  -2.232851  6.873397
H    -4.630152  -4.245190  7.062101
H    -6.241709  -3.993474  7.630314
H    -7.401001  -2.096622  6.728606
H    -6.503700  -0.628293  6.650639
N    0.316569  2.148542  5.494150
C    -0.418385  3.383231  5.792849
H    1.132983  1.968494  6.084592
H    -1.099997  3.229154  6.640195
H    -0.982094  3.731225  4.921722
H    0.309642  4.152865  6.072273
Cd    2.342507  0.189062  2.966717
