37
Energy: -175313.645983 eV PBE+vdW (tier 2 basis)
C    1.078511  1.472117  0.485049
C    0.489824  1.390385  1.855748
O    0.962778  2.058536  2.859018
H    1.045541  2.513837  0.128860
H    0.551028  0.850967  -0.246872
H    2.127492  1.139559  0.515760
N    -0.546729  0.595467  2.068261
C    -1.178031  0.285383  3.360498
C    -1.448487  -1.238682  3.288776
O    -1.707163  -1.719817  2.179694
H    -0.845608  -0.032765  1.312262
H    -0.461854  0.527110  4.157150
C    -2.490903  1.087965  3.601319
C    -3.658654  0.856748  2.617213
C    -4.721182  -0.196655  3.027748
N    -5.784639  0.302102  3.902958
C    -7.048239  0.615230  3.531726
N    -7.985639  0.752831  4.476029
N    -7.365471  0.789374  2.246603
H    -2.202025  2.148301  3.578959
H    -2.801047  0.895649  4.639840
H    -3.276772  0.569070  1.627831
H    -4.172781  1.815558  2.463146
H    -4.256372  -1.047187  3.546248
H    -5.192628  -0.618915  2.131465
H    -5.596198  0.346629  4.899810
H    -7.862904  0.382600  5.412637
H    -8.895866  1.149880  4.262826
H    -8.334741  0.852418  1.951098
H    -6.663610  0.918910  1.529432
N    -1.432098  -1.949100  4.434042
C    -1.622088  -3.395258  4.475552
H    -1.099445  -1.493075  5.281784
H    -0.651861  -3.915983  4.432649
H    -2.219123  -3.707988  3.612785
H    -2.112881  -3.665193  5.417942
Cd    2.579900  3.483660  2.785030
