37
Energy: -175314.944438 eV PBE+vdW (tier 2 basis)
C    -2.519189  -0.542556  0.080138
C    -2.022705  -0.531811  1.488305
O    -1.485859  -1.613579  1.914909
H    -3.071394  0.362155  -0.196577
H    -3.161669  -1.422846  -0.064103
H    -1.663019  -0.670445  -0.599176
N    -2.178141  0.593921  2.204980
C    -1.989167  0.909509  3.646836
C    -0.505412  1.013505  4.059308
O    0.214619  -0.017450  4.355684
H    -2.597399  1.351570  1.670472
H    -2.391261  1.925975  3.733696
C    -2.810747  0.025856  4.619487
C    -4.326106  0.304107  4.556118
C    -5.118773  -0.555172  5.562456
N    -6.567166  -0.348914  5.462154
C    -7.421097  -0.047468  6.467555
N    -8.708637  -0.381462  6.349098
N    -7.000145  0.585126  7.568858
H    -2.435642  0.228974  5.634674
H    -2.625584  -1.043782  4.432765
H    -4.702704  0.103751  3.541054
H    -4.517246  1.369323  4.757570
H    -4.805721  -0.342585  6.592327
H    -4.912283  -1.624171  5.394454
H    -7.010160  -0.682536  4.610555
H    -9.418353  0.030604  6.947108
H    -9.023442  -1.085546  5.690263
H    -7.600876  0.660543  8.383512
H    -6.151706  1.135732  7.579631
N    0.060410  2.194372  4.208698
C    -0.492893  3.548097  4.053831
H    1.032458  2.147758  4.529666
H    -0.982466  3.873966  4.980784
H    -1.188341  3.601739  3.210818
H    0.342748  4.224676  3.846710
Cd    -0.004932  -1.866933  3.388386
