37
Energy: -175314.612829 eV PBE+vdW (tier 2 basis)
C    0.005258  -0.077730  -0.054460
C    -0.262809  -0.373624  1.383545
O    0.576137  -1.140359  1.975523
H    -0.775916  0.524823  -0.530391
H    0.107522  -1.030727  -0.594825
H    0.974525  0.434125  -0.143749
N    -1.354582  0.167324  1.950529
C    -2.063968  -0.086911  3.237478
C    -1.354635  0.571552  4.448135
O    -0.331001  0.055060  5.031047
H    -1.863959  0.784855  1.321646
H    -3.009027  0.459067  3.108424
C    -2.426107  -1.573991  3.465524
C    -3.476683  -1.795964  4.581557
C    -4.949470  -1.885276  4.143856
N    -5.266121  -3.198422  3.565542
C    -6.451277  -3.518690  2.988545
N    -6.613304  -4.736541  2.465176
N    -7.433632  -2.615928  2.902873
H    -1.523115  -2.158300  3.702191
H    -2.781815  -1.976081  2.506054
H    -3.411465  -0.997072  5.335162
H    -3.221049  -2.708899  5.138905
H    -5.190272  -1.112377  3.397047
H    -5.574397  -1.697211  5.032341
H    -4.735733  -3.987465  3.925653
H    -5.834409  -5.370787  2.328612
H    -7.530267  -5.078828  2.195284
H    -8.272098  -2.814495  2.365023
H    -7.487234  -1.825057  3.533647
N    -1.865782  1.688864  4.924690
C    -1.343312  2.465997  6.057147
H    -2.710112  2.050565  4.483533
H    -1.332474  3.525670  5.776917
H    -0.335102  2.127928  6.304493
H    -2.000383  2.333218  6.926830
Cd    1.049921  -1.175967  4.019822
