37
Energy: -175313.687677 eV PBE+vdW (tier 2 basis)
C    0.147726  0.498402  0.028805
C    0.195042  0.165256  1.475108
O    1.292231  0.260866  2.155103
H    -0.860444  0.476825  -0.389528
H    0.736927  -0.255132  -0.519937
H    0.622318  1.474761  -0.135259
N    -0.846480  -0.243850  2.207271
C    -2.318448  -0.339890  2.019002
C    -2.713986  -1.241733  0.811744
O    -2.585574  -0.837139  -0.346563
H    -0.559419  -0.473893  3.161903
H    -2.627836  -0.863190  2.933703
C    -3.121705  0.988361  2.047448
C    -3.094353  1.953603  0.854798
C    -4.130648  3.082894  1.086181
N    -4.127711  4.126266  0.062358
C    -5.140771  4.449618  -0.775674
N    -5.164671  5.668502  -1.322644
N    -6.103072  3.568211  -1.063451
H    -2.816008  1.512679  2.966790
H    -4.161731  0.671409  2.229529
H    -3.329628  1.428956  -0.083208
H    -2.096753  2.401425  0.732802
H    -3.927141  3.575526  2.050101
H    -5.145327  2.671659  1.163505
H    -3.358357  4.790178  0.091451
H    -5.782882  5.887454  -2.098188
H    -4.643858  6.443961  -0.926029
H    -6.948513  3.857312  -1.545554
H    -5.981975  2.575023  -0.912647
N    -3.242970  -2.443916  1.125903
C    -3.694178  -3.407725  0.131445
H    -3.273727  -2.730155  2.102207
H    -2.935230  -4.192512  -0.018307
H    -3.865293  -2.894846  -0.819580
H    -4.612339  -3.888824  0.491351
Cd    3.374442  0.051880  1.655794
