37
Energy: -175313.938435 eV PBE+vdW (tier 2 basis)
C    1.383013  1.119180  -1.466507
C    0.784539  2.159366  -0.583208
O    1.395074  3.261069  -0.300689
H    1.269694  1.442904  -2.513127
H    0.917662  0.134248  -1.363908
H    2.453561  1.007003  -1.247927
N    -0.429066  2.026501  -0.051910
C    -1.415066  0.967713  -0.311777
C    -1.905158  1.050417  -1.790994
O    -1.707715  2.062794  -2.456277
H    -0.743362  2.833864  0.486826
H    -0.914461  0.000683  -0.154661
C    -2.589133  1.044931  0.696003
C    -3.609018  2.183319  0.502924
C    -4.702049  2.113827  1.582612
N    -5.717576  3.150333  1.383253
C    -6.954886  3.150787  1.929229
N    -7.842439  4.067621  1.526865
N    -7.298001  2.237739  2.841052
H    -2.150953  1.079605  1.706331
H    -3.112653  0.079055  0.641584
H    -4.076842  2.112215  -0.490314
H    -3.116100  3.168474  0.549811
H    -4.244975  2.215842  2.582654
H    -5.202168  1.134041  1.541750
H    -5.434660  4.003773  0.910025
H    -8.712373  4.216942  2.028888
H    -7.707265  4.609820  0.680526
H    -8.261466  2.144079  3.147529
H    -6.605828  1.721317  3.370307
N    -2.555857  -0.042795  -2.270679
C    -3.042499  -0.135413  -3.637791
H    -2.558239  -0.896625  -1.714429
H    -2.295457  -0.615729  -4.292582
H    -3.237854  0.871548  -4.021299
H    -3.947369  -0.755431  -3.653859
Cd    3.399356  3.910983  -0.682704
