37
Energy: -175313.845172 eV PBE+vdW (tier 2 basis)
C    -0.511374  1.252753  0.227025
C    -0.298393  1.107548  1.699864
O    0.212321  2.051169  2.424814
H    0.454401  1.438713  -0.267258
H    -1.183113  2.104303  0.033325
H    -0.958810  0.365320  -0.233679
N    -0.630122  -0.030542  2.285625
C    -0.426421  -0.430211  3.689284
C    0.206983  -1.844332  3.578683
O    -0.262482  -2.601918  2.725109
H    -0.940782  -0.807892  1.691548
H    0.249877  0.292133  4.165919
C    -1.797947  -0.505306  4.412384
C    -1.754857  -1.039105  5.855620
C    -3.176417  -1.149255  6.435114
N    -3.158860  -1.617460  7.821853
C    -4.175952  -2.244029  8.457928
N    -3.957653  -2.764747  9.670998
N    -5.374141  -2.362377  7.881562
H    -2.456735  -1.142463  3.802752
H    -2.228803  0.506711  4.397128
H    -1.148889  -0.368625  6.486479
H    -1.286126  -2.033851  5.889805
H    -3.761861  -1.866462  5.841285
H    -3.681961  -0.169045  6.375184
H    -2.386158  -1.313037  8.408195
H    -4.725310  -3.079727  10.256620
H    -3.021075  -2.911970  10.031461
H    -5.667302  -1.756010  7.125091
H    -6.090083  -2.958111  8.286160
N    1.208688  -2.183492  4.415675
C    1.883782  -3.474653  4.359654
H    1.604107  -1.463993  5.017061
H    2.776366  -3.418573  3.715128
H    1.202145  -4.221847  3.939949
H    2.207970  -3.754431  5.368564
Cd    0.708366  4.026598  1.706190
