37
Energy: -175313.858025 eV PBE+vdW (tier 2 basis)
C    0.117296  -3.033183  -0.474732
C    0.261643  -1.627462  -0.011281
O    0.741036  -0.696013  -0.762239
H    -0.211934  -3.721892  0.307195
H    1.085533  -3.387720  -0.859195
H    -0.599030  -3.065543  -1.309044
N    -0.127219  -1.209140  1.198683
C    -1.014622  -1.844582  2.211645
C    -0.293927  -3.052040  2.898538
O    -0.721354  -4.201977  2.758023
H    0.066113  -0.216937  1.356792
H    -1.122803  -1.056942  2.972105
C    -2.423046  -2.194861  1.686934
C    -3.539592  -2.124771  2.752220
C    -3.787434  -3.350172  3.652506
N    -4.519345  -4.429787  2.984914
C    -4.212598  -5.751491  2.991913
N    -5.193401  -6.638875  2.799687
N    -2.950816  -6.148399  3.165087
H    -2.407415  -3.176781  1.193562
H    -2.668576  -1.450335  0.917157
H    -4.480253  -1.883273  2.236313
H    -3.364121  -1.267802  3.420168
H    -4.410044  -3.018047  4.500673
H    -2.869954  -3.761662  4.083404
H    -5.462657  -4.200329  2.675243
H    -4.993772  -7.619412  2.624713
H    -6.170133  -6.394497  2.932501
H    -2.167748  -5.504299  3.046816
H    -2.736489  -7.125218  3.338038
N    0.787882  -2.748972  3.643919
C    1.538614  -3.732169  4.417009
H    1.010898  -1.768032  3.800354
H    2.579262  -3.398562  4.498899
H    1.480348  -4.705992  3.920569
H    1.128293  -3.827663  5.434584
Cd    2.095835  -0.633333  -2.439112
