37
Energy: -175313.935268 eV PBE+vdW (tier 2 basis)
C    -1.992148  1.849506  1.907116
C    -1.183895  0.667420  1.495513
O    0.021597  0.787652  1.057087
H    -1.476706  2.397087  2.705396
H    -2.998909  1.604330  2.255232
H    -2.096027  2.509843  1.027760
N    -1.672972  -0.585339  1.451788
C    -2.656278  -1.136890  2.384982
C    -2.101490  -0.888774  3.852580
O    -1.277036  0.005872  4.018369
H    -0.996165  -1.263798  1.091661
H    -3.574651  -0.528706  2.328907
C    -2.946796  -2.606200  2.022267
C    -3.688934  -2.867246  0.688908
C    -5.217568  -2.965535  0.827781
N    -5.806038  -3.446253  -0.425759
C    -7.124964  -3.487687  -0.718670
N    -7.507808  -3.842981  -1.949568
N    -8.037824  -3.150242  0.197328
H    -3.527001  -3.066301  2.834770
H    -1.990592  -3.150844  2.015718
H    -3.319973  -3.828315  0.300674
H    -3.430075  -2.108068  -0.063865
H    -5.662833  -1.987989  1.070986
H    -5.459399  -3.664327  1.648424
H    -5.192127  -3.957161  -1.054563
H    -8.476889  -4.060082  -2.160771
H    -6.850963  -3.902780  -2.719982
H    -7.826333  -3.154517  1.187370
H    -9.018340  -3.066980  -0.052602
N    -2.601155  -1.627591  4.867311
C    -2.160941  -1.474033  6.246233
H    -3.225597  -2.402149  4.660569
H    -1.333235  -2.167836  6.472607
H    -2.997085  -1.713436  6.914182
H    -1.805084  -0.450426  6.402231
Cd    1.081192  2.535858  0.414683
