37
Energy: -175313.525216 eV PBE+vdW (tier 2 basis)
C    0.075855  1.584914  2.439685
C    0.062574  0.173080  1.964695
O    1.121589  -0.559454  1.922698
H    0.715568  1.669873  3.329085
H    -0.914057  1.970586  2.700260
H    0.510648  2.228187  1.658230
N    -1.045001  -0.417348  1.502972
C    -2.313944  0.226338  1.114560
C    -3.441284  0.141245  2.180397
O    -4.203347  1.125475  2.209399
H    -0.908117  -1.389028  1.214882
H    -2.119124  1.299792  1.019296
C    -2.794429  -0.309772  -0.263222
C    -3.710795  0.612023  -1.103615
C    -5.247007  0.493987  -0.991123
N    -5.850208  1.393343  -0.015227
C    -7.084281  1.942796  -0.108315
N    -7.427555  2.879854  0.786055
N    -7.937910  1.575773  -1.064213
H    -3.249434  -1.305544  -0.146939
H    -1.881792  -0.460625  -0.858282
H    -3.492398  0.359061  -2.150538
H    -3.413807  1.665632  -0.996080
H    -5.536253  -0.551260  -0.772759
H    -5.670822  0.737309  -1.975598
H    -5.328163  1.531852  0.862652
H    -8.376972  3.236921  0.844269
H    -6.735756  3.321207  1.382503
H    -8.804622  2.082635  -1.219232
H    -7.808348  0.730648  -1.607918
N    -3.624753  -0.919046  2.976775
C    -2.952428  -2.218910  3.003350
H    -4.406887  -0.801496  3.622292
H    -1.999287  -2.173194  3.545748
H    -2.799857  -2.617662  1.992865
H    -3.604691  -2.922151  3.530710
Cd    3.056513  -0.430029  2.873824
