37
Energy: -175314.752858 eV PBE+vdW (tier 2 basis)
C    0.152885  -0.601857  -0.185619
C    -0.286890  -0.736798  1.232206
O    0.599901  -0.567829  2.137319
H    0.944931  -1.336322  -0.390951
H    0.606989  0.391139  -0.321732
H    -0.663398  -0.728514  -0.905335
N    -1.580270  -1.012210  1.485971
C    -2.265047  -0.990588  2.789277
C    -2.017055  -2.299236  3.588322
O    -1.122985  -2.288682  4.522728
H    -2.165630  -1.145551  0.663545
H    -1.767678  -0.217780  3.398907
C    -3.743630  -0.547007  2.649474
C    -3.880773  0.965916  2.377174
C    -5.289791  1.454328  1.987656
N    -6.201326  1.627137  3.123648
C    -7.209248  2.529683  3.173714
N    -7.831983  2.748834  4.336481
N    -7.570432  3.213622  2.084379
H    -4.257675  -0.830453  3.580317
H    -4.230022  -1.117547  1.844666
H    -3.229772  1.239581  1.533187
H    -3.521752  1.545695  3.241081
H    -5.730681  0.778085  1.235560
H    -5.174161  2.439131  1.516087
H    -6.201446  0.930125  3.860648
H    -8.712776  3.252017  4.375134
H    -7.418426  2.485812  5.223569
H    -8.193969  4.011901  2.156835
H    -7.374339  2.879456  1.148446
N    -2.671650  -3.426153  3.400346
C    -3.752520  -3.772087  2.469317
H    -2.375271  -4.177471  4.030677
H    -4.732361  -3.533114  2.901319
H    -3.704389  -4.852227  2.296488
H    -3.623245  -3.266759  1.508320
Cd    0.659886  -1.201276  4.158840
