37
Energy: -175313.679188 eV PBE+vdW (tier 2 basis)
C    1.116827  -0.859812  0.660023
C    0.471601  -0.167741  1.817961
O    1.097224  0.056203  2.931222
H    0.450117  -0.970217  -0.201992
H    1.437179  -1.867348  0.967177
H    1.998441  -0.287187  0.330821
N    -0.785259  0.223110  1.711316
C    -1.646586  0.832469  2.741997
C    -2.984287  0.062145  2.577023
O    -3.311895  -0.212452  1.415012
H    -1.309837  -0.032985  0.864918
H    -1.178997  0.677884  3.721740
C    -1.852295  2.339158  2.422465
C    -2.849200  3.085466  3.327979
C    -3.062203  4.524743  2.825824
N    -3.971961  5.271989  3.695961
C    -4.726505  6.333104  3.326265
N    -5.633722  6.812703  4.185024
N    -4.588136  6.884121  2.118302
H    -2.186067  2.405461  1.375575
H    -0.864499  2.820031  2.472882
H    -2.474332  3.106415  4.363902
H    -3.823662  2.574613  3.341486
H    -3.500405  4.499964  1.817387
H    -2.091511  5.047281  2.759205
H    -3.919629  5.088367  4.694538
H    -6.089927  7.706288  4.027227
H    -5.935857  6.285685  4.997363
H    -5.251338  7.575578  1.781506
H    -3.749878  6.756824  1.564283
N    -3.759843  -0.265951  3.630047
C    -3.495824  -0.154354  5.055279
H    -4.606642  -0.772984  3.357900
H    -4.403645  0.200660  5.561045
H    -2.679760  0.543758  5.257709
H    -3.246101  -1.139934  5.478421
Cd    3.162896  -0.444255  3.293854
