37
Energy: -175315.064144 eV PBE+vdW (tier 2 basis)
C    -0.572535  -0.439907  0.560705
C    -0.298851  -0.341838  2.022388
O    0.789905  0.229414  2.375996
H    0.254425  -0.968528  0.066572
H    -0.584515  0.578399  0.141500
H    -1.522979  -0.932984  0.329908
N    -1.207081  -0.832396  2.887290
C    -1.326854  -0.573774  4.335232
C    -0.562729  -1.634202  5.164638
O    0.723515  -1.626565  5.204784
H    -1.994879  -1.307568  2.453081
H    -0.771980  0.360136  4.531155
C    -2.788541  -0.239519  4.740050
C    -3.950865  -1.171528  4.333922
C    -5.293467  -0.556959  4.784306
N    -6.429724  -1.389851  4.387262
C    -7.649343  -1.380068  4.977342
N    -8.546655  -2.305702  4.628490
N    -7.945993  -0.480199  5.920567
H    -2.986975  0.755851  4.315440
H    -2.785799  -0.092438  5.831181
H    -3.866971  -2.182768  4.762162
H    -3.980984  -1.302081  3.239185
H    -5.386774  0.458185  4.362258
H    -5.304986  -0.467382  5.880208
H    -6.388278  -1.836480  3.475652
H    -8.285139  -3.142468  4.119023
H    -9.525753  -2.212986  4.880740
H    -8.794714  -0.570524  6.471230
H    -7.469324  0.411919  5.977985
N    -1.198558  -2.545228  5.867093
C    -0.539867  -3.561464  6.705527
H    -2.213659  -2.553769  5.826012
H    -1.300961  -4.038179  7.328164
H    0.213911  -3.084960  7.341684
H    -0.055804  -4.316345  6.073367
Cd    1.905780  -0.256245  4.102901
