37
Energy: -175314.972298 eV PBE+vdW (tier 2 basis)
C    -0.069119  0.104357  -0.141045
C    -0.060528  -0.324528  1.286848
O    1.059890  -0.283328  1.901391
H    0.613649  -0.538145  -0.715528
H    0.335917  1.125076  -0.206616
H    -1.066325  0.079361  -0.593983
N    -1.217620  -0.714671  1.852711
C    -1.477605  -0.992811  3.275274
C    -1.000074  -2.415971  3.679321
O    0.136533  -2.534681  4.285905
H    -2.025133  -0.721138  1.232571
H    -0.822404  -0.324620  3.858427
C    -2.931382  -0.641918  3.671804
C    -3.191935  0.869982  3.826402
C    -4.671425  1.149908  4.164937
N    -4.980549  2.581683  4.235770
C    -5.616102  3.227448  5.241105
N    -6.287273  4.350036  4.971586
N    -5.572020  2.767638  6.496824
H    -3.145017  -1.152075  4.623322
H    -3.630155  -1.068537  2.937030
H    -2.932697  1.397805  2.895051
H    -2.547726  1.288187  4.614531
H    -4.949185  0.684494  5.118917
H    -5.323900  0.695458  3.402386
H    -4.945525  3.091119  3.357002
H    -6.585992  4.585524  4.031183
H    -6.567363  4.988252  5.710053
H    -6.181337  3.152768  7.211322
H    -4.847157  2.136071  6.811126
N    -1.683686  -3.522482  3.474598
C    -3.002153  -3.749883  2.870119
H    -1.209747  -4.360676  3.824682
H    -3.173050  -3.072887  2.028568
H    -3.798357  -3.644352  3.617731
H    -3.016491  -4.777050  2.491318
Cd    1.729041  -1.300413  3.636359
