37
Energy: -175315.008202 eV PBE+vdW (tier 2 basis)
C    0.540240  -1.398321  -0.591042
C    0.039293  -1.114933  0.783620
O    0.908392  -0.794244  1.665465
H    1.287772  -2.202951  -0.547965
H    1.063179  -0.504903  -0.965264
H    -0.256625  -1.668608  -1.292825
N    -1.283431  -1.195720  1.020695
C    -2.012109  -0.736517  2.215986
C    -1.931712  -1.779042  3.363519
O    -1.095151  -1.569877  4.326204
H    -1.850360  -1.461941  0.217399
H    -1.464371  0.133944  2.614584
C    -3.411390  -0.215048  1.811658
C    -4.235145  0.395723  2.960743
C    -5.544193  1.012171  2.430671
N    -6.325130  1.614850  3.512876
C    -7.243392  2.596885  3.363881
N    -7.744277  3.191187  4.450725
N    -7.628621  2.993983  2.146544
H    -3.984908  -1.008808  1.313057
H    -3.225219  0.556904  1.048852
H    -3.654340  1.178111  3.472282
H    -4.472331  -0.373662  3.713696
H    -6.136030  0.240801  1.908810
H    -5.307083  1.803119  1.704448
H    -6.319452  1.147439  4.414577
H    -8.575782  3.771094  4.398963
H    -7.301533  3.109033  5.359001
H    -8.190302  3.831853  2.030143
H    -7.550914  2.390126  1.337175
N    -2.669938  -2.867886  3.434998
C    -3.707000  -3.388363  2.535612
H    -2.473572  -3.438912  4.262267
H    -4.686829  -2.954141  2.771212
H    -3.764383  -4.470515  2.691514
H    -3.449572  -3.209193  1.488115
Cd    0.804223  -0.788634  3.777804
