37
Energy: -175314.026074 eV PBE+vdW (tier 2 basis)
C    0.493343  0.432629  0.823059
C    -0.095700  0.053426  2.131566
O    0.703999  -0.191663  3.104282
H    1.495497  0.845462  0.998795
H    -0.123819  1.149426  0.275390
H    0.639087  -0.472768  0.208686
N    -1.433925  -0.028361  2.366905
C    -2.491286  -0.710603  1.594224
C    -2.284615  -2.245631  1.784218
O    -1.559326  -2.735005  2.728842
H    -1.669990  0.088882  3.353734
H    -3.411585  -0.486135  2.159385
C    -2.715506  -0.162291  0.157481
C    -4.161509  -0.343640  -0.374137
C    -4.674401  0.761457  -1.321104
N    -4.205535  0.644541  -2.704781
C    -4.897568  1.072294  -3.789189
N    -4.467626  0.735885  -5.009536
N    -6.007513  1.801481  -3.649895
H    -1.973901  -0.579905  -0.537824
H    -2.517143  0.916396  0.232245
H    -4.859414  -0.336081  0.476955
H    -4.300054  -1.311347  -0.882877
H    -4.422075  1.751024  -0.903530
H    -5.769398  0.683269  -1.344737
H    -3.229766  0.421291  -2.870946
H    -4.829992  1.193902  -5.839976
H    -3.824997  -0.033677  -5.157803
H    -6.624040  1.964348  -4.440479
H    -6.199372  2.338638  -2.812601
N    -2.936682  -3.084424  1.008594
C    -2.914218  -4.550523  1.152204
H    -3.550869  -2.693586  0.298312
H    -3.469066  -4.983765  0.316413
H    -3.387713  -4.843785  2.097265
H    -1.881068  -4.914081  1.133874
Cd    -0.035020  -1.987096  4.029464
