37
Energy: -175315.078460 eV PBE+vdW (tier 2 basis)
C    1.123672  -1.415922  2.717977
C    0.597983  -0.045316  2.446415
O    1.427507  0.924160  2.576100
H    0.346832  -2.187968  2.731408
H    1.652604  -1.410224  3.681534
H    1.876035  -1.667123  1.955017
N    -0.691545  0.080613  2.095248
C    -1.597882  1.254941  1.957782
C    -1.364881  2.078245  0.669659
O    -0.398522  2.917802  0.521381
H    -1.168603  -0.813935  2.003660
H    -2.582695  0.785880  1.826775
C    -1.704383  2.145705  3.221930
C    -2.473329  1.468721  4.375527
C    -2.795324  2.449382  5.521162
N    -3.719493  1.857864  6.496595
C    -3.677850  1.980879  7.844095
N    -4.811690  1.876576  8.541589
N    -2.523107  2.188599  8.487242
H    -2.232220  3.063986  2.919929
H    -0.708512  2.462449  3.569068
H    -1.916394  0.606480  4.769836
H    -3.422892  1.074314  3.978356
H    -3.251990  3.366086  5.113497
H    -1.881589  2.763265  6.039704
H    -4.620270  1.564501  6.127173
H    -5.722592  1.988913  8.109558
H    -4.802170  1.714613  9.544083
H    -2.516402  2.425625  9.474102
H    -1.630257  1.959058  8.071297
N    -2.257461  1.962960  -0.292293
C    -2.250077  2.684735  -1.571755
H    -3.050246  1.342560  -0.133379
H    -2.475584  1.972487  -2.373840
H    -1.272529  3.143277  -1.733654
H    -3.025150  3.462650  -1.555471
Cd    1.438010  2.741163  1.518694
