37
Energy: -175313.664267 eV PBE+vdW (tier 2 basis)
C    2.485139  1.481402  1.107800
C    1.484446  1.168238  2.179559
O    1.712356  1.363898  3.380663
H    2.553694  2.576636  1.017876
H    2.235048  1.056674  0.130263
H    3.473116  1.130997  1.431771
N    0.264442  0.651812  1.776391
C    -0.750359  0.083934  2.645983
C    -1.454992  1.180714  3.521879
O    -2.730858  1.198607  3.406655
H    0.120225  0.550144  0.774347
H    -1.539021  -0.295135  1.983368
C    -0.264856  -1.069361  3.584572
C    0.352159  -2.296149  2.880392
C    -0.639907  -3.393136  2.456741
N    0.090695  -4.546786  1.923745
C    -0.288737  -5.843630  1.988198
N    -1.530947  -6.175360  2.350472
N    0.605580  -6.794820  1.698531
H    -1.119816  -1.370197  4.208333
H    0.486356  -0.655027  4.268273
H    1.063867  -2.741110  3.590978
H    0.950521  -1.974455  2.013474
H    -1.355501  -3.020740  1.703140
H    -1.215336  -3.730860  3.330982
H    0.947457  -4.358057  1.409752
H    -1.774855  -7.142082  2.544154
H    -2.301586  -5.523540  2.269414
H    1.602669  -6.607101  1.677589
H    0.321382  -7.757362  1.540921
N    -0.723167  1.949340  4.294081
C    -1.209823  3.006662  5.168756
H    0.312193  1.795344  4.189343
H    -0.348528  3.470075  5.665751
H    -1.855099  2.606418  5.968172
H    -1.704023  3.813764  4.599003
Cd    -4.215052  2.526351  4.267502
