37
Energy: -175314.722711 eV PBE+vdW (tier 2 basis)
C    -1.739756  1.322897  1.407729
C    -1.032472  0.438999  2.380051
O    -0.567234  -0.662708  1.920980
H    -2.526851  0.737912  0.908803
H    -1.036116  1.627636  0.619092
H    -2.185604  2.211857  1.867037
N    -0.940740  0.846076  3.658392
C    -0.543521  0.156619  4.918816
C    0.988987  0.012278  5.073510
O    1.681766  -0.879127  4.454809
H    -1.321621  1.778235  3.805155
H    -0.856843  0.866868  5.696624
C    -1.294933  -1.173278  5.184123
C    -2.831914  -1.030786  5.307694
C    -3.402244  -0.708621  6.704626
N    -3.639565  -1.909090  7.513478
C    -4.652589  -2.075513  8.394781
N    -4.936553  -3.303404  8.839855
N    -5.377496  -1.031320  8.808248
H    -0.858010  -1.610114  6.095547
H    -1.083141  -1.895277  4.381390
H    -3.304156  -1.954480  4.946385
H    -3.182769  -0.249743  4.618275
H    -4.372638  -0.213592  6.568411
H    -2.751032  -0.002782  7.249362
H    -2.970330  -2.670087  7.461264
H    -4.628574  -4.136276  8.350666
H    -5.532309  -3.445119  9.649659
H    -6.242965  -1.172111  9.320527
H    -5.023255  -0.083176  8.775230
N    1.593507  0.808176  5.932063
C    3.029184  0.817918  6.244820
H    1.018844  1.473027  6.447728
H    3.177152  0.472754  7.276381
H    3.400134  1.846103  6.156116
H    3.562928  0.161063  5.555586
Cd    1.113728  -1.717810  2.611789
