37
Energy: -175314.047712 eV PBE+vdW (tier 2 basis)
C    0.540942  0.967675  -0.118831
C    0.429964  0.784622  1.346044
O    1.495297  0.825530  2.062576
H    1.015551  1.929187  -0.361325
H    -0.411087  0.847433  -0.643847
H    1.240212  0.195523  -0.487219
N    -0.753269  0.526579  1.964595
C    -2.001095  1.290610  1.828490
C    -1.784331  2.605481  2.628627
O    -1.003605  2.618542  3.662839
H    -0.650690  0.082702  2.880071
H    -2.150298  1.526790  0.766516
C    -3.176932  0.412111  2.344684
C    -4.592926  0.932490  2.041908
C    -5.715219  -0.114819  2.157486
N    -6.039344  -0.485192  3.541834
C    -6.817842  -1.546108  3.874407
N    -7.052020  -1.803623  5.164982
N    -7.316355  -2.351152  2.932911
H    -3.045294  0.239483  3.424637
H    -3.038202  -0.561351  1.850219
H    -4.640649  1.278503  0.999178
H    -4.840491  1.806055  2.665197
H    -5.417955  -1.027237  1.620001
H    -6.605865  0.296592  1.654923
H    -6.030941  0.267486  4.225074
H    -6.532505  -1.347466  5.905554
H    -7.762729  -2.469580  5.450707
H    -7.408719  -2.057717  1.967910
H    -7.777693  -3.220586  3.183054
N    -2.397335  3.729207  2.315037
C    -3.342493  4.042367  1.238554
H    -2.165394  4.512152  2.934444
H    -3.023611  4.980583  0.768407
H    -4.349359  4.185388  1.650309
H    -3.361314  3.253847  0.483138
Cd    1.039504  1.964906  3.828492
