37
Energy: -175314.976296 eV PBE+vdW (tier 2 basis)
C    0.949633  -1.469204  2.218937
C    0.533138  -0.038181  2.135445
O    1.471809  0.832795  2.155162
H    1.603834  -1.595625  3.094083
H    1.560665  -1.717732  1.338553
H    0.108412  -2.167193  2.290163
N    -0.780750  0.236359  2.054496
C    -1.564314  1.497981  2.175840
C    -1.495212  2.384093  0.908567
O    -0.489400  3.135565  0.625045
H    -1.356745  -0.599780  1.988868
H    -2.601641  1.140891  2.230996
C    -1.276908  2.303147  3.468216
C    -1.712547  1.627079  4.790928
C    -3.176970  1.909728  5.190845
N    -3.570575  1.250864  6.438595
C    -3.878263  1.847796  7.612755
N    -4.627431  1.190556  8.501060
N    -3.446026  3.083230  7.892334
H    -1.770788  3.281489  3.360819
H    -0.201018  2.521066  3.542753
H    -1.052186  1.989374  5.590825
H    -1.541740  0.540595  4.743145
H    -3.875574  1.572236  4.409622
H    -3.347511  2.988952  5.302516
H    -3.782327  0.258891  6.387115
H    -5.199197  0.394451  8.239167
H    -4.684435  1.491501  9.469238
H    -3.814062  3.590737  8.690802
H    -2.634219  3.482131  7.439178
N    -2.553402  2.412662  0.124227
C    -2.703698  3.211528  -1.099948
H    -3.359995  1.851206  0.393070
H    -3.059302  2.556527  -1.904132
H    -1.745468  3.658688  -1.370583
H    -3.446135  4.001669  -0.927532
Cd    1.468349  2.748928  1.287830
