37
Energy: -175314.991252 eV PBE+vdW (tier 2 basis)
C    0.586417  -1.567941  -0.561042
C    0.067770  -1.292748  0.808660
O    0.932688  -1.097062  1.730326
H    1.201548  -0.712923  -0.881231
H    -0.207888  -1.734293  -1.297218
H    1.254960  -2.439738  -0.529910
N    -1.264060  -1.249337  1.000901
C    -1.984476  -0.760955  2.189697
C    -2.056179  -1.847815  3.295970
O    -1.235832  -1.765979  4.291472
H    -1.825835  -1.425119  0.169591
H    -1.362962  0.030378  2.641443
C    -3.304334  -0.076713  1.761846
C    -4.102603  0.571644  2.908314
C    -5.272849  1.409570  2.358092
N    -6.019998  2.051812  3.441587
C    -7.290619  2.507836  3.351976
N    -7.915555  2.917810  4.459388
N    -7.930814  2.520570  2.177907
H    -3.939619  -0.783036  1.209609
H    -3.008071  0.700917  1.040579
H    -3.437722  1.225429  3.496047
H    -4.495798  -0.190524  3.598108
H    -5.967680  0.760933  1.804606
H    -4.882633  2.165373  1.655237
H    -5.492482  2.369987  4.249324
H    -8.775232  3.455523  4.412135
H    -7.569585  2.691578  5.385095
H    -8.926940  2.713074  2.134949
H    -7.431244  2.546798  1.297201
N    -2.908723  -2.852026  3.301239
C    -3.963778  -3.223100  2.350629
H    -2.804304  -3.470385  4.110997
H    -4.898979  -2.694584  2.574709
H    -4.141500  -4.297885  2.459823
H    -3.652874  -3.033497  1.319567
Cd    0.753781  -1.171570  3.836379
