37
Energy: -175313.377784 eV PBE+vdW (tier 2 basis)
C    -0.670805  1.013127  1.552248
C    0.048046  -0.185305  2.058156
O    1.327510  -0.299080  1.943279
H    -1.742523  1.009032  1.749221
H    -0.525071  1.089804  0.465952
H    -0.228110  1.906189  2.026623
N    -0.531080  -1.238536  2.659132
C    -1.914104  -1.744869  2.647503
C    -2.329735  -2.083244  1.173732
O    -2.294188  -1.167638  0.350228
H    0.158608  -1.925257  2.972136
H    -1.836671  -2.680196  3.216485
C    -2.976858  -0.846448  3.332285
C    -4.198746  -1.677451  3.773529
C    -5.250042  -0.928619  4.608457
N    -6.132357  -0.075656  3.805005
C    -7.021012  0.807383  4.324418
N    -7.768823  1.542296  3.493901
N    -7.130516  0.967015  5.644730
H    -3.285839  -0.034145  2.661638
H    -2.504789  -0.389136  4.213978
H    -3.856460  -2.508240  4.408120
H    -4.690591  -2.146178  2.905340
H    -4.757782  -0.302309  5.368061
H    -5.849849  -1.687734  5.139476
H    -6.328528  -0.386752  2.856952
H    -8.557789  2.084724  3.832004
H    -7.582856  1.583737  2.498241
H    -6.789766  0.273141  6.299554
H    -7.704008  1.708744  6.034891
N    -2.713937  -3.337238  0.866968
C    -2.649533  -4.553072  1.677664
H    -2.937267  -3.456537  -0.123234
H    -3.159099  -5.349576  1.126110
H    -3.160162  -4.427613  2.639267
H    -1.611594  -4.877110  1.845457
Cd    2.867134  1.186534  1.735096
