37
Energy: -175315.115624 eV PBE+vdW (tier 2 basis)
C    -1.417213  0.461645  0.422536
C    -0.977533  -0.075095  1.743078
O    -0.592033  -1.298473  1.766111
H    -0.588371  0.385608  -0.295741
H    -1.776230  1.495558  0.468347
H    -2.222425  -0.181822  0.036017
N    -1.025781  0.738883  2.810172
C    -0.951489  0.495209  4.281354
C    0.499995  0.319908  4.786067
O    1.165119  -0.775274  4.659305
H    -1.320280  1.685006  2.575465
H    -1.302794  1.449102  4.698048
C    -1.940155  -0.587444  4.780982
C    -2.294582  -0.442935  6.274553
C    -3.470060  -1.353147  6.677764
N    -3.846107  -1.127642  8.075562
C    -4.560978  -1.980702  8.844348
N    -4.684016  -1.733562  10.151245
N    -5.112692  -3.078215  8.314555
H    -1.562238  -1.603810  4.582165
H    -2.850302  -0.481424  4.172581
H    -2.578150  0.604845  6.468998
H    -1.425129  -0.666272  6.910930
H    -3.185714  -2.409997  6.567441
H    -4.327207  -1.159536  6.010198
H    -3.744313  -0.184960  8.440120
H    -4.087264  -1.068328  10.630124
H    -5.374747  -2.216263  10.717308
H    -5.518837  -3.791127  8.912883
H    -5.342705  -3.136409  7.329949
N    1.053318  1.335737  5.416936
C    2.416597  1.378910  5.962393
H    0.487589  2.172206  5.555009
H    2.991790  0.529323  5.589476
H    2.373443  1.343926  7.058792
H    2.884987  2.321152  5.654772
Cd    0.814507  -2.125578  3.080158
