37
Energy: -175313.755468 eV PBE+vdW (tier 2 basis)
C    -0.207332  1.266946  2.873743
C    -0.019672  -0.049141  2.202603
O    1.138558  -0.559270  1.967913
H    0.532528  1.383987  3.677308
H    -1.202695  1.398381  3.308946
H    -0.030664  2.076211  2.146975
N    -1.049995  -0.773485  1.746138
C    -2.434489  -0.325431  1.541218
C    -3.448564  -0.789192  2.642937
O    -4.343055  0.040833  2.874913
H    -0.776297  -1.660776  1.317067
H    -2.444187  0.765763  1.628216
C    -2.943982  -0.705272  0.128092
C    -4.273670  -0.041868  -0.291889
C    -5.547308  -0.875204  0.011780
N    -6.774491  -0.166296  -0.326414
C    -7.510767  0.607656  0.507580
N    -8.679023  1.088436  0.067500
N    -7.079111  0.882495  1.738961
H    -2.999013  -1.800008  0.019886
H    -2.169703  -0.364925  -0.575651
H    -4.238952  0.119115  -1.377823
H    -4.358915  0.957136  0.159699
H    -5.603655  -1.177210  1.065301
H    -5.538315  -1.796743  -0.585246
H    -7.107693  -0.247827  -1.284276
H    -9.231200  1.735572  0.622408
H    -9.097793  0.772912  -0.801961
H    -7.678386  1.368077  2.398604
H    -6.151692  0.620378  2.070131
N    -3.395519  -1.988166  3.228393
C    -2.486592  -3.115109  3.004960
H    -4.120756  -2.125979  3.932848
H    -2.946133  -4.004057  3.448839
H    -1.515818  -2.962008  3.492787
H    -2.355863  -3.324966  1.936316
Cd    3.101194  -0.241754  2.821076
