37
Energy: -175314.228992 eV PBE+vdW (tier 2 basis)
C    1.351384  -3.341280  3.576356
C    0.678171  -2.148397  4.162787
O    0.901245  -1.896514  5.395306
H    1.099150  -3.502221  2.522266
H    1.085195  -4.233229  4.161085
H    2.440454  -3.216802  3.674035
N    -0.119869  -1.395974  3.378315
C    -0.697060  -0.103391  3.757961
C    -1.904357  -0.256976  4.726808
O    -1.744122  0.172611  5.937809
H    -0.195749  -1.695998  2.409162
H    0.053389  0.379700  4.405532
C    -0.805786  0.919620  2.588591
C    -1.676907  0.635993  1.353011
C    -1.378164  1.551728  0.148578
N    -1.830969  2.934866  0.345441
C    -1.446383  3.978157  -0.433787
N    -1.893505  5.203799  -0.145867
N    -0.602473  3.797316  -1.453105
H    0.235912  1.069288  2.262884
H    -1.105585  1.870933  3.052155
H    -2.746991  0.700987  1.596221
H    -1.514772  -0.385160  0.974524
H    -1.865628  1.110705  -0.736119
H    -0.294503  1.571163  -0.038683
H    -2.728007  3.057567  0.807900
H    -1.785103  5.973249  -0.799181
H    -2.348930  5.415846  0.734347
H    -0.202140  4.592513  -1.942043
H    -0.476834  2.893653  -1.893059
N    -3.071555  -0.790678  4.430802
C    -3.582843  -1.410603  3.208185
H    -3.721401  -0.796379  5.223968
H    -4.358850  -0.779236  2.757573
H    -4.039674  -2.369836  3.482971
H    -2.782180  -1.593492  2.491121
Cd    0.065304  -0.542101  6.813104
