37
Energy: -175314.239647 eV PBE+vdW (tier 2 basis)
C    -0.598841  2.200711  0.835006
C    -0.943716  1.589393  2.148336
O    -1.387750  2.347733  3.087171
H    -1.518113  2.649845  0.424014
H    -0.201122  1.487538  0.104940
H    0.109596  3.028271  0.973850
N    -0.825673  0.260127  2.291596
C    -1.410880  -0.670566  3.278466
C    -1.120444  -0.345057  4.747969
O    -0.128744  0.405316  5.095355
H    -0.484532  -0.210024  1.454671
H    -2.506240  -0.607350  3.156141
C    -1.002716  -2.125659  2.902961
C    0.468294  -2.529832  3.113918
C    0.710286  -3.953728  2.576874
N    2.092172  -4.385610  2.797762
C    2.514815  -5.670341  2.809024
N    3.764360  -5.943043  3.196741
N    1.688082  -6.664196  2.467432
H    -1.294447  -2.263184  1.848928
H    -1.655873  -2.806638  3.464551
H    0.730093  -2.496103  4.182218
H    1.143314  -1.827060  2.598822
H    0.460954  -3.988616  1.502387
H    0.047940  -4.660882  3.097834
H    2.820298  -3.679578  2.746914
H    4.329263  -5.267765  3.699045
H    4.183644  -6.851296  3.024899
H    1.951591  -7.632355  2.623331
H    0.881146  -6.509500  1.875098
N    -1.873221  -0.885557  5.691240
C    -3.043397  -1.766026  5.596690
H    -1.568230  -0.657800  6.641269
H    -2.745083  -2.816227  5.716032
H    -3.563895  -1.634016  4.643035
H    -3.729369  -1.507986  6.411073
Cd    -0.388206  2.514821  4.934349
