37
Energy: -175313.591640 eV PBE+vdW (tier 2 basis)
C    -2.205274  -1.732212  0.691765
C    -1.341586  -1.329638  1.849019
O    -0.094718  -1.306158  1.769278
H    -3.267596  -1.528157  0.868308
H    -2.068137  -2.808905  0.514057
H    -1.877453  -1.210561  -0.215169
N    -1.926816  -0.997680  3.025933
C    -1.095809  -0.673541  4.179406
C    -1.690340  -1.296122  5.453144
O    -2.976950  -1.304000  5.503202
H    -2.939418  -0.968759  3.102287
H    -0.127974  -1.166377  3.985349
C    -0.891341  0.851575  4.397822
C    -0.227168  1.602676  3.225584
C    1.289418  1.339362  3.070898
N    1.870737  2.090609  1.965673
C    2.333156  1.590019  0.791168
N    3.075291  2.387784  0.014160
N    2.054716  0.340951  0.421916
H    -0.314418  1.006763  5.322614
H    -1.876578  1.309811  4.568569
H    -0.382705  2.675618  3.409344
H    -0.740969  1.380299  2.280434
H    1.511118  0.277120  2.920478
H    1.814341  1.656204  3.986195
H    1.960463  3.097359  2.090877
H    3.492778  3.244397  0.366228
H    3.330882  2.118239  -0.931879
H    1.326226  -0.217024  0.870348
H    2.529721  -0.077139  -0.372158
N    -0.900407  -1.737576  6.409098
C    0.573336  -1.798368  6.414109
H    -1.350501  -2.074798  7.260172
H    0.878461  -2.401405  7.274260
H    1.004888  -0.796202  6.520435
H    0.942682  -2.287171  5.505801
Cd    -4.518922  -1.931550  6.930355
