37
Energy: -175313.385217 eV PBE+vdW (tier 2 basis)
C    0.955851  -0.228521  0.589799
C    0.188039  0.538389  1.623892
O    0.757349  1.171704  2.538377
H    1.778375  0.386129  0.205814
H    0.324926  -0.559645  -0.243094
H    1.406260  -1.107577  1.073883
N    -1.167005  0.530752  1.580859
C    -1.926230  1.205884  2.626780
C    -3.141793  0.355207  3.031033
O    -3.714302  -0.267721  2.060624
H    -1.651373  0.055244  0.824934
H    -1.245536  1.251746  3.493732
C    -2.402827  2.632340  2.236285
C    -1.279505  3.628087  1.881096
C    -0.472076  4.145134  3.095195
N    0.560355  5.097603  2.707327
C    1.903535  4.899611  2.726500
N    2.700376  5.966703  2.594620
N    2.414080  3.677918  2.871303
H    -3.025090  3.037340  3.049385
H    -3.059894  2.547424  1.358366
H    -1.760633  4.484103  1.386195
H    -0.596225  3.194338  1.138282
H    0.002264  3.330274  3.653187
H    -1.146641  4.668514  3.791387
H    0.246663  6.018819  2.406865
H    2.355080  6.914381  2.716216
H    3.703233  5.866595  2.463109
H    1.856327  2.830061  2.756449
H    3.407205  3.554065  3.042615
N    -3.548553  0.330889  4.282504
C    -2.925387  0.982068  5.450426
H    -4.397927  -0.197590  4.482328
H    -3.454034  0.638000  6.344007
H    -3.022814  2.072116  5.388432
H    -1.873281  0.688726  5.540272
Cd    -5.461273  -1.566698  1.802384
