37
Energy: -175313.988672 eV PBE+vdW (tier 2 basis)
C    -1.036744  -2.033047  0.896802
C    -0.542314  -0.881108  1.703937
O    0.545969  -0.959237  2.403736
H    -0.345248  -2.209171  0.057244
H    -2.036230  -1.888274  0.478587
H    -1.049630  -2.937333  1.519815
N    -1.181679  0.276664  1.788988
C    -2.437866  0.707782  1.167868
C    -2.230747  2.236307  0.953402
O    -1.504969  2.843233  1.743592
H    -0.719637  1.036641  2.311165
H    -2.552244  0.190130  0.208521
C    -3.713380  0.451404  2.021198
C    -3.832920  1.228796  3.342675
C    -5.193181  0.971145  4.015277
N    -5.341130  1.787684  5.222231
C    -6.260326  1.595891  6.195520
N    -6.191641  2.335135  7.308659
N    -7.211734  0.668562  6.061847
H    -3.766285  -0.633138  2.205995
H    -4.572254  0.687039  1.373851
H    -3.731437  2.308863  3.152817
H    -3.025708  0.950148  4.035963
H    -5.287631  -0.087805  4.300067
H    -6.003624  1.203436  3.301861
H    -4.823746  2.661979  5.259187
H    -6.952499  2.351576  7.980957
H    -5.367785  2.878990  7.541505
H    -7.819848  0.430152  6.839207
H    -7.467339  0.289628  5.158122
N    -2.872835  2.866984  -0.059305
C    -3.605592  2.315972  -1.186952
H    -2.635677  3.861687  -0.112392
H    -4.407301  3.016072  -1.457315
H    -4.048219  1.344688  -0.948540
H    -2.951736  2.212285  -2.068767
Cd    2.316640  -2.132933  2.181823
