37
Energy: -175313.867797 eV PBE+vdW (tier 2 basis)
C    0.627578  0.178285  1.960761
C    -0.136919  -1.091376  2.099019
O    0.449635  -2.235291  2.025003
H    0.013200  1.078433  1.996152
H    1.173429  0.178874  1.009194
H    1.357826  0.220504  2.788484
N    -1.453466  -1.175464  2.368171
C    -2.553862  -0.274238  1.994453
C    -2.477819  0.033108  0.454799
O    -1.380867  0.159244  -0.081308
H    -1.746883  -2.144409  2.509196
H    -3.452843  -0.879516  2.177677
C    -2.710795  1.042747  2.800432
C    -2.938242  0.804524  4.308101
C    -3.756619  1.879784  5.040124
N    -3.067695  3.165964  5.189919
C    -3.680130  4.319736  5.555160
N    -2.964755  5.448793  5.604549
N    -4.985300  4.341468  5.833406
H    -3.588451  1.547363  2.368964
H    -1.866015  1.719731  2.619388
H    -1.980127  0.639808  4.824810
H    -3.508065  -0.125934  4.451727
H    -4.017137  1.474710  6.033362
H    -4.697324  2.060606  4.498488
H    -2.064437  3.136104  5.350137
H    -3.333288  6.289097  6.039271
H    -2.045382  5.519787  5.184128
H    -5.474673  5.221432  5.966371
H    -5.493773  3.503114  6.088843
N    -3.655496  0.164118  -0.192993
C    -3.748912  0.427794  -1.623137
H    -4.514656  -0.082098  0.294749
H    -3.820381  -0.514208  -2.191466
H    -4.657405  1.011016  -1.816096
H    -2.854267  0.966636  -1.951626
Cd    2.521923  -2.798077  2.177121
