37
Energy: -175313.852737 eV PBE+vdW (tier 2 basis)
C    -0.422064  1.719205  0.711525
C    -0.446019  0.550032  1.646536
O    0.592864  0.035741  2.111094
H    -1.409228  2.017054  0.343775
H    0.223524  1.486026  -0.146408
H    0.043056  2.570333  1.230396
N    -1.677492  0.049337  1.983185
C    -1.982911  -1.149722  2.746757
C    -1.563621  -1.054715  4.251070
O    -2.514809  -1.391309  5.042677
H    -2.482886  0.539962  1.597737
H    -3.079175  -1.174705  2.796518
C    -1.604562  -2.540652  2.126943
C    -0.149668  -2.922913  1.796360
C    0.237023  -2.679845  0.317657
N    1.555463  -3.204203  -0.025198
C    2.706787  -2.500275  -0.129273
N    2.784562  -1.245681  0.321780
N    3.766087  -3.087650  -0.697071
H    -2.233056  -2.621743  1.226586
H    -2.018756  -3.279716  2.827416
H    -0.042486  -3.998574  1.999200
H    0.574858  -2.422792  2.452625
H    0.206757  -1.617753  0.046662
H    -0.482259  -3.194071  -0.335907
H    1.611137  -4.195658  -0.247705
H    3.600420  -0.678332  0.115490
H    2.081568  -0.835042  0.935626
H    3.679259  -3.940999  -1.241104
H    4.685808  -2.656450  -0.680931
N    -0.354873  -0.672533  4.584942
C    0.154179  -0.514770  5.945415
H    0.250506  -0.423585  3.774603
H    1.183839  -0.146023  5.888215
H    0.182678  -1.478442  6.476356
H    -0.425179  0.236914  6.503707
Cd    -2.803427  -1.544972  7.175996
