37
Energy: -175313.704944 eV PBE+vdW (tier 2 basis)
C    -1.645187  -0.837118  -1.057760
C    -1.439840  -0.873635  0.422360
O    -0.389349  -0.379641  0.986984
H    -2.569530  -1.328058  -1.381428
H    -0.801304  -1.332334  -1.560317
H    -1.691136  0.211022  -1.395890
N    -2.361610  -1.454345  1.185291
C    -2.372158  -1.576299  2.656797
C    -2.570190  -3.087351  2.994931
O    -3.721359  -3.522101  3.171805
H    -3.161474  -1.856672  0.695360
H    -1.398212  -1.224361  3.018655
C    -3.519762  -0.738296  3.248165
C    -3.634209  -0.845902  4.791430
C    -5.061942  -1.024786  5.314348
N    -5.616189  -2.319677  4.931657
C    -6.778317  -2.843467  5.389913
N    -7.102301  -4.088160  5.015628
N    -7.576196  -2.140855  6.191486
H    -4.456987  -1.053463  2.766966
H    -3.362486  0.307206  2.953345
H    -3.237266  0.065218  5.256004
H    -3.018855  -1.669147  5.184835
H    -5.714169  -0.214524  4.935999
H    -5.056449  -0.943289  6.415023
H    -5.062524  -2.873144  4.259189
H    -6.456623  -4.667577  4.489800
H    -7.982510  -4.516555  5.288058
H    -8.421443  -2.543871  6.585382
H    -7.394399  -1.170380  6.418824
N    -1.500025  -3.898138  3.063832
C    -0.081786  -3.560437  3.028180
H    -1.735389  -4.866408  3.291464
H    0.478477  -4.464067  2.765558
H    0.273005  -3.215537  4.011491
H    0.124492  -2.789551  2.277800
Cd    1.053857  0.958466  0.063098
