37
Energy: -175313.862873 eV PBE+vdW (tier 2 basis)
C    -0.020071  -0.682545  0.063607
C    -0.174115  -0.263766  1.482412
O    0.850494  -0.158441  2.260671
H    -0.950782  -0.720136  -0.501429
H    0.433115  -1.682753  0.030272
H    0.663208  0.029910  -0.431441
N    -1.335309  0.041442  2.083121
C    -2.734189  -0.292738  1.756892
C    -2.897013  -1.848329  1.727720
O    -2.147376  -2.487537  0.988797
H    -1.196975  0.353484  3.046545
H    -3.291020  0.114691  2.610020
C    -3.281576  0.349061  0.455212
C    -4.820727  0.429109  0.435587
C    -5.333584  1.085138  -0.860154
N    -6.791194  1.224855  -0.836160
C    -7.600220  1.285202  -1.918526
N    -8.924974  1.230961  -1.741830
N    -7.090318  1.374352  -3.150048
H    -2.933778  -0.218808  -0.417803
H    -2.856259  1.360626  0.383512
H    -5.165902  1.020382  1.299513
H    -5.264867  -0.573874  0.523243
H    -5.065701  0.461495  -1.725251
H    -4.860800  2.073523  -0.992138
H    -7.220582  1.464798  0.053564
H    -9.568551  1.471765  -2.489544
H    -9.337294  0.918970  -0.869339
H    -6.155499  1.726884  -3.316149
H    -7.684017  1.265612  -3.966577
N    -3.845464  -2.435499  2.487069
C    -4.656732  -1.867034  3.560219
H    -3.846447  -3.454369  2.402101
H    -5.433470  -2.595550  3.815724
H    -5.148359  -0.939423  3.247719
H    -4.061868  -1.683800  4.468029
Cd    2.928334  0.104013  1.792942
