37
Energy: -175313.332166 eV PBE+vdW (tier 2 basis)
C    0.562368  0.700533  0.061733
C    0.442453  -0.325199  1.158126
O    1.210288  -1.286535  1.253418
H    0.063552  0.317742  -0.841913
H    1.620935  0.843704  -0.179331
H    0.106012  1.661993  0.326864
N    -0.615761  -0.132406  2.034789
C    -1.156148  -1.020972  3.048406
C    -0.957351  -0.415910  4.500922
O    -2.056094  -0.383236  5.156700
H    -1.231962  0.634584  1.770451
H    -2.248328  -1.003066  2.933599
C    -0.702826  -2.499846  3.030984
C    -1.191048  -3.226585  1.751959
C    -0.426115  -4.511334  1.424905
N    0.901040  -4.245061  0.876317
C    1.797759  -5.192040  0.513078
N    1.494855  -6.486763  0.602187
N    2.999521  -4.803069  0.069309
H    -1.150146  -2.987347  3.908674
H    0.383420  -2.568541  3.145310
H    -1.155471  -2.565577  0.874846
H    -2.247537  -3.499564  1.875212
H    -1.025813  -5.064935  0.678656
H    -0.333973  -5.162297  2.311789
H    1.152075  -3.266651  0.716574
H    2.170386  -7.204461  0.356918
H    0.557585  -6.809140  0.811513
H    3.273334  -3.826979  0.056644
H    3.673841  -5.469182  -0.295873
N    0.201934  -0.001998  4.961771
C    1.526631  0.012026  4.323733
H    0.183146  0.398111  5.901897
H    2.272703  -0.215129  5.092827
H    1.731779  1.007681  3.910753
H    1.592175  -0.741742  3.536397
Cd    -2.803533  0.272062  7.111350
