37
Energy: -175315.255078 eV PBE+vdW (tier 2 basis)
C    -1.090986  0.500759  -0.684890
C    -1.386609  1.458376  0.417859
O    -1.552447  2.686569  0.095095
H    -0.962429  -0.530823  -0.339269
H    -0.193264  0.830498  -1.226171
H    -1.921146  0.536478  -1.407693
N    -1.484073  0.988654  1.674691
C    -2.057373  1.649800  2.868779
C    -0.969479  2.467085  3.609649
O    -0.714224  3.680382  3.263106
H    -1.284579  -0.005700  1.774807
H    -2.792455  2.390524  2.511799
C    -2.827810  0.596269  3.697448
C    -3.717805  1.158964  4.822560
C    -4.588724  0.049714  5.444503
N    -5.476262  0.590368  6.475916
C    -6.048707  -0.127105  7.470187
N    -6.701724  0.514189  8.443304
N    -5.938356  -1.459431  7.502930
H    -2.128649  -0.160100  4.095748
H    -3.461832  0.055364  2.978030
H    -4.374539  1.939544  4.405407
H    -3.116674  1.633876  5.612004
H    -3.946482  -0.710028  5.913724
H    -5.173927  -0.445072  4.650548
H    -5.865341  1.515669  6.319461
H    -6.596095  1.511232  8.593245
H    -7.317009  0.019267  9.081206
H    -6.229838  -1.981580  8.323658
H    -5.765793  -2.001990  6.665275
N    -0.292641  1.923810  4.597209
C    0.802673  2.562418  5.342658
H    -0.556029  0.983626  4.885832
H    0.422706  2.963484  6.291224
H    1.226941  3.375215  4.749008
H    1.567300  1.806651  5.550565
Cd    -1.190321  4.368045  1.314590
