37
Energy: -175313.846806 eV PBE+vdW (tier 2 basis)
C    0.604349  0.792619  2.485575
C    -0.577291  1.371392  3.186882
O    -0.444983  2.240897  4.138214
H    1.156302  1.599095  1.978007
H    0.356310  0.034517  1.738399
H    1.274694  0.332672  3.226240
N    -1.828246  1.026119  2.907793
C    -2.331199  0.067521  1.911519
C    -3.714831  0.604772  1.475434
O    -4.468086  1.094678  2.335138
H    -2.566246  1.507567  3.434623
H    -1.653137  0.077248  1.051127
C    -2.447631  -1.398722  2.422843
C    -2.979691  -1.667738  3.843377
C    -4.442833  -1.356785  4.191759
N    -5.409007  -2.194046  3.481585
C    -6.701592  -1.859025  3.221029
N    -7.604543  -2.831670  3.077558
N    -7.047801  -0.577115  3.086722
H    -1.435560  -1.828373  2.382203
H    -3.027095  -1.956409  1.671254
H    -2.372572  -1.120159  4.579542
H    -2.778480  -2.728329  4.059150
H    -4.682964  -0.302406  4.014238
H    -4.571983  -1.520251  5.277467
H    -5.193615  -3.188598  3.429772
H    -8.537841  -2.641385  2.723348
H    -7.436391  -3.773891  3.417014
H    -8.024601  -0.302208  3.051689
H    -6.350389  0.151434  2.943683
N    -4.074678  0.489161  0.184319
C    -3.277776  0.050950  -0.960355
H    -4.984902  0.903341  -0.024198
H    -3.961780  -0.166682  -1.787357
H    -2.714553  -0.860786  -0.731965
H    -2.588526  0.840932  -1.296494
Cd    1.213363  3.426427  4.777623
