37
Energy: -175314.033282 eV PBE+vdW (tier 2 basis)
C    -2.206694  0.800797  3.241275
C    -2.159671  -0.245141  4.293306
O    -1.596323  0.046820  5.408543
H    -3.109961  0.743081  2.628755
H    -1.317180  0.711235  2.593748
H    -2.132480  1.783836  3.724824
N    -2.695645  -1.487908  4.152467
C    -2.550629  -2.458514  3.048513
C    -1.085063  -2.994608  3.098150
O    -0.338850  -2.869543  4.140149
H    -2.918243  -1.927248  5.047286
H    -3.165303  -3.314903  3.373581
C    -3.131003  -1.991556  1.685402
C    -3.574252  -3.147678  0.751811
C    -4.807038  -2.873359  -0.127886
N    -4.552396  -1.927468  -1.222731
C    -5.531770  -1.396486  -1.999650
N    -5.201192  -0.534334  -2.965282
N    -6.814697  -1.695476  -1.780774
H    -2.435960  -1.312823  1.173754
H    -4.021619  -1.400991  1.941994
H    -3.848273  -4.027713  1.353581
H    -2.752646  -3.477913  0.093300
H    -5.616669  -2.467738  0.496747
H    -5.145005  -3.843110  -0.529455
H    -3.639904  -1.982514  -1.667373
H    -4.274493  -0.129397  -3.029280
H    -5.869658  -0.254904  -3.676383
H    -7.554129  -1.197132  -2.267099
H    -7.094318  -2.530615  -1.279967
N    -0.609930  -3.675178  2.077776
C    0.713341  -4.322404  2.043248
H    -1.220723  -3.820892  1.278131
H    0.757250  -5.130044  2.784208
H    1.496859  -3.587506  2.257916
H    0.864536  -4.736117  1.043208
Cd    -0.334817  -1.629315  5.882012
