37
Energy: -175313.978084 eV PBE+vdW (tier 2 basis)
C    -0.352489  0.109601  0.500542
C    -0.516735  0.961543  1.712126
O    0.321154  0.913235  2.697279
H    0.510305  0.473493  -0.080957
H    -1.221204  0.107186  -0.163288
H    -0.141291  -0.924031  0.804074
N    -1.533895  1.797994  1.884068
C    -2.688350  2.081684  1.032119
C    -2.944995  3.608971  1.254520
O    -2.683702  4.097951  2.352219
H    -1.499059  2.403281  2.717578
H    -2.421313  1.885065  -0.013769
C    -3.982067  1.281977  1.376722
C    -4.479668  1.410489  2.827621
C    -5.978634  1.155693  3.046183
N    -6.377492  -0.245504  2.857488
C    -7.662744  -0.668317  2.779767
N    -7.909546  -1.964241  2.554804
N    -8.673351  0.195617  2.895689
H    -3.795116  0.231559  1.106021
H    -4.754408  1.635496  0.675642
H    -4.311590  2.434792  3.195106
H    -3.890055  0.766184  3.498761
H    -6.565693  1.772214  2.348639
H    -6.226560  1.480391  4.070926
H    -5.696474  -0.957343  3.107522
H    -8.843138  -2.350351  2.656248
H    -7.186138  -2.600571  2.240054
H    -9.628435  -0.089819  2.701682
H    -8.555413  1.104104  3.328324
N    -3.475698  4.299334  0.220611
C    -3.680206  5.740905  0.255592
H    -3.590079  3.830072  -0.676316
H    -4.563160  5.986659  -0.347761
H    -2.816202  6.271682  -0.177903
H    -3.801197  6.063383  1.294846
Cd    2.426111  0.535955  2.809389
