37
Energy: -175314.043165 eV PBE+vdW (tier 2 basis)
C    0.972562  1.577858  0.197843
C    0.471726  0.737093  1.308479
O    1.316068  0.148700  2.076415
H    1.587769  0.923045  -0.445919
H    1.657747  2.354033  0.566001
H    0.174210  2.004701  -0.416248
N    -0.854259  0.518256  1.519606
C    -1.904074  1.538801  1.643822
C    -1.717386  2.173012  3.050730
O    -1.229425  1.469394  4.023172
H    -1.049740  -0.328836  2.057933
H    -1.740775  2.301559  0.871057
C    -3.286508  0.857237  1.426029
C    -4.483643  1.803469  1.216031
C    -5.710291  1.166805  0.531069
N    -6.550064  0.352477  1.415486
C    -7.877203  0.149902  1.238190
N    -8.581445  -0.447202  2.205729
N    -8.489475  0.558630  0.123729
H    -3.467222  0.162824  2.262933
H    -3.154692  0.240779  0.523628
H    -4.178956  2.616279  0.540800
H    -4.798203  2.274903  2.158372
H    -5.382151  0.579816  -0.343598
H    -6.337302  1.988470  0.160302
H    -6.099373  -0.264856  2.082470
H    -9.519201  -0.796282  2.035195
H    -8.238140  -0.508670  3.157125
H    -9.503130  0.573966  0.064146
H    -7.985557  0.718980  -0.740334
N    -2.070387  3.414459  3.315473
C    -2.660868  4.450298  2.462313
H    -1.898162  3.694049  4.286228
H    -2.115213  5.385471  2.636928
H    -3.713005  4.606031  2.731328
H    -2.585359  4.186126  1.405233
Cd    0.594220  0.330532  4.094161
