37
Energy: -175315.311562 eV PBE+vdW (tier 2 basis)
C    1.021957  -0.859780  -0.270260
C    0.696196  0.025147  0.883574
O    0.549056  1.273307  0.637822
H    1.938508  -0.502110  -0.759763
H    0.215603  -0.770189  -1.015014
H    1.133584  -1.912914  0.010314
N    0.554358  -0.526237  2.102348
C    -0.049199  0.060053  3.320144
C    1.021704  0.821394  4.141287
O    1.283015  2.056368  3.888786
H    0.743871  -1.526755  2.142485
H    -0.771776  0.826120  2.992286
C    -0.844715  -1.040499  4.059411
C    -1.772458  -0.542991  5.184479
C    -2.595485  -1.704318  5.775665
N    -3.517440  -1.230190  6.809573
C    -4.662871  -1.846878  7.180652
N    -5.513569  -1.209649  7.990068
N    -4.961639  -3.067548  6.723073
H    -0.157310  -1.818523  4.436058
H    -1.453777  -1.538753  3.289599
H    -2.462932  0.216971  4.788754
H    -1.188864  -0.062018  5.985752
H    -1.918412  -2.474150  6.183835
H    -3.193611  -2.170248  4.979101
H    -3.198441  -0.483278  7.419389
H    -6.264876  -1.704357  8.460445
H    -5.457095  -0.209744  8.147972
H    -5.886202  -3.461267  6.869468
H    -4.245972  -3.710323  6.405826
N    1.679027  0.207898  5.100685
C    2.761081  0.790538  5.909061
H    1.410828  -0.750374  5.316338
H    3.511223  0.014677  6.094061
H    2.361333  1.143349  6.868638
H    3.210059  1.629625  5.372861
Cd    0.865238  2.871648  1.976229
