37
Energy: -175315.070735 eV PBE+vdW (tier 2 basis)
C    -1.123813  -0.149484  0.398520
C    -0.630902  -0.230945  1.802487
O    0.511432  0.289097  2.052172
H    -0.401514  -0.634418  -0.273018
H    -1.157009  0.911036  0.103996
H    -2.116736  -0.590979  0.261286
N    -1.408475  -0.819736  2.730375
C    -1.310280  -0.735371  4.200786
C    -0.458846  -1.891909  4.779874
O    0.811119  -1.928918  4.577100
H    -2.264665  -1.232911  2.367802
H    -0.711923  0.165466  4.422926
C    -2.694005  -0.450882  4.845335
C    -3.919717  -1.309736  4.462657
C    -5.154718  -0.849599  5.266154
N    -6.359426  -1.585162  4.878822
C    -7.629782  -1.140074  5.032674
N    -8.630969  -1.829860  4.479855
N    -7.883197  -0.010578  5.700892
H    -2.922993  0.596680  4.600503
H    -2.543921  -0.463705  5.936230
H    -3.751723  -2.385293  4.640863
H    -4.155970  -1.207302  3.391772
H    -5.332510  0.217797  5.070499
H    -4.956932  -0.965002  6.345468
H    -6.263425  -2.577005  4.681413
H    -8.469879  -2.531600  3.766006
H    -9.597056  -1.658264  4.740641
H    -8.808612  0.407258  5.677333
H    -7.243747  0.357329  6.394868
N    -1.000701  -2.838853  5.513553
C    -0.261231  -3.948434  6.137708
H    -2.006784  -2.812554  5.652539
H    -0.125460  -4.763441  5.414845
H    -0.839723  -4.310233  6.992327
H    0.718217  -3.594962  6.473449
Cd    1.866874  -0.443453  3.496289
