37
Energy: -175314.658921 eV PBE+vdW (tier 2 basis)
C    -0.685271  -0.103208  -0.697632
C    -0.380302  -0.476772  0.712928
O    0.845326  -0.684637  1.009081
H    -0.352349  -0.910634  -1.365741
H    -0.092960  0.784787  -0.964115
H    -1.747177  0.103302  -0.870442
N    -1.394466  -0.561735  1.594889
C    -1.300938  -0.715549  3.055755
C    -1.070683  -2.196679  3.466422
O    0.132973  -2.577375  3.745157
H    -2.321730  -0.396868  1.209189
H    -0.366106  -0.219199  3.365701
C    -2.437317  0.027953  3.800144
C    -2.223809  1.555742  3.830302
C    -3.093159  2.335068  4.832491
N    -4.485988  2.507599  4.395191
C    -5.481728  2.946833  5.207433
N    -6.717053  3.072378  4.713826
N    -5.247796  3.212337  6.495174
H    -2.450447  -0.356704  4.831354
H    -3.414701  -0.225919  3.366623
H    -2.337085  1.990911  2.824516
H    -1.183892  1.764739  4.124083
H    -2.619461  3.318098  4.988070
H    -3.100639  1.810206  5.799000
H    -4.622701  2.713955  3.408921
H    -7.443647  3.562292  5.226157
H    -6.975268  2.693802  3.810168
H    -6.014264  3.403971  7.133297
H    -4.317273  3.413089  6.841386
N    -2.021691  -3.100015  3.579619
C    -3.472984  -3.001339  3.389593
H    -1.676651  -4.018311  3.874980
H    -3.717879  -2.325542  2.565510
H    -3.965990  -2.676149  4.314351
H    -3.840019  -4.000472  3.133149
Cd    1.725128  -1.769955  2.604469
