37
Energy: -175313.295637 eV PBE+vdW (tier 2 basis)
C    -3.072360  -0.102682  0.265355
C    -1.972642  -0.180325  1.275264
O    -0.773800  -0.024109  0.988523
H    -4.069558  -0.267307  0.687353
H    -2.882172  -0.853581  -0.515084
H    -3.043717  0.877316  -0.230238
N    -2.328710  -0.437274  2.584311
C    -1.352813  -0.526682  3.650717
C    -1.643230  -1.848303  4.454743
O    -2.362474  -1.714012  5.506373
H    -3.318738  -0.395026  2.820316
H    -0.382497  -0.676415  3.156662
C    -1.291448  0.704926  4.574076
C    -0.943256  2.042295  3.888895
C    0.518720  2.329133  3.498546
N    0.853251  1.917232  2.143081
C    1.893575  2.382238  1.408183
N    1.977925  1.982891  0.131754
N    2.797984  3.208546  1.928908
H    -0.568300  0.497872  5.377837
H    -2.267818  0.827122  5.062780
H    -1.203509  2.820483  4.621552
H    -1.602103  2.235949  3.029452
H    1.211191  1.859885  4.223738
H    0.687672  3.416631  3.574281
H    0.247306  1.210395  1.687971
H    1.231795  1.447616  -0.302062
H    2.764601  2.238805  -0.458623
H    2.820604  3.433793  2.916488
H    3.522058  3.631756  1.355141
N    -1.166568  -2.996796  4.021671
C    -0.362735  -3.304454  2.827672
H    -1.383369  -3.813667  4.596926
H    -0.833984  -4.143546  2.302245
H    0.648826  -3.597839  3.134461
H    -0.314515  -2.449714  2.150710
Cd    -3.143267  -2.957642  7.130205
