37
Energy: -175313.576130 eV PBE+vdW (tier 2 basis)
C    0.133948  0.808096  0.414410
C    0.167563  0.272064  1.812609
O    1.190369  -0.106479  2.385968
H    1.013816  1.434319  0.229397
H    -0.779304  1.366791  0.180803
H    0.202015  -0.050937  -0.272276
N    -1.046187  0.210203  2.492705
C    -1.147048  -0.369124  3.807524
C    -2.466672  -1.196095  3.899349
O    -2.288721  -2.452159  3.793576
H    -1.833045  0.715140  2.089139
H    -0.331581  -1.105401  3.871866
C    -1.001822  0.600921  5.026385
C    0.462469  0.956073  5.372702
C    1.024483  2.235862  4.711566
N    2.361592  2.556765  5.199896
C    3.541222  2.219787  4.623568
N    3.583125  1.402884  3.570607
N    4.666734  2.732768  5.133782
H    -1.433641  0.098325  5.903036
H    -1.604084  1.507709  4.855230
H    1.124541  0.108295  5.142723
H    0.510567  1.083054  6.464640
H    0.387557  3.097569  4.955391
H    1.061306  2.163257  3.618491
H    2.418395  3.074394  6.073831
H    4.455770  1.251093  3.074904
H    2.776537  0.873780  3.241264
H    4.655263  3.491527  5.808362
H    5.581734  2.436453  4.807038
N    -3.622506  -0.583982  4.078250
C    -4.939654  -1.220654  4.180582
H    -3.597478  0.425798  4.206940
H    -5.691580  -0.437418  4.322625
H    -4.988304  -1.885297  5.055692
H    -5.191173  -1.752380  3.251897
Cd    -3.503755  -4.283903  3.783761
