37
Energy: -175314.294415 eV PBE+vdW (tier 2 basis)
C    0.822907  -2.878851  2.083762
C    0.430429  -1.909648  3.145336
O    1.361402  -1.220199  3.682612
H    -0.024358  -3.451076  1.689863
H    1.582256  -3.566696  2.481404
H    1.301048  -2.326474  1.260658
N    -0.871267  -1.800303  3.482277
C    -1.427292  -0.766712  4.358668
C    -1.148965  -1.047543  5.863612
O    -0.327166  -0.253302  6.469678
H    -1.513568  -2.392617  2.961601
H    -0.813772  0.132651  4.181935
C    -2.837575  -0.253725  3.950764
C    -4.080569  -1.160980  3.901723
C    -5.247403  -0.386913  3.250429
N    -6.473227  -1.185764  3.210314
C    -7.731316  -0.685951  3.175934
N    -8.766019  -1.519407  3.315529
N    -7.943801  0.626491  3.035883
H    -2.684529  0.188990  2.953512
H    -3.040794  0.596844  4.619409
H    -4.387483  -1.472744  4.907810
H    -3.890592  -2.074633  3.313576
H    -4.959223  -0.066710  2.234832
H    -5.453776  0.516385  3.842515
H    -6.385392  -2.168456  2.968149
H    -8.652531  -2.460616  3.674782
H    -9.711519  -1.229572  3.086071
H    -8.870734  1.017395  3.175179
H    -7.261050  1.236036  2.602066
N    -1.673799  -2.022983  6.575410
C    -2.586511  -3.106443  6.214777
H    -1.354186  -2.028042  7.549596
H    -2.159453  -4.046568  6.586303
H    -2.707992  -3.176768  5.133269
H    -3.560365  -2.956329  6.697320
Cd    1.459666  0.094701  5.359431
