37
Energy: -175313.862341 eV PBE+vdW (tier 2 basis)
C    0.251784  0.478886  0.389720
C    0.052085  0.463824  1.864033
O    0.974021  0.806333  2.692968
H    -0.557283  0.003950  -0.171301
H    1.191001  -0.037062  0.142417
H    0.351581  1.521529  0.051616
N    -1.114580  0.137150  2.437339
C    -2.473200  0.040661  1.847832
C    -2.611892  -1.218587  0.925715
O    -3.084867  -1.101819  -0.206379
H    -1.080282  0.167284  3.459579
H    -3.116066  -0.139277  2.723596
C    -2.949727  1.332527  1.143405
C    -4.444911  1.668855  1.302474
C    -5.497591  0.733716  0.667162
N    -5.446682  0.640551  -0.788872
C    -6.307433  1.205239  -1.666854
N    -6.297784  0.782476  -2.937415
N    -7.148474  2.168779  -1.286995
H    -2.670502  1.288166  0.081593
H    -2.397186  2.173183  1.585529
H    -4.587083  2.684597  0.904745
H    -4.696018  1.732648  2.372985
H    -6.499054  1.067088  0.967333
H    -5.400489  -0.292054  1.050642
H    -4.727610  0.021927  -1.163543
H    -5.877069  -0.102398  -3.200036
H    -6.825672  1.265062  -3.658729
H    -7.048866  2.658015  -0.406171
H    -7.899589  2.480677  -1.895176
N    -2.222324  -2.401114  1.448065
C    -2.385648  -3.674655  0.754872
H    -1.970742  -2.436144  2.433755
H    -1.621531  -4.373438  1.112953
H    -2.293055  -3.514512  -0.324383
H    -3.375572  -4.111266  0.961239
Cd    3.137986  0.819032  2.644263
