37
Energy: -175315.311033 eV PBE+vdW (tier 2 basis)
C    1.078653  -0.716717  -0.262531
C    0.748275  0.114971  0.928929
O    0.588696  1.371138  0.737370
H    0.270949  -0.600953  -1.002114
H    1.198532  -1.780105  -0.027868
H    1.992041  -0.331377  -0.736793
N    0.615883  -0.489335  2.123489
C    0.013426  0.039107  3.367866
C    1.082116  0.772088  4.217041
O    1.335623  2.018021  4.015480
H    0.814842  -1.488864  2.120076
H    -0.716159  0.813247  3.076562
C    -0.770866  -1.097839  4.062934
C    -1.688753  -0.655174  5.218675
C    -2.505389  -1.842660  5.764523
N    -3.403605  -1.417408  6.839961
C    -4.539596  -2.051875  7.209950
N    -5.370024  -1.453124  8.068401
N    -4.849070  -3.250594  6.704524
H    -0.076660  -1.889191  4.397085
H    -1.385303  -1.563053  3.276891
H    -2.383424  0.121893  4.865767
H    -1.097679  -0.211386  6.035855
H    -1.824128  -2.634939  6.119321
H    -3.121451  -2.264797  4.957257
H    -3.069575  -0.700081  7.476644
H    -6.109865  -1.969338  8.533712
H    -5.311108  -0.460811  8.267748
H    -5.770098  -3.651614  6.853397
H    -4.140880  -3.876498  6.340341
N    1.744838  0.123429  5.149245
C    2.822771  0.679996  5.981102
H    1.483745  -0.844978  5.324637
H    3.272689  1.537519  5.475080
H    3.573293  -0.100583  6.143440
H    2.418259  1.000639  6.950022
Cd    0.900999  2.912246  2.141978
