37
Energy: -175313.907593 eV PBE+vdW (tier 2 basis)
C    -2.043951  1.702239  0.072250
C    -1.153740  1.099218  1.103586
O    -0.315682  1.795983  1.793894
H    -1.501082  2.465914  -0.499853
H    -2.892140  2.187057  0.581522
H    -2.441971  0.970609  -0.637676
N    -1.191853  -0.197239  1.399615
C    -2.154037  -1.217747  0.941839
C    -3.570271  -0.845252  1.463519
O    -3.671882  -0.258943  2.539610
H    -0.586733  -0.467955  2.177059
H    -2.125686  -1.250475  -0.155797
C    -1.688290  -2.576014  1.529875
C    -2.466674  -3.819252  1.063038
C    -1.894623  -5.087092  1.723283
N    -2.566618  -6.293896  1.239552
C    -2.619806  -7.480022  1.889376
N    -3.401951  -8.450525  1.403681
N    -1.922264  -7.677726  3.010386
H    -1.738088  -2.498878  2.628029
H    -0.628104  -2.694253  1.256219
H    -2.390830  -3.914127  -0.032172
H    -3.533536  -3.737168  1.316534
H    -2.034118  -5.032933  2.813083
H    -0.810386  -5.152698  1.523233
H    -2.864068  -6.305476  0.267507
H    -3.331522  -9.405322  1.742389
H    -4.119543  -8.265453  0.711215
H    -2.075728  -8.504461  3.579690
H    -1.117709  -7.110169  3.247736
N    -4.677504  -1.195132  0.751181
C    -4.809347  -1.570998  -0.647862
H    -5.541791  -0.924130  1.228428
H    -5.627815  -2.298000  -0.739741
H    -3.893096  -2.023438  -1.034699
H    -5.078508  -0.701883  -1.269511
Cd    0.318360  3.835526  1.724115
