37
Energy: -175314.329016 eV PBE+vdW (tier 2 basis)
C    0.643037  -1.404163  0.278750
C    0.446075  -1.007654  1.704037
O    1.273789  -1.489479  2.553418
H    1.623370  -1.041710  -0.064243
H    -0.140507  -1.034816  -0.391910
H    0.682987  -2.502105  0.221402
N    -0.581813  -0.191349  1.998838
C    -1.217123  0.217243  3.282675
C    -0.391775  1.275480  4.046103
O    0.624417  0.971449  4.780891
H    -1.088841  0.119484  1.173307
H    -2.133469  0.724282  2.957073
C    -1.644784  -0.960282  4.194786
C    -2.662216  -1.931546  3.548063
C    -4.156163  -1.651417  3.782275
N    -4.591275  -2.089179  5.116254
C    -5.835420  -1.894503  5.619942
N    -6.108797  -2.304543  6.861040
N    -6.768276  -1.259883  4.902333
H    -2.051901  -0.526394  5.120826
H    -0.763339  -1.540355  4.505400
H    -2.440425  -2.953790  3.888443
H    -2.506062  -1.971509  2.460829
H    -4.720142  -2.187522  3.001327
H    -4.383551  -0.578697  3.678493
H    -4.077047  -2.864987  5.525024
H    -7.062675  -2.348359  7.206086
H    -5.381236  -2.601272  7.501477
H    -7.660072  -1.011071  5.320012
H    -6.724378  -1.218401  3.890992
N    -0.751849  2.543428  4.025399
C    -1.884828  3.202591  3.359317
H    -0.156931  3.151358  4.596354
H    -1.632933  4.262539  3.251201
H    -2.794295  3.123449  3.968718
H    -2.052468  2.792985  2.358284
Cd    1.902604  -0.648706  4.375964
