37
Energy: -175314.124408 eV PBE+vdW (tier 2 basis)
C    -0.239528  0.346025  -0.221014
C    0.275094  1.094201  0.948004
O    1.269184  1.891046  0.789633
H    0.602832  -0.247352  -0.620106
H    -0.524089  1.030721  -1.032493
H    -1.055220  -0.339561  0.027521
N    -0.238833  0.934941  2.198583
C    -1.657349  1.009440  2.557594
C    -1.955475  2.503078  2.918781
O    -1.049498  3.418864  2.933755
H    0.399922  1.217710  2.944290
H    -2.233150  0.797737  1.643968
C    -2.082187  -0.029305  3.627437
C    -1.371849  0.059301  4.988110
C    -1.963505  -0.839597  6.090108
N    -1.724196  -2.270376  5.861201
C    -2.385585  -3.266550  6.501936
N    -3.311249  -2.990502  7.424989
N    -2.128678  -4.535468  6.171605
H    -1.935702  -1.018897  3.171944
H    -3.170216  0.061816  3.771303
H    -1.430630  1.085562  5.383737
H    -0.297216  -0.166326  4.886709
H    -3.050610  -0.682788  6.147245
H    -1.527281  -0.526031  7.052337
H    -0.810316  -2.527591  5.497756
H    -3.909112  -3.723599  7.794640
H    -3.322627  -2.109918  7.925637
H    -1.614163  -4.777603  5.332749
H    -2.451102  -5.307063  6.747134
N    -3.191645  2.837487  3.220153
C    -3.650091  4.204125  3.521666
H    -3.892280  2.098982  3.249860
H    -4.743105  4.207640  3.507443
H    -3.270065  4.900508  2.766426
H    -3.295017  4.513556  4.512519
Cd    0.824147  3.663408  1.917250
