37
Energy: -175315.148075 eV PBE+vdW (tier 2 basis)
C    0.065840  0.064695  -0.306918
C    0.221004  0.639131  1.059576
O    0.415002  1.901760  1.143061
H    -0.109410  -1.016725  -0.304537
H    0.958449  0.297763  -0.904405
H    -0.779742  0.566053  -0.802679
N    0.130210  -0.182933  2.120778
C    -0.021025  0.166511  3.549573
C    1.368707  0.382997  4.204085
O    1.926491  1.542886  4.180145
H    0.017398  -1.168937  1.889776
H    -0.523538  1.147149  3.596434
C    -0.952401  -0.861821  4.236395
C    -1.382801  -0.461951  5.662106
C    -2.172898  -1.529207  6.446899
N    -3.587946  -1.624911  6.075821
C    -4.587232  -1.973176  6.921455
N    -5.855782  -1.819001  6.529047
N    -4.319603  -2.444184  8.142678
H    -0.477509  -1.858970  4.241912
H    -1.829966  -0.959285  3.578998
H    -1.965661  0.471040  5.636171
H    -0.491824  -0.246818  6.270885
H    -2.137039  -1.243907  7.506332
H    -1.680563  -2.512273  6.352892
H    -3.834763  -1.614626  5.091722
H    -6.619975  -2.255887  7.034797
H    -6.107912  -1.213856  5.756090
H    -5.055911  -2.531983  8.836642
H    -3.434057  -2.880744  8.369295
N    1.990233  -0.619581  4.784900
C    3.328453  -0.569152  5.393167
H    1.498115  -1.509401  4.840083
H    3.236180  -0.513632  6.485773
H    3.865744  0.308917  5.028447
H    3.867790  -1.483691  5.123104
Cd    1.421940  2.947752  2.675501
