37
Energy: -175312.900128 eV PBE+vdW (tier 2 basis)
C    -0.129776  -0.914944  -0.026250
C    -0.309222  0.056629  1.095983
O    0.269985  1.205189  1.115894
H    0.938350  -1.160041  -0.133288
H    -0.480430  -0.459832  -0.965260
H    -0.676515  -1.853539  0.116594
N    -1.099491  -0.277726  2.116849
C    -1.433291  0.565621  3.282769
C    -1.377258  -0.283079  4.581401
O    -2.372149  -0.361035  5.315169
H    -1.552248  -1.187211  2.045963
H    -0.630987  1.315629  3.356348
C    -2.755678  1.346797  3.103155
C    -4.050570  0.593892  2.720910
C    -4.932480  0.028403  3.848151
N    -5.579627  1.058613  4.651609
C    -5.751339  1.043014  6.002398
N    -6.750559  1.754369  6.529240
N    -4.915863  0.345142  6.770730
H    -2.556207  2.079586  2.308516
H    -2.904887  1.939747  4.016620
H    -3.843499  -0.243940  2.038253
H    -4.663074  1.281298  2.118570
H    -4.385279  -0.652491  4.506656
H    -5.730771  -0.579006  3.379392
H    -6.110444  1.766533  4.145631
H    -7.540043  2.065069  5.970832
H    -6.818137  1.910836  7.531274
H    -5.111586  0.203097  7.757089
H    -4.010565  0.036145  6.417054
N    -0.228923  -0.909673  4.919680
C    1.108048  -0.773774  4.359095
H    -0.306198  -1.447647  5.785582
H    1.837107  -0.765192  5.177436
H    1.209244  0.160635  3.796354
H    1.343527  -1.626490  3.703668
Cd    1.623794  2.045776  -0.373210
