37
Energy: -175315.070893 eV PBE+vdW (tier 2 basis)
C    -0.922331  -0.299127  0.511395
C    -0.513538  -0.227803  1.942784
O    0.579878  0.381317  2.209221
H    -1.010969  0.728386  0.125176
H    -1.872231  -0.822386  0.357727
H    -0.128266  -0.782525  -0.074510
N    -1.313372  -0.779970  2.874330
C    -1.314047  -0.559122  4.334089
C    -0.436887  -1.603010  5.067237
O    0.843720  -1.578704  4.945645
H    -2.120101  -1.275986  2.502326
H    -0.784247  0.394111  4.506023
C    -2.750148  -0.306895  4.867654
C    -3.896196  -1.274637  4.498578
C    -5.206493  -0.818468  5.174942
N    -6.339048  -1.661493  4.789254
C    -7.638605  -1.279153  4.803764
N    -8.557081  -2.080124  4.257287
N    -8.000383  -0.103848  5.327956
H    -3.024603  0.696829  4.511304
H    -2.669169  -0.210159  5.961648
H    -3.679553  -2.315207  4.793646
H    -4.065850  -1.291577  3.410458
H    -5.430838  0.211929  4.863491
H    -5.076144  -0.817253  6.270482
H    -6.176698  -2.660831  4.706245
H    -8.305558  -2.837297  3.631614
H    -9.547940  -1.941222  4.429724
H    -8.942036  0.252707  5.194582
H    -7.440183  0.365257  6.029679
N    -0.968291  -2.513159  5.853111
C    -0.201607  -3.509829  6.619900
H    -1.980708  -2.538497  5.932559
H    -0.843938  -3.901063  7.413245
H    0.683433  -3.037011  7.057420
H    0.112786  -4.330566  5.962573
Cd    1.880239  -0.136613  3.790439
