37
Energy: -175314.083832 eV PBE+vdW (tier 2 basis)
C    0.177615  -2.200628  0.508210
C    0.299454  -1.702961  1.900718
O    1.384387  -1.962907  2.534943
H    -0.194060  -3.239704  0.513749
H    1.186399  -2.251242  0.074237
H    -0.471646  -1.581167  -0.114543
N    -0.649728  -0.956639  2.531953
C    -2.096441  -1.219539  2.696865
C    -2.234058  -2.419227  3.693802
O    -1.298685  -2.716028  4.529606
H    -0.262567  -0.413835  3.305364
H    -2.462172  -0.348450  3.265782
C    -2.915329  -1.319035  1.393688
C    -2.873389  -0.068443  0.479562
C    -4.009310  0.940426  0.736731
N    -3.943066  2.048815  -0.218231
C    -4.995220  2.721801  -0.735425
N    -4.806743  3.511760  -1.796039
N    -6.219206  2.585342  -0.212095
H    -3.965169  -1.504160  1.667864
H    -2.605144  -2.204864  0.825498
H    -2.950593  -0.408024  -0.562256
H    -1.899275  0.437005  0.573024
H    -3.973019  1.323999  1.770937
H    -4.977166  0.437788  0.597927
H    -3.024469  2.412035  -0.454581
H    -3.983133  3.435763  -2.382719
H    -5.501378  4.198909  -2.071674
H    -7.031145  2.953814  -0.698060
H    -6.358269  2.314980  0.753816
N    -3.365171  -3.087584  3.753494
C    -3.670289  -4.171471  4.700708
H    -4.120144  -2.801312  3.134201
H    -2.765013  -4.746188  4.913440
H    -4.427205  -4.819301  4.248786
H    -4.062282  -3.749459  5.635906
Cd    0.833049  -2.611142  4.509973
