37
Energy: -175313.727188 eV PBE+vdW (tier 2 basis)
C    2.036345  -0.397557  0.984202
C    1.064642  -0.524210  2.101534
O    1.316017  -1.235759  3.147973
H    1.647265  0.155454  0.126000
H    2.305731  -1.406668  0.634831
H    2.958291  0.072713  1.356070
N    -0.121568  0.098706  2.147697
C    -0.721981  1.179207  1.328360
C    -1.119890  0.577866  -0.071269
O    -0.285276  0.524938  -0.968850
H    -0.672135  -0.170347  2.966569
H    -1.644188  1.430927  1.870674
C    0.118776  2.462101  1.179337
C    -0.692873  3.577128  0.489869
C    0.072488  4.867875  0.165022
N    0.269726  5.734808  1.334677
C    0.992567  6.881003  1.318769
N    1.095507  7.602390  2.441328
N    1.619784  7.274233  0.208997
H    1.018811  2.250774  0.586912
H    0.443612  2.771224  2.183669
H    -1.593101  3.823162  1.077135
H    -1.060936  3.208460  -0.478381
H    -0.502520  5.412260  -0.603222
H    1.058043  4.627928  -0.262694
H    -0.414951  5.657334  2.082088
H    1.499901  8.533671  2.437290
H    0.778782  7.249518  3.337153
H    2.250931  8.069464  0.217950
H    1.390089  6.893817  -0.701098
N    -2.394991  0.145587  -0.193551
C    -2.943349  -0.334490  -1.456009
H    -3.047211  0.315051  0.569168
H    -3.734290  -1.062497  -1.240231
H    -2.138201  -0.782578  -2.048923
H    -3.385314  0.489916  -2.038282
Cd    2.461563  -3.044111  3.460703
