37
Energy: -175314.229407 eV PBE+vdW (tier 2 basis)
C    -0.482963  -2.163083  -0.460818
C    -0.462049  -1.428727  0.835769
O    0.552320  -0.681522  1.063769
H    0.419090  -2.785710  -0.542527
H    -0.431827  -1.429448  -1.280053
H    -1.376727  -2.783529  -0.590605
N    -1.500251  -1.573716  1.678636
C    -1.827403  -0.780404  2.879832
C    -1.010325  -1.258451  4.109365
O    0.031586  -0.572532  4.458148
H    -2.229733  -2.207278  1.354184
H    -1.467782  0.246959  2.703435
C    -3.368105  -0.723414  3.022106
C    -3.983384  0.064822  4.199839
C    -4.130874  1.592841  3.979975
N    -5.349790  2.142320  4.585254
C    -5.444255  3.061775  5.570189
N    -6.543583  3.812686  5.659912
N    -4.446601  3.230893  6.450602
H    -3.754324  -1.750222  3.057798
H    -3.739105  -0.300994  2.075035
H    -3.458409  -0.141356  5.145313
H    -4.992980  -0.346557  4.336561
H    -4.187853  1.807565  2.901625
H    -3.273108  2.158419  4.364532
H    -6.217187  1.947964  4.091501
H    -6.772936  4.316082  6.511750
H    -7.187736  3.918170  4.882627
H    -4.456067  4.019905  7.089396
H    -3.817100  2.472906  6.680608
N    -1.306008  -2.311382  4.843546
C    -2.405128  -3.282784  4.750247
H    -0.642404  -2.470274  5.607383
H    -3.317111  -2.894337  5.220451
H    -2.093758  -4.180746  5.293255
H    -2.597911  -3.562975  3.710579
Cd    1.297776  0.084134  2.882780
