37
Energy: -175313.879552 eV PBE+vdW (tier 2 basis)
C    -0.715683  0.534998  0.498478
C    -0.046791  0.073569  1.744626
O    1.184141  0.375897  1.989483
H    -1.745284  0.197612  0.383563
H    -0.149593  0.170543  -0.369679
H    -0.700217  1.638898  0.491732
N    -0.617118  -0.666308  2.709030
C    -1.804197  -1.546131  2.712224
C    -1.646140  -2.651079  1.617426
O    -1.485642  -2.306898  0.447087
H    0.018783  -0.824094  3.493561
H    -1.760077  -2.023976  3.701086
C    -3.167027  -0.814292  2.590890
C    -4.348021  -1.762920  2.876061
C    -5.749823  -1.151246  2.722530
N    -6.157757  -0.337334  3.874277
C    -7.289861  0.406511  3.919115
N    -7.562556  1.112533  5.022291
N    -8.109813  0.462769  2.867557
H    -3.280961  -0.394407  1.583132
H    -3.153945  0.027830  3.297755
H    -4.253843  -2.212130  3.878775
H    -4.316159  -2.606255  2.171392
H    -6.460967  -1.984264  2.588091
H    -5.795914  -0.524333  1.818955
H    -5.767629  -0.595476  4.776903
H    -8.468022  1.550940  5.158976
H    -6.880840  1.239152  5.761679
H    -8.894680  1.106758  2.850819
H    -8.081736  -0.228835  2.128020
N    -1.714636  -3.935738  2.023012
C    -1.561429  -5.064893  1.112127
H    -1.735158  -4.135029  3.020741
H    -2.162897  -5.902901  1.483036
H    -0.509862  -5.389689  1.064789
H    -1.878921  -4.764615  0.107999
Cd    2.429862  1.923977  1.173995
