37
Energy: -175315.154597 eV PBE+vdW (tier 2 basis)
C    2.484085  2.704535  3.093095
C    1.442387  2.286449  2.112541
O    1.799003  1.470836  1.192031
H    2.098443  3.355441  3.885266
H    3.301975  3.211262  2.560637
H    2.923058  1.802231  3.545191
N    0.193164  2.765297  2.251878
C    -1.052439  2.317247  1.592820
C    -1.258141  3.064286  0.249406
O    -0.683833  2.646954  -0.825568
H    0.077862  3.452469  2.995307
H    -0.915152  1.257268  1.320385
C    -2.241567  2.395421  2.580087
C    -2.149330  1.388275  3.744870
C    -3.208780  1.572597  4.852589
N    -4.571598  1.138559  4.518831
C    -5.247094  0.129003  5.119991
N    -6.582864  0.146531  5.121776
N    -4.597182  -0.888314  5.693181
H    -3.160065  2.214106  2.001951
H    -2.312570  3.419774  2.987971
H    -1.172087  1.484026  4.242312
H    -2.199043  0.361860  3.350497
H    -3.258293  2.627878  5.160953
H    -2.887753  1.021984  5.745392
H    -5.157351  1.801291  4.020737
H    -7.120844  -0.679129  5.366750
H    -7.108914  1.001327  4.975225
H    -5.083563  -1.543459  6.297117
H    -3.624301  -1.086181  5.499197
N    -2.024533  4.130658  0.192574
C    -2.279212  4.944600  -1.006419
H    -2.515757  4.405387  1.041037
H    -1.489537  4.775303  -1.741661
H    -2.302243  5.998960  -0.710941
H    -3.249440  4.668557  -1.439961
Cd    0.993509  1.361712  -0.758044
