37
Energy: -175313.760479 eV PBE+vdW (tier 2 basis)
C    0.218697  -2.129253  0.672041
C    -0.607800  -2.598182  1.819920
O    -0.382898  -3.718173  2.416752
H    -0.241577  -1.319028  0.099062
H    0.406366  -2.963273  -0.018142
H    1.183738  -1.767324  1.059963
N    -1.627099  -1.886131  2.303566
C    -1.937698  -0.474437  2.029220
C    -0.758444  0.405525  2.555844
O    0.083343  -0.095121  3.298876
H    -2.041098  -2.282591  3.148353
H    -2.033476  -0.350413  0.940335
C    -3.264909  -0.065533  2.712193
C    -4.514423  -0.756311  2.129317
C    -5.857746  -0.096617  2.481310
N    -6.248792  -0.257163  3.886181
C    -7.237725  0.446372  4.491512
N    -7.462721  0.258973  5.796589
N    -7.959843  1.336060  3.807195
H    -3.364565  1.022511  2.592655
H    -3.173903  -0.232889  3.797155
H    -4.545893  -1.823232  2.401878
H    -4.461222  -0.739093  1.030383
H    -6.625700  -0.540445  1.824555
H    -5.814221  0.980716  2.261714
H    -5.999374  -1.133504  4.337081
H    -6.798773  -0.223863  6.391241
H    -8.295585  0.625160  6.247564
H    -8.601981  1.962233  4.283741
H    -8.029659  1.306553  2.796761
N    -0.680474  1.716520  2.198067
C    -1.329304  2.430214  1.112400
H    0.103000  2.196055  2.650653
H    -0.595409  2.695370  0.335343
H    -1.745438  3.373900  1.498543
H    -2.132921  1.843036  0.661058
Cd    1.064495  -5.259713  2.055487
