37
Energy: -175313.997822 eV PBE+vdW (tier 2 basis)
C    -0.284623  -0.881018  0.516409
C    -0.149105  0.019340  1.694895
O    1.004084  0.287441  2.220548
H    0.215587  -0.421525  -0.350507
H    -1.319838  -1.087918  0.233228
H    0.218380  -1.834796  0.727339
N    -1.181048  0.579683  2.312901
C    -2.626980  0.402636  2.132210
C    -3.198544  1.804787  2.524022
O    -2.711598  2.354975  3.511605
H    -0.959784  1.210401  3.097259
H    -2.838790  0.150561  1.087388
C    -3.174611  -0.680234  3.104017
C    -4.701803  -0.871856  3.089416
C    -5.136981  -1.883752  4.163416
N    -6.591360  -2.059192  4.167971
C    -7.257646  -3.085237  4.744650
N    -8.572683  -3.207741  4.530255
N    -6.613420  -3.978217  5.499705
H    -2.843115  -0.405095  4.116982
H    -2.676155  -1.627341  2.846576
H    -5.038045  -1.225514  2.102991
H    -5.203149  0.089671  3.284876
H    -4.794488  -1.536016  5.153960
H    -4.674787  -2.863918  3.970364
H    -7.159318  -1.276702  3.854849
H    -9.141284  -3.843964  5.080959
H    -9.042905  -2.709549  3.782390
H    -7.077446  -4.824510  5.815095
H    -5.713548  -3.775452  5.917924
N    -4.195374  2.363647  1.799944
C    -4.743702  1.955080  0.514530
H    -4.442607  3.300167  2.129826
H    -5.737233  2.405166  0.406749
H    -4.842794  0.866429  0.449132
H    -4.124495  2.316158  -0.322287
Cd    2.994337  0.382513  1.460143
