37
Energy: -175314.140230 eV PBE+vdW (tier 2 basis)
C    -1.100989  1.220893  0.085558
C    -0.584183  0.471033  1.257516
O    0.667966  0.192213  1.287629
H    -0.284262  1.833802  -0.319976
H    -1.962596  1.847382  0.327744
H    -1.372446  0.513365  -0.716862
N    -1.355297  0.083709  2.308991
C    -2.646852  -0.636671  2.304521
C    -2.370682  -2.087302  1.792199
O    -1.192926  -2.610235  1.821540
H    -0.808055  -0.087659  3.153980
H    -2.877239  -0.769559  3.375126
C    -3.846356  0.105562  1.679314
C    -4.177408  1.435285  2.386450
C    -5.497767  2.043850  1.880088
N    -5.822092  3.266848  2.618419
C    -6.665944  4.237105  2.199493
N    -6.741790  5.378252  2.890098
N    -7.394203  4.076388  1.089182
H    -4.724536  -0.550674  1.782492
H    -3.701214  0.248825  0.599547
H    -3.364607  2.163897  2.252268
H    -4.259308  1.251036  3.470156
H    -6.309727  1.303677  1.985111
H    -5.411067  2.300893  0.814005
H    -5.557964  3.303046  3.598771
H    -7.499956  6.036459  2.740843
H    -6.044175  5.635586  3.579304
H    -7.910088  4.855870  0.692655
H    -7.625820  3.157707  0.731463
N    -3.373054  -2.845360  1.406638
C    -3.253317  -4.259901  1.011037
H    -4.309843  -2.450572  1.430413
H    -2.951520  -4.866821  1.873566
H    -2.510721  -4.364582  0.212477
H    -4.228742  -4.595800  0.650498
Cd    0.812238  -1.883112  1.838311
