37
Energy: -175315.014880 eV PBE+vdW (tier 2 basis)
C    -1.014611  -2.040256  -0.814487
C    -0.631796  -1.546237  0.538359
O    0.590246  -1.209974  0.710635
H    -0.395683  -2.911473  -1.072023
H    -0.778609  -1.259559  -1.553605
H    -2.075568  -2.302119  -0.893731
N    -1.578695  -1.467453  1.492157
C    -1.480844  -0.800680  2.802076
C    -0.768489  -1.703557  3.845042
O    0.472124  -1.465825  4.118449
H    -2.507860  -1.769599  1.203953
H    -0.792146  0.052274  2.680575
C    -2.850211  -0.193920  3.189730
C    -2.849737  0.629574  4.491110
C    -4.215082  1.308718  4.712781
N    -4.219416  2.106800  5.940424
C    -5.038282  3.153843  6.191813
N    -6.046603  3.447706  5.364178
N    -4.811856  3.915122  7.266313
H    -3.616781  -0.979829  3.237239
H    -3.128749  0.458559  2.347590
H    -2.068858  1.404107  4.451935
H    -2.619046  -0.016927  5.353703
H    -5.011610  0.545663  4.743764
H    -4.427623  1.983303  3.870745
H    -3.704161  1.746892  6.738271
H    -6.557176  4.320107  5.461218
H    -6.459684  2.751690  4.755384
H    -5.511081  4.567121  7.607516
H    -3.929119  3.891754  7.764329
N    -1.345218  -2.698971  4.487461
C    -2.717845  -3.215767  4.427168
H    -0.715722  -3.185418  5.132618
H    -3.379355  -2.657224  5.101422
H    -2.691485  -4.258875  4.758730
H    -3.104907  -3.194221  3.404630
Cd    1.720540  -0.944352  2.478526
