37
Energy: -175313.386342 eV PBE+vdW (tier 2 basis)
C    0.246282  -0.023398  -0.165319
C    0.158689  0.305457  1.283730
O    1.218004  0.619500  1.952832
H    0.932495  -0.870148  -0.301904
H    0.658830  0.858553  -0.687512
H    -0.700122  -0.289097  -0.634526
N    -0.965205  0.335032  2.018625
C    -2.280539  -0.312880  1.832779
C    -2.068798  -1.858506  1.726432
O    -1.242428  -2.267200  0.909982
H    -0.784029  0.639843  2.977057
H    -2.804975  -0.079838  2.767698
C    -3.107842  0.218840  0.632829
C    -4.579156  -0.256117  0.607085
C    -5.603136  0.574132  1.416486
N    -6.130213  1.754087  0.723474
C    -7.325250  1.838237  0.094194
N    -7.835261  3.044603  -0.175352
N    -7.995572  0.737544  -0.258170
H    -2.637312  -0.106760  -0.301971
H    -3.047313  1.317239  0.646705
H    -4.645141  -1.300203  0.947005
H    -4.900555  -0.279423  -0.443364
H    -5.176528  0.929485  2.365895
H    -6.457865  -0.057659  1.692075
H    -5.617573  2.625524  0.811423
H    -8.624942  3.154617  -0.804297
H    -7.523058  3.879385  0.309155
H    -7.552369  -0.170078  -0.319151
H    -8.961277  0.792192  -0.566821
N    -2.790218  -2.704741  2.495840
C    -3.630150  -2.446243  3.658220
H    -2.551931  -3.685266  2.323799
H    -3.049504  -2.519799  4.591049
H    -4.414356  -3.213244  3.694326
H    -4.108782  -1.464289  3.603616
Cd    3.144519  1.240334  1.243348
