37
Energy: -175315.058080 eV PBE+vdW (tier 2 basis)
C    -1.800697  -0.955573  -0.543017
C    -1.144378  -0.839748  0.790499
O    0.089300  -0.504401  0.806480
H    -1.292646  -1.736139  -1.128063
H    -1.657481  -0.013550  -1.092345
H    -2.870763  -1.181887  -0.480341
N    -1.875245  -1.078701  1.895098
C    -1.487539  -0.847609  3.296377
C    -0.594630  -1.996380  3.844008
O    0.684625  -1.810946  3.893668
H    -2.838874  -1.361652  1.727731
H    -0.816281  0.027117  3.303259
C    -2.700900  -0.474535  4.180311
C    -3.206904  0.966725  3.971258
C    -4.383134  1.287872  4.913086
N    -4.865137  2.655864  4.711158
C    -5.509977  3.406123  5.633376
N    -5.898504  2.875170  6.797757
N    -5.730341  4.699859  5.382567
H    -2.390732  -0.604579  5.228337
H    -3.520095  -1.189034  4.013760
H    -3.527209  1.107258  2.926291
H    -2.392834  1.682889  4.159373
H    -4.050452  1.198047  5.957321
H    -5.200186  0.563607  4.754186
H    -4.893518  3.006514  3.758185
H    -6.234730  3.469291  7.549369
H    -6.065247  1.881736  6.902448
H    -6.386046  5.240823  5.937256
H    -5.238467  5.194697  4.647128
N    -1.047042  -3.148467  4.292705
C    -2.413435  -3.668457  4.423003
H    -0.305597  -3.771775  4.626498
H    -2.351795  -4.761433  4.403887
H    -3.040234  -3.347094  3.586505
H    -2.858559  -3.362586  5.378147
Cd    1.587678  -0.778047  2.281736
