37
Energy: -175314.159629 eV PBE+vdW (tier 2 basis)
C    1.109580  -0.613828  1.559493
C    -0.013342  -1.415261  2.097605
O    0.242224  -2.384339  2.899655
H    1.798959  -1.316994  1.059110
H    1.694963  -0.161980  2.373143
H    0.793846  0.139476  0.831963
N    -1.306597  -1.192106  1.737113
C    -2.004566  0.095710  1.765920
C    -2.562406  0.280590  3.217411
O    -2.563521  -0.670885  4.086305
H    -1.921586  -1.995252  1.887226
H    -1.253655  0.883908  1.603615
C    -3.095797  0.198178  0.670845
C    -2.506728  0.167795  -0.752993
C    -3.437909  0.640665  -1.881932
N    -4.500552  -0.319464  -2.211187
C    -5.558490  -0.028234  -3.008955
N    -6.486042  -0.964836  -3.230320
N    -5.700390  1.190014  -3.538298
H    -3.636732  1.144690  0.819498
H    -3.842054  -0.597726  0.821142
H    -2.113529  -0.833064  -0.990185
H    -1.637358  0.841973  -0.794871
H    -2.810094  0.832349  -2.767630
H    -3.913359  1.590769  -1.596822
H    -4.247885  -1.303501  -2.178753
H    -7.186510  -0.853952  -3.956446
H    -6.528321  -1.816668  -2.683456
H    -6.557058  1.451820  -4.016693
H    -4.915288  1.820265  -3.650883
N    -3.070791  1.450702  3.540077
C    -3.628718  1.828084  4.846573
H    -3.112521  2.164100  2.812928
H    -3.268306  1.141290  5.615140
H    -4.725373  1.788137  4.805274
H    -3.314610  2.852325  5.075081
Cd    -1.219705  -2.296666  4.472628
