37
Energy: -175315.135044 eV PBE+vdW (tier 2 basis)
C    1.113307  0.342338  0.683265
C    0.293275  -0.261509  1.774836
O    0.386672  -1.531193  1.926987
H    2.179387  0.206136  0.919360
H    0.908641  1.405751  0.518707
H    0.930886  -0.214314  -0.247211
N    -0.482370  0.552054  2.509386
C    -1.562851  0.300662  3.503911
C    -1.038304  -0.137830  4.891103
O    -0.635798  -1.332184  5.157975
H    -0.377851  1.533593  2.260781
H    -1.990806  1.301074  3.656183
C    -2.717388  -0.598568  2.994401
C    -3.573711  0.067011  1.898078
C    -4.762103  -0.820440  1.471360
N    -5.538188  -0.246867  0.367949
C    -6.859665  0.042479  0.364596
N    -7.516010  0.075709  -0.797706
N    -7.514041  0.300743  1.503127
H    -3.345538  -0.834617  3.867656
H    -2.333558  -1.562541  2.624045
H    -2.954014  0.283604  1.014486
H    -3.952871  1.035496  2.259471
H    -5.439998  -1.004383  2.314793
H    -4.399757  -1.809359  1.149649
H    -5.099541  -0.263155  -0.548514
H    -8.427253  0.516669  -0.877397
H    -7.154215  -0.372473  -1.632780
H    -8.527840  0.348529  1.518131
H    -7.033602  0.607922  2.338497
N    -1.079394  0.749138  5.864331
C    -0.667282  0.523575  7.256451
H    -1.460492  1.670369  5.653116
H    -0.111969  1.403338  7.600435
H    -0.041308  -0.368967  7.318080
H    -1.558066  0.393375  7.885539
Cd    0.173614  -2.621165  3.711926
