37
Energy: -175314.952695 eV PBE+vdW (tier 2 basis)
C    -2.573931  -0.438964  -0.123172
C    -1.995312  -0.397572  1.252729
O    -1.339429  -1.430989  1.630244
H    -3.146027  -1.370347  -0.240775
H    -1.753151  -0.486471  -0.854499
H    -3.217929  0.416707  -0.353556
N    -2.206520  0.702587  1.994422
C    -1.961802  1.020694  3.427365
C    -0.472435  1.258162  3.755471
O    0.359527  0.296069  3.981449
H    -2.723044  1.424524  1.496806
H    -2.450388  1.994432  3.552200
C    -2.637456  0.056253  4.434703
C    -4.174982  0.171141  4.450611
C    -4.814412  -0.754962  5.506217
N    -6.279998  -0.727677  5.474151
C    -7.114861  -0.468723  6.506964
N    -8.356432  -0.959432  6.478300
N    -6.720381  0.274481  7.547408
H    -2.234067  0.299001  5.430278
H    -2.350042  -0.988183  4.235211
H    -4.581710  -0.082557  3.459521
H    -4.468970  1.212578  4.653023
H    -4.482320  -0.487448  6.517334
H    -4.490332  -1.795073  5.343557
H    -6.720185  -1.157687  4.665461
H    -9.081223  -0.599129  7.091516
H    -8.614855  -1.734668  5.877280
H    -7.284650  0.326705  8.389517
H    -5.945649  0.921316  7.480590
N    -0.013962  2.484865  3.904210
C    -0.703221  3.781186  3.816531
H    0.975445  2.525646  4.167632
H    -1.430356  3.792314  2.998730
H    0.053787  4.543720  3.606064
H    -1.188355  4.027486  4.769984
Cd    0.252627  -1.555983  3.000521
