37
Energy: -175313.951627 eV PBE+vdW (tier 2 basis)
C    -0.337312  -1.112394  0.663515
C    -0.204344  -0.058563  1.708280
O    0.875080  0.070842  2.412606
H    0.359148  -0.893059  -0.161738
H    -1.341102  -1.193454  0.238187
H    -0.058269  -2.086165  1.088234
N    -1.175671  0.791004  2.017661
C    -2.542884  0.900629  1.502295
C    -2.853682  2.423164  1.625994
O    -2.346864  3.044790  2.561273
H    -0.954400  1.525668  2.706782
H    -2.555653  0.579187  0.454723
C    -3.606978  0.079777  2.292032
C    -3.675409  0.344566  3.803243
C    -4.715897  -0.505151  4.556733
N    -6.083457  0.007901  4.414909
C    -7.203320  -0.676692  4.756728
N    -8.397939  -0.110864  4.553272
N    -7.122475  -1.910186  5.259899
H    -3.390468  -0.984521  2.105711
H    -4.580406  0.274607  1.815728
H    -3.849808  1.410600  4.019512
H    -2.704628  0.113829  4.264836
H    -4.432542  -0.516273  5.622727
H    -4.698826  -1.543410  4.192906
H    -6.184925  1.019385  4.377636
H    -9.245953  -0.508835  4.945295
H    -8.506639  0.727410  3.993818
H    -7.956273  -2.474640  5.392720
H    -6.271071  -2.261363  5.681708
N    -3.686392  3.009429  0.734051
C    -4.209133  2.493268  -0.522857
H    -3.775119  4.017750  0.886092
H    -5.147359  3.015985  -0.746238
H    -4.409834  1.418865  -0.465420
H    -3.515424  2.692294  -1.355758
Cd    2.936552  -0.324647  2.010885
