37
Energy: -175313.905379 eV PBE+vdW (tier 2 basis)
C    -0.067977  -1.244326  0.131133
C    -0.145991  -0.358882  1.326087
O    0.791734  -0.262699  2.197125
H    -0.707180  -0.914473  -0.694142
H    -0.366474  -2.266445  0.416477
H    0.965466  -1.297158  -0.234152
N    -1.243346  0.368127  1.597222
C    -2.593593  0.203057  1.030530
C    -2.939260  1.273888  -0.056462
O    -3.960557  1.057242  -0.723151
H    -1.177510  0.908849  2.464885
H    -2.627490  -0.754828  0.496563
C    -3.633618  0.173943  2.178548
C    -5.070717  -0.245754  1.793854
C    -6.054560  0.942137  1.623024
N    -7.381492  0.518402  1.196446
C    -7.810919  0.406706  -0.084098
N    -9.098151  0.117062  -0.304482
N    -6.963680  0.582893  -1.098183
H    -3.635814  1.146181  2.697902
H    -3.259136  -0.559898  2.906970
H    -5.464657  -0.885864  2.594507
H    -5.062317  -0.864686  0.886093
H    -5.676597  1.680390  0.904258
H    -6.181672  1.459403  2.583070
H    -8.048619  0.274074  1.924803
H    -9.454086  -0.047367  -1.241440
H    -9.785972  0.120823  0.442275
H    -5.962173  0.707828  -0.958561
H    -7.300871  0.604133  -2.055047
N    -2.149909  2.337647  -0.212918
C    -2.425860  3.416435  -1.167681
H    -1.364111  2.452592  0.420059
H    -1.476195  3.871108  -1.466513
H    -3.062919  4.187404  -0.713994
H    -2.931274  3.000083  -2.044775
Cd    2.911820  -0.739075  2.204485
