37
Energy: -175313.855448 eV PBE+vdW (tier 2 basis)
C    0.022694  0.864391  -0.205794
C    0.200839  0.764686  1.278925
O    1.234042  1.123006  1.859273
H    -0.217446  1.912330  -0.447672
H    -0.771409  0.221718  -0.600205
H    0.976058  0.636298  -0.696414
N    -0.861592  0.254903  2.009074
C    -0.819352  -0.113320  3.410671
C    -0.746381  1.157632  4.336113
O    -1.714099  1.238062  5.169343
H    -1.694314  -0.013046  1.487996
H    -1.794830  -0.564037  3.635661
C    0.294394  -1.137089  3.807610
C    0.139882  -2.461562  3.039049
C    1.296854  -3.461578  3.220564
N    1.185057  -4.283268  4.426940
C    2.170397  -5.087886  4.902500
N    3.348418  -5.163701  4.281780
N    1.952972  -5.784000  6.023173
H    0.230271  -1.299666  4.893491
H    1.276530  -0.689207  3.602505
H    0.097891  -2.248100  1.961871
H    -0.817217  -2.951466  3.279941
H    2.262076  -2.933066  3.245924
H    1.300305  -4.115366  2.329821
H    0.243284  -4.521366  4.729107
H    4.126032  -5.667064  4.698645
H    3.467675  -4.876203  3.317639
H    1.150632  -5.609263  6.617814
H    2.589364  -6.516701  6.322933
N    0.253139  1.996156  4.196209
C    0.459115  3.225801  4.950724
H    0.885958  1.766875  3.391189
H    1.378741  3.701694  4.590350
H    0.601674  3.021169  6.023123
H    -0.354301  3.951674  4.776568
Cd    -2.333518  2.790114  6.560689
