37
Energy: -175314.839746 eV PBE+vdW (tier 2 basis)
C    0.484744  -1.639906  1.046439
C    0.297711  -0.640788  2.136569
O    1.164824  0.295339  2.223643
H    1.479945  -2.097075  1.135032
H    0.470523  -1.109068  0.081752
H    -0.284924  -2.419371  1.037353
N    -0.769502  -0.760638  2.949072
C    -1.323222  0.239135  3.883507
C    -0.672126  0.114712  5.283239
O    0.459114  0.679977  5.524703
H    -1.341408  -1.585485  2.781049
H    -0.988622  1.224868  3.519398
C    -2.874354  0.307051  3.785709
C    -3.724781  -0.945675  4.094065
C    -5.125770  -0.950514  3.440603
N    -6.079698  -0.026004  4.057825
C    -7.416143  -0.242248  4.155528
N    -8.152426  0.588472  4.898870
N    -7.992729  -1.280968  3.545404
H    -3.072302  0.621903  2.749326
H    -3.182986  1.150740  4.420781
H    -3.865665  -1.093159  5.176474
H    -3.237978  -1.860862  3.720724
H    -5.532945  -1.963312  3.554480
H    -5.030701  -0.748463  2.360305
H    -5.790470  0.936544  4.201845
H    -7.735260  1.207101  5.584985
H    -9.165687  0.596892  4.833349
H    -8.949631  -1.543016  3.763755
H    -7.581996  -1.723844  2.731911
N    -1.250033  -0.555392  6.255058
C    -0.677428  -0.725474  7.602109
H    -2.153992  -0.980674  6.068436
H    -0.551247  0.252166  8.082506
H    0.297131  -1.223282  7.534785
H    -1.363300  -1.339703  8.190553
Cd    1.722335  1.356024  3.963855
