37
Energy: -175314.070269 eV PBE+vdW (tier 2 basis)
C    0.730676  -0.314973  0.593339
C    0.420334  0.295448  1.905977
O    1.370259  0.821217  2.590555
H    1.231688  0.404953  -0.068752
H    -0.140118  -0.766199  0.108991
H    1.474307  -1.111398  0.777783
N    -0.829582  0.278249  2.443222
C    -2.071396  0.727478  1.797461
C    -1.988935  2.279156  1.744783
O    -1.362701  2.929813  2.672802
H    -0.840049  0.403486  3.458211
H    -2.104958  0.323520  0.777424
C    -3.269339  0.192834  2.632921
C    -4.676089  0.459629  2.071279
C    -5.833705  -0.021014  2.971367
N    -6.097935  -1.461176  2.887848
C    -7.312886  -2.034475  3.055117
N    -7.474373  -3.324350  2.742301
N    -8.350089  -1.322135  3.505076
H    -3.197001  0.620829  3.646766
H    -3.083533  -0.887527  2.732956
H    -4.793126  0.015409  1.071645
H    -4.828439  1.542639  1.958926
H    -6.743942  0.492686  2.635906
H    -5.649610  0.280567  4.016310
H    -5.310956  -2.101529  2.878477
H    -6.821744  -3.815721  2.142392
H    -8.294350  -3.840772  3.044616
H    -9.293312  -1.695762  3.460604
H    -8.226076  -0.477044  4.049721
N    -2.568096  2.980859  0.791537
C    -3.365866  2.557692  -0.363955
H    -2.434959  3.993059  0.883759
H    -4.400448  2.904018  -0.247517
H    -3.354543  1.472223  -0.480784
H    -2.943022  3.023434  -1.262959
Cd    0.639171  2.671680  3.412077
