37
Energy: -175313.619532 eV PBE+vdW (tier 2 basis)
C    -2.885747  -0.922755  0.370894
C    -1.684029  -0.046922  0.461453
O    -1.209399  0.605545  -0.536497
H    -2.585674  -1.917761  0.003498
H    -3.594400  -0.514253  -0.361082
H    -3.408536  -1.046774  1.325106
N    -0.975125  0.067775  1.597403
C    -1.083838  -0.773792  2.787152
C    -1.980957  -0.116960  3.919769
O    -2.802074  -0.901877  4.397580
H    -0.193817  0.725777  1.543748
H    -1.652149  -1.667419  2.513002
C    0.294026  -1.214780  3.340052
C    0.176309  -2.232676  4.489525
C    1.551871  -2.728501  4.966853
N    1.394831  -3.677673  6.070813
C    2.319090  -4.574139  6.484154
N    1.965955  -5.502341  7.380649
N    3.560447  -4.549413  5.992940
H    0.874642  -0.337942  3.664214
H    0.840832  -1.666568  2.497139
H    -0.423704  -3.095504  4.163910
H    -0.354855  -1.778503  5.340062
H    2.168090  -1.870923  5.290091
H    2.082987  -3.237286  4.148070
H    0.569552  -3.580184  6.656678
H    0.993950  -5.704312  7.589996
H    2.661200  -6.071403  7.854199
H    4.213970  -5.300741  6.191658
H    3.945555  -3.722050  5.553548
N    -1.812770  1.143046  4.334089
C    -0.883560  2.173258  3.870353
H    -2.470081  1.417546  5.065198
H    -0.807848  2.932391  4.655851
H    -1.243977  2.669131  2.959228
H    0.125806  1.773895  3.717088
Cd    -2.135726  1.424560  -2.331494
