37
Energy: -175314.049926 eV PBE+vdW (tier 2 basis)
C    -0.323136  1.528847  1.414543
C    -0.046083  0.175576  1.957878
O    1.102085  -0.349623  1.730949
H    -0.965393  2.122623  2.070454
H    -0.805548  1.435757  0.425543
H    0.631537  2.042289  1.241961
N    -0.946934  -0.536294  2.686828
C    -2.368421  -0.798854  2.373042
C    -2.387263  -1.648703  1.066211
O    -1.409988  -2.430304  0.757668
H    -0.515099  -1.259140  3.264310
H    -2.679131  -1.510187  3.156786
C    -3.312385  0.428762  2.477389
C    -4.733005  0.073160  2.971210
C    -5.695733  1.261836  3.147298
N    -5.432660  2.027780  4.373340
C    -5.996938  3.230580  4.652128
N    -5.681323  3.848398  5.793802
N    -6.825093  3.815689  3.782368
H    -3.356276  0.973471  1.522176
H    -2.851378  1.113038  3.202600
H    -4.667940  -0.486415  3.918809
H    -5.239311  -0.617748  2.279567
H    -6.722454  0.861368  3.161202
H    -5.613336  1.945811  2.289556
H    -5.161533  1.485562  5.189912
H    -6.211498  4.647490  6.126875
H    -4.914724  3.536402  6.378692
H    -7.139579  4.770405  3.927892
H    -7.319470  3.286555  3.074014
N    -3.450886  -1.645572  0.292624
C    -3.621529  -2.478450  -0.909962
H    -4.242125  -1.073259  0.576039
H    -2.746973  -2.379443  -1.561701
H    -4.514289  -2.136104  -1.439489
H    -3.744408  -3.530918  -0.624174
Cd    0.709001  -2.354860  1.049763
