37
Energy: -175314.817659 eV PBE+vdW (tier 2 basis)
C    -1.569069  2.335021  1.479269
C    -1.851317  0.898617  1.760595
O    -2.469174  0.239498  0.855342
H    -1.016294  2.833001  2.283255
H    -2.515325  2.862995  1.294521
H    -0.988747  2.401358  0.546277
N    -1.432934  0.372133  2.927252
C    -1.349182  -1.052688  3.305028
C    -2.684098  -1.541915  3.921530
O    -3.626620  -1.977252  3.160006
H    -0.993695  1.036303  3.560895
H    -1.267121  -1.619356  2.362721
C    -0.020743  -1.370282  4.047919
C    0.300133  -0.678822  5.390323
C    1.797892  -0.654287  5.758204
N    2.337811  -1.981627  6.076977
C    3.664389  -2.266007  6.144571
N    4.579526  -1.316548  5.932128
N    4.046818  -3.522074  6.388499
H    0.770105  -1.119647  3.324436
H    0.020814  -2.462734  4.161817
H    -0.244351  -1.143688  6.229346
H    -0.006728  0.379174  5.389825
H    1.921779  0.029628  6.613684
H    2.372722  -0.246781  4.913836
H    1.742988  -2.596785  6.626184
H    5.561742  -1.556841  5.835046
H    4.371952  -0.333072  6.059366
H    3.401591  -4.301296  6.326590
H    5.006005  -3.743957  6.636786
N    -2.891381  -1.529006  5.219691
C    -4.145807  -1.952226  5.866962
H    -2.134614  -1.214048  5.820031
H    -4.988727  -1.386388  5.454131
H    -4.061100  -1.755668  6.938372
H    -4.313377  -3.022909  5.699323
Cd    -3.683859  -1.472825  1.102261
