37
Energy: -175313.953958 eV PBE+vdW (tier 2 basis)
C    -0.545603  -0.906006  0.288168
C    -0.285937  -0.150706  1.545889
O    0.801198  -0.318955  2.229557
H    0.179809  -0.591273  -0.479146
H    -1.548182  -0.757956  -0.121576
H    -0.397419  -1.979275  0.469457
N    -1.147524  0.709793  2.073359
C    -2.491344  1.098397  1.637240
C    -2.615298  2.575037  2.121052
O    -2.043360  2.893343  3.164926
H    -0.839100  1.228224  2.909664
H    -2.543520  1.035558  0.544521
C    -3.647322  0.247994  2.245173
C    -3.668228  0.139997  3.777011
C    -4.807046  -0.728116  4.343902
N    -6.092425  -0.021876  4.395245
C    -7.290230  -0.617086  4.620321
N    -8.397968  0.132191  4.621005
N    -7.372241  -1.935920  4.807581
H    -3.573446  -0.756466  1.798076
H    -4.590675  0.673801  1.869235
H    -3.695594  1.133540  4.252222
H    -2.733460  -0.319814  4.128481
H    -4.515812  -1.042268  5.360442
H    -4.936997  -1.635556  3.735253
H    -6.053061  0.972628  4.605458
H    -9.286145  -0.235764  4.947972
H    -8.398317  1.090176  4.289585
H    -6.569180  -2.488254  5.083227
H    -8.273664  -2.402030  4.846332
N    -3.364105  3.450175  1.409667
C    -3.935527  3.311134  0.077747
H    -3.331118  4.397455  1.795960
H    -3.214952  3.613024  -0.699559
H    -4.799461  3.982866  0.001973
H    -4.268984  2.286281  -0.113162
Cd    2.797564  -0.854415  1.686103
