37
Energy: -175315.026543 eV PBE+vdW (tier 2 basis)
C    -3.009755  0.117362  -0.269677
C    -2.416667  -0.223206  1.057355
O    -2.076895  -1.445331  1.238130
H    -3.839726  -0.574161  -0.474950
H    -2.259022  -0.060403  -1.053973
H    -3.370829  1.149348  -0.336662
N    -2.290358  0.759046  1.964936
C    -1.956459  0.764511  3.415600
C    -0.458906  0.533155  3.706360
O    0.089821  -0.636336  3.701715
H    -2.583633  1.666967  1.611029
H    -2.155071  1.802275  3.708975
C    -2.865590  -0.123402  4.302458
C    -4.311034  0.402979  4.406189
C    -5.135605  -0.362189  5.457637
N    -6.477493  0.213658  5.579645
C    -7.557244  -0.410297  6.102192
N    -8.760292  0.158088  5.983263
N    -7.434024  -1.598930  6.703788
H    -2.407110  -0.144450  5.303656
H    -2.873830  -1.164908  3.946031
H    -4.818099  0.341229  3.432182
H    -4.279358  1.468509  4.687935
H    -4.612366  -0.332726  6.428730
H    -5.242787  -1.416124  5.161375
H    -6.570447  1.215416  5.439217
H    -9.550805  -0.157916  6.536123
H    -8.934314  0.913586  5.329907
H    -8.257786  -2.133595  6.961859
H    -6.558621  -1.898619  7.115642
N    0.305237  1.544787  4.065543
C    -0.025850  2.965984  4.258854
H    1.270151  1.277721  4.282442
H    -0.627067  3.350069  3.428034
H    0.916026  3.522899  4.279237
H    -0.539622  3.121063  5.216325
Cd    -0.524573  -2.196060  2.441902
