37
Energy: -175313.931860 eV PBE+vdW (tier 2 basis)
C    -0.402370  0.764556  -0.450510
C    0.037639  -0.037197  0.724443
O    1.249321  -0.421432  0.904099
H    0.380703  1.479177  -0.735354
H    -1.327681  1.321748  -0.273391
H    -0.557304  0.091850  -1.309899
N    -0.831753  -0.462569  1.655344
C    -2.301537  -0.509031  1.567773
C    -3.007656  0.732049  2.202949
O    -4.157436  0.964775  1.809109
H    -0.404254  -1.023364  2.398830
H    -2.583781  -0.469845  0.509129
C    -2.791292  -1.838456  2.202973
C    -4.305571  -2.023110  2.399923
C    -5.129292  -2.095027  1.092598
N    -6.557959  -2.256198  1.335200
C    -7.471597  -1.259049  1.408255
N    -8.768395  -1.583249  1.472294
N    -7.084977  0.017199  1.411362
H    -2.327453  -1.936233  3.197987
H    -2.389328  -2.659105  1.589074
H    -4.710122  -1.234701  3.048613
H    -4.438955  -2.966131  2.948539
H    -4.810140  -2.958749  0.492598
H    -4.989806  -1.198854  0.473173
H    -6.901857  -3.202763  1.480420
H    -9.484003  -0.882502  1.641708
H    -9.096654  -2.526395  1.288324
H    -6.111230  0.294659  1.523959
H    -7.768542  0.762828  1.330283
N    -2.368323  1.452854  3.130752
C    -2.982660  2.574719  3.844686
H    -1.455587  1.135363  3.444929
H    -2.194392  3.270422  4.150036
H    -3.513884  2.226123  4.741352
H    -3.693226  3.077185  3.180379
Cd    3.180751  0.255851  0.180242
