37
Energy: -175314.442924 eV PBE+vdW (tier 2 basis)
C    0.402955  1.764260  1.347121
C    0.148288  0.304892  1.525049
O    0.983417  -0.494180  0.971149
H    1.388849  2.014177  1.764803
H    -0.364231  2.400598  1.801705
H    0.458000  1.980469  0.269373
N    -0.931141  -0.069984  2.231782
C    -1.636934  -1.372810  2.395116
C    -0.903279  -2.328904  3.360786
O    0.071986  -3.086838  2.986234
H    -1.451602  0.719519  2.608936
H    -2.564623  -1.082953  2.903074
C    -2.059008  -2.025114  1.055861
C    -3.207382  -3.041887  1.211646
C    -3.779134  -3.477408  -0.150637
N    -4.921214  -4.377138  0.028981
C    -5.418539  -5.212320  -0.911687
N    -6.345146  -6.109073  -0.563292
N    -4.967969  -5.167646  -2.170498
H    -1.204429  -2.498647  0.546180
H    -2.379425  -1.200930  0.401591
H    -4.014842  -2.574220  1.799204
H    -2.874517  -3.931385  1.767619
H    -3.011916  -4.012219  -0.729687
H    -4.076682  -2.582875  -0.724231
H    -5.510693  -4.227678  0.842597
H    -6.892831  -6.601340  -1.262076
H    -6.522778  -6.348105  0.405896
H    -5.228830  -5.887928  -2.837099
H    -4.553898  -4.328385  -2.558004
N    -1.308931  -2.443278  4.609448
C    -2.424051  -1.777493  5.302954
H    -0.768797  -3.113377  5.164375
H    -3.389916  -2.184677  4.978597
H    -2.391769  -0.692714  5.153850
H    -2.310751  -1.974797  6.373189
Cd    1.477765  -2.446612  1.553096
