37
Energy: -175315.064969 eV PBE+vdW (tier 2 basis)
C    0.295885  -2.317894  1.813554
C    0.117617  -0.943528  2.361547
O    0.964638  -0.055625  1.999380
H    0.289161  -2.256790  0.714277
H    -0.480703  -3.018433  2.138723
H    1.287014  -2.699643  2.096111
N    -0.921889  -0.701915  3.182624
C    -1.492830  0.599249  3.581977
C    -0.861166  1.114579  4.898161
O    0.351166  1.545792  4.911263
H    -1.474687  -1.521855  3.421427
H    -1.156051  1.331213  2.827337
C    -3.040609  0.607464  3.454915
C    -3.892748  -0.490614  4.128353
C    -5.377443  -0.303719  3.749183
N    -6.224220  -1.333731  4.352853
C    -7.553911  -1.214120  4.583511
N    -8.177253  -2.157422  5.294307
N    -8.232641  -0.152214  4.137461
H    -3.242231  0.579391  2.373652
H    -3.377597  1.602194  3.785256
H    -3.809653  -0.491306  5.226550
H    -3.574428  -1.492593  3.795159
H    -5.474341  -0.312582  2.650169
H    -5.725907  0.675161  4.109086
H    -5.855650  -2.279610  4.395053
H    -7.668036  -2.830480  5.856279
H    -9.190334  -2.222410  5.311582
H    -9.186303  0.016682  4.443422
H    -7.915822  0.390269  3.342684
N    -1.548620  1.152370  6.017842
C    -1.037606  1.659716  7.301795
H    -2.498430  0.791525  6.001875
H    -0.391530  2.524890  7.124825
H    -0.464226  0.876420  7.814451
H    -1.890488  1.952507  7.920363
Cd    1.595991  1.566001  3.197111
