37
Energy: -175314.435143 eV PBE+vdW (tier 2 basis)
C    -1.489140  -0.934456  -0.424235
C    -1.399546  -0.833640  1.062075
O    -0.772307  -1.774100  1.662358
H    -0.474616  -0.952530  -0.847581
H    -2.066747  -0.124758  -0.883442
H    -1.951312  -1.899232  -0.682286
N    -1.986240  0.216556  1.663407
C    -2.290799  0.517852  3.090198
C    -1.025945  0.961502  3.864229
O    -0.218852  0.122479  4.415361
H    -2.410948  0.867365  1.006266
H    -2.936451  1.402301  3.026796
C    -3.096523  -0.594519  3.800177
C    -3.829547  -0.161556  5.094532
C    -5.299428  0.241499  4.866316
N    -5.963482  0.525547  6.140003
C    -7.266853  0.304753  6.426091
N    -7.670674  0.343871  7.698650
N    -8.142664  0.026302  5.453904
H    -2.446779  -1.450066  4.043787
H    -3.814036  -0.989818  3.066840
H    -3.285474  0.656652  5.594759
H    -3.814519  -1.004248  5.798180
H    -5.830604  -0.595202  4.390518
H    -5.372255  1.111776  4.191267
H    -5.427946  1.009016  6.854920
H    -8.655080  0.411622  7.938067
H    -7.017432  0.278776  8.471641
H    -9.077029  -0.301046  5.680120
H    -7.989896  0.321408  4.497234
N    -0.766975  2.244710  4.021472
C    -1.526699  3.416494  3.556698
H    0.092591  2.438777  4.542839
H    -1.616263  3.419638  2.463855
H    -0.969819  4.309993  3.853516
H    -2.516924  3.461721  4.026301
Cd    0.174213  -1.759440  3.538166
