37
Energy: -175313.868221 eV PBE+vdW (tier 2 basis)
C    1.403078  -1.122013  -0.857090
C    0.843479  0.258999  -0.861113
O    1.520068  1.279470  -1.269606
H    1.348561  -1.524273  -1.881160
H    0.868837  -1.809116  -0.193769
H    2.455148  -1.104867  -0.543019
N    -0.401587  0.519190  -0.468614
C    -1.450660  -0.444950  -0.099942
C    -1.856335  -1.277591  -1.348008
O    -1.592357  -0.855924  -2.473295
H    -0.682648  1.493674  -0.578781
H    -1.032887  -1.108074  0.670295
C    -2.669412  0.282139  0.524050
C    -3.588475  1.059786  -0.437828
C    -4.730220  1.739936  0.335890
N    -5.655896  2.421406  -0.572122
C    -6.913555  2.810955  -0.263253
N    -7.713086  3.258586  -1.238279
N    -7.362823  2.732129  0.991660
H    -2.284310  0.942760  1.316874
H    -3.260918  -0.485654  1.042961
H    -4.017574  0.379451  -1.188296
H    -3.022249  1.824875  -0.994402
H    -4.312826  2.457806  1.063720
H    -5.299422  0.984755  0.899519
H    -5.291313  2.744040  -1.464033
H    -8.591743  3.723006  -1.029769
H    -7.501861  3.104563  -2.218268
H    -8.343877  2.885070  1.204371
H    -6.734605  2.674018  1.784054
N    -2.525946  -2.451042  -1.177638
C    -2.680539  -3.278667  0.007483
H    -2.770395  -2.890243  -2.069536
H    -2.046991  -4.177206  -0.061850
H    -3.723488  -3.624808  0.068533
H    -2.435747  -2.733976  0.922469
Cd    3.575774  1.498172  -1.828062
