37
Energy: -175313.553417 eV PBE+vdW (tier 2 basis)
C    0.397878  0.628687  0.142188
C    0.022211  0.530375  1.581428
O    0.902953  0.588591  2.526931
H    0.769327  1.642488  -0.070567
H    -0.422781  0.404398  -0.544458
H    1.212889  -0.078832  -0.070557
N    -1.233929  0.412119  1.995499
C    -2.497255  0.594475  1.257050
C    -3.347408  1.493149  2.196539
O    -3.320517  1.233604  3.401219
H    -1.378278  0.370901  3.013950
H    -2.285528  1.079325  0.298402
C    -3.204278  -0.775185  1.049002
C    -4.554710  -0.667434  0.318205
C    -5.253367  -2.007318  0.037372
N    -5.880669  -2.588133  1.229100
C    -6.401741  -3.837416  1.293730
N    -6.912137  -4.269691  2.452338
N    -6.383277  -4.638888  0.226948
H    -3.327051  -1.244828  2.036318
H    -2.518811  -1.413894  0.472301
H    -4.408151  -0.193607  -0.663536
H    -5.249194  -0.010094  0.865983
H    -4.536146  -2.737219  -0.368540
H    -6.020002  -1.826983  -0.736034
H    -6.201204  -1.939367  1.943355
H    -7.459275  -5.123528  2.503923
H    -6.763451  -3.772357  3.323253
H    -6.255984  -4.279708  -0.711748
H    -6.659598  -5.613170  0.301545
N    -4.105612  2.507974  1.707566
C    -4.123497  3.116072  0.388728
H    -4.601709  3.012200  2.448497
H    -3.483884  4.013912  0.360085
H    -5.148540  3.442855  0.166527
H    -3.799656  2.414528  -0.384563
Cd    3.028267  0.376065  2.575498
