37
Energy: -175314.896682 eV PBE+vdW (tier 2 basis)
C    -0.652386  -0.297905  -0.482828
C    -0.829749  -0.338434  0.998181
O    -0.501151  -1.429578  1.584766
H    0.407161  -0.462903  -0.726059
H    -0.995751  0.637170  -0.938729
H    -1.207414  -1.139346  -0.924506
N    -1.327195  0.750514  1.608172
C    -1.874488  0.989819  2.973960
C    -0.768755  1.122815  4.043616
O    -0.222603  0.102496  4.614954
H    -1.500197  1.520538  0.965023
H    -2.326791  1.984625  2.881945
C    -3.020809  0.024582  3.363087
C    -3.911941  0.566283  4.498538
C    -5.191179  -0.273117  4.675711
N    -6.051164  0.302332  5.712850
C    -7.037488  -0.352047  6.367513
N    -7.622514  0.231558  7.416992
N    -7.404291  -1.583068  5.993678
H    -2.639815  -0.974796  3.628262
H    -3.623071  -0.116032  2.453325
H    -4.201714  1.602334  4.256486
H    -3.361972  0.597099  5.451223
H    -4.932346  -1.298484  4.978360
H    -5.727918  -0.327617  3.713106
H    -6.048108  1.312898  5.815398
H    -8.495000  -0.120485  7.798301
H    -7.212484  1.033323  7.882870
H    -8.034686  -2.130753  6.571510
H    -7.260070  -1.917308  5.048439
N    -0.392901  2.316688  4.456508
C    -0.875089  3.647929  4.051881
H    0.333657  2.299618  5.177948
H    -0.849976  3.762952  2.962576
H    -0.197455  4.389289  4.485728
H    -1.884248  3.837301  4.438474
Cd    0.140900  -1.687289  3.563740
