37
Energy: -175313.775794 eV PBE+vdW (tier 2 basis)
C    0.119261  -0.634221  -0.398292
C    -0.134518  -0.592368  1.077281
O    0.291806  -1.429765  1.875351
H    1.201001  -0.594883  -0.586075
H    -0.373609  0.173890  -0.949479
H    -0.234033  -1.602452  -0.779991
N    -0.886485  0.474990  1.560259
C    -1.165807  0.614113  2.966953
C    -2.639324  1.080720  3.153419
O    -3.442272  0.140141  3.462011
H    -1.063028  1.247928  0.920763
H    -1.123330  -0.408063  3.373777
C    -0.169701  1.513390  3.766537
C    1.279506  0.992225  3.795380
C    1.515540  -0.231122  4.709367
N    2.919633  -0.627425  4.754907
C    3.481214  -1.710004  4.162892
N    2.818704  -2.412869  3.244406
N    4.721987  -2.057665  4.525038
H    -0.557117  1.627382  4.790424
H    -0.147550  2.520750  3.321209
H    1.899544  1.826905  4.157450
H    1.640401  0.774697  2.780769
H    0.923922  -1.099816  4.397748
H    1.217993  0.011328  5.740883
H    3.541879  -0.050005  5.316407
H    3.180743  -3.305688  2.924772
H    1.972999  -2.071375  2.787602
H    5.159512  -1.692348  5.365455
H    5.244929  -2.763813  4.015212
N    -2.954576  2.352079  2.994081
C    -4.288509  2.946626  3.122571
H    -2.188530  2.996123  2.805446
H    -4.204328  4.024794  2.950023
H    -4.684394  2.807940  4.139712
H    -4.972525  2.545953  2.360599
Cd    -5.597438  -0.098169  3.795892
