37
Energy: -175314.067062 eV PBE+vdW (tier 2 basis)
C    0.789877  0.941843  -0.093935
C    0.084072  -0.202117  0.535760
O    0.020016  -1.305496  -0.114249
H    1.543730  0.547207  -0.788478
H    1.256506  1.603368  0.639697
H    0.079874  1.518705  -0.711436
N    -0.488435  -0.142734  1.767442
C    -1.417599  0.877279  2.302726
C    -2.721455  0.812204  1.449435
O    -3.072204  -0.261434  0.827476
H    -0.610115  -1.062931  2.193030
H    -1.722232  0.460281  3.277675
C    -0.823197  2.272700  2.600460
C    0.386915  2.195998  3.559216
C    0.670860  3.443128  4.411931
N    1.224589  4.573552  3.652718
C    1.358293  5.825151  4.162280
N    1.860109  6.793100  3.389617
N    0.957740  6.103201  5.405575
H    -1.613190  2.852802  3.103287
H    -0.583803  2.812600  1.674381
H    1.298016  1.900822  3.016012
H    0.216727  1.388444  4.287273
H    1.369921  3.140576  5.209026
H    -0.259105  3.779552  4.893838
H    1.885335  4.343201  2.915601
H    2.142250  7.687496  3.778106
H    1.971250  6.676750  2.389304
H    0.927427  7.062067  5.739035
H    0.853553  5.382242  6.109591
N    -3.543059  1.838596  1.432857
C    -4.854757  1.860817  0.763864
H    -3.287219  2.661021  1.974029
H    -5.580781  1.274596  1.341709
H    -4.768051  1.441311  -0.243226
H    -5.189945  2.899385  0.703571
Cd    -2.038898  -1.932556  -0.010754
