37
Energy: -175315.061728 eV PBE+vdW (tier 2 basis)
C    0.189338  0.789406  0.294706
C    -0.236821  0.078846  1.534171
O    0.573484  0.093366  2.522999
H    0.445256  1.827942  0.551024
H    -0.574987  0.785788  -0.490118
H    1.111602  0.327343  -0.086687
N    -1.440347  -0.523145  1.553738
C    -2.130637  -1.115535  2.711174
C    -1.595763  -2.538733  3.036117
O    -0.746176  -2.671089  4.002522
H    -1.968057  -0.470777  0.684610
H    -1.841654  -0.523242  3.595220
C    -3.668362  -1.000027  2.590505
C    -4.212817  0.416925  2.859341
C    -5.752190  0.440525  2.812540
N    -6.267559  1.779961  3.104939
C    -7.493536  2.238288  2.764187
N    -7.774597  3.534039  2.928785
N    -8.407898  1.416250  2.237869
H    -4.104788  -1.702680  3.316745
H    -3.993556  -1.345639  1.598531
H    -3.817842  1.135231  2.125422
H    -3.876643  0.751226  3.854356
H    -6.153253  -0.294034  3.531826
H    -6.099297  0.155655  1.808404
H    -5.757488  2.340732  3.781092
H    -8.729495  3.876255  2.891210
H    -7.048044  4.224971  3.078652
H    -9.265613  1.785569  1.839171
H    -8.382663  0.416710  2.399417
N    -1.966479  -3.638797  2.414945
C    -2.926884  -3.861441  1.327839
H    -1.515525  -4.482206  2.782483
H    -2.628193  -4.777814  0.808345
H    -2.906998  -3.038633  0.607893
H    -3.940139  -4.002024  1.724978
Cd    0.746016  -1.183790  4.207466
