37
Energy: -175314.995927 eV PBE+vdW (tier 2 basis)
C    0.553993  -1.683439  -0.479001
C    0.034164  -1.391238  0.886720
O    0.898319  -1.198781  1.809780
H    1.181362  -0.838939  -0.803285
H    -0.239801  -1.844927  -1.216800
H    1.210989  -2.563603  -0.438982
N    -1.297674  -1.330211  1.074047
C    -2.016068  -0.823317  2.256303
C    -2.105133  -1.900065  3.371161
O    -1.287119  -1.820346  4.368757
H    -1.858747  -1.505794  0.242224
H    -1.386315  -0.036097  2.703812
C    -3.325791  -0.126235  1.818209
C    -4.119748  0.541709  2.956403
C    -5.277367  1.389645  2.394908
N    -6.020467  2.050133  3.470171
C    -7.285609  2.519490  3.372499
N    -7.909252  2.946494  4.474184
N    -7.922093  2.528578  2.196382
H    -3.968037  -0.829158  1.269703
H    -3.017373  0.641537  1.091498
H    -3.448708  1.191975  3.541032
H    -4.524951  -0.209613  3.651123
H    -5.978216  0.745146  1.844202
H    -4.875191  2.134659  1.687300
H    -5.491788  2.369837  4.276538
H    -8.762597  3.493485  4.419367
H    -7.568538  2.725009  5.402963
H    -8.915840  2.731890  2.148591
H    -7.419544  2.541679  1.317077
N    -2.970352  -2.893326  3.381832
C    -4.026580  -3.259271  2.430545
H    -2.876481  -3.506158  4.197064
H    -3.709997  -3.081602  1.399097
H    -4.956101  -2.717811  2.647236
H    -4.217575  -4.330942  2.547634
Cd    0.711223  -1.254390  3.915705
