37
Energy: -175314.514764 eV PBE+vdW (tier 2 basis)
C    -2.088299  -0.939380  -0.040872
C    -1.804173  -0.788459  1.416686
O    -1.357610  -1.824092  2.024847
H    -2.728608  -1.821239  -0.187865
H    -1.146715  -1.150534  -0.569578
H    -2.569237  -0.062039  -0.486991
N    -2.042005  0.404055  1.988301
C    -2.087006  0.859327  3.405084
C    -0.690532  1.007698  4.043466
O    -0.035285  0.010528  4.539026
H    -2.363380  1.105409  1.324430
H    -2.485306  1.877907  3.323045
C    -3.075670  0.076079  4.308661
C    -4.540119  0.254973  3.859125
C    -5.600088  -0.537590  4.649694
N    -5.997756  0.089105  5.914319
C    -7.240005  0.036159  6.450515
N    -7.540263  0.834340  7.480269
N    -8.168148  -0.785569  5.952073
H    -2.922613  0.447030  5.334248
H    -2.829328  -0.996999  4.331092
H    -4.634193  -0.077645  2.815130
H    -4.812314  1.321720  3.867113
H    -5.258557  -1.572514  4.820504
H    -6.498849  -0.590186  4.021775
H    -5.275347  0.460796  6.522082
H    -8.373352  0.680500  8.039679
H    -6.991482  1.658173  7.697862
H    -9.141805  -0.694871  6.226257
H    -7.925698  -1.612566  5.419890
N    -0.149023  2.201469  4.180511
C    -0.661165  3.531172  3.815146
H    0.758707  2.190875  4.655721
H    -1.327559  3.919355  4.596370
H    -1.172151  3.510235  2.847502
H    0.198717  4.203354  3.728940
Cd    -0.092784  -1.914577  3.701945
