37
Energy: -175315.071423 eV PBE+vdW (tier 2 basis)
C    -1.681997  2.052196  0.331229
C    -1.921705  0.793750  1.092560
O    -2.556997  -0.140202  0.490350
H    -1.128769  2.805172  0.903193
H    -2.643498  2.466479  -0.003013
H    -1.115682  1.805176  -0.580298
N    -1.447960  0.696430  2.348535
C    -1.294498  -0.514226  3.183527
C    -2.588283  -0.788516  3.990998
O    -3.544570  -1.477820  3.474941
H    -0.998122  1.539702  2.701382
H    -1.192708  -1.372046  2.497753
C    0.029847  -0.425848  3.980882
C    0.404406  -1.727649  4.722823
C    1.906417  -1.934636  5.004003
N    2.440253  -1.141407  6.115860
C    3.451348  -1.538747  6.928026
N    4.138909  -2.655377  6.675643
N    3.740482  -0.808140  8.009498
H    0.004120  0.442240  4.662662
H    0.806200  -0.195346  3.234866
H    0.113927  -2.584600  4.095497
H    -0.158999  -1.834816  5.660926
H    2.487566  -1.753012  4.084201
H    2.035847  -2.991091  5.272075
H    2.237362  -0.147155  6.138953
H    4.764215  -3.047494  7.373396
H    4.194737  -3.055970  5.746830
H    3.086854  -0.134394  8.391372
H    4.604257  -0.948129  8.524248
N    -2.721214  -0.315057  5.210478
C    -3.911512  -0.457707  6.062920
H    -1.926676  0.178398  5.611692
H    -4.781924  -0.684994  5.443343
H    -4.067252  0.482260  6.603057
H    -3.755853  -1.270021  6.784919
Cd    -3.733524  -1.655402  1.369673
