37
Energy: -175313.781495 eV PBE+vdW (tier 2 basis)
C    0.309835  1.299806  0.180074
C    0.274073  0.082729  1.036736
O    1.284311  -0.712679  1.108823
H    -0.625451  1.860172  0.158362
H    0.561474  1.021478  -0.850485
H    1.102067  1.960856  0.574976
N    -0.740276  -0.255730  1.855695
C    -2.187029  -0.053802  1.683820
C    -2.600353  -0.530012  0.247758
O    -1.792424  -0.405893  -0.671462
H    -0.506701  -1.071436  2.425436
H    -2.626923  -0.741308  2.418495
C    -2.752632  1.362062  1.969786
C    -2.463369  1.851071  3.403726
C    -3.468966  2.857267  3.984932
N    -3.427627  4.182469  3.357033
C    -4.378901  5.134498  3.525127
N    -4.272987  6.286327  2.853586
N    -5.425630  4.919353  4.324838
H    -3.839678  1.283465  1.816640
H    -2.406520  2.083537  1.218150
H    -1.440897  2.252234  3.478911
H    -2.489978  0.995846  4.095797
H    -3.257755  2.945662  5.064743
H    -4.491144  2.463930  3.877818
H    -2.518169  4.523568  3.057856
H    -4.855960  7.085991  3.080928
H    -3.635844  6.395165  2.073015
H    -5.406911  4.217959  5.055884
H    -6.208288  5.566396  4.343523
N    -3.835474  -1.044624  0.047110
C    -4.842020  -1.480230  1.001640
H    -3.990873  -1.318974  -0.926835
H    -5.833436  -1.197795  0.619504
H    -4.700740  -1.021068  1.983271
H    -4.829830  -2.576952  1.105562
Cd    3.336261  -0.477696  0.513102
