37
Energy: -175314.402427 eV PBE+vdW (tier 2 basis)
C    0.200254  1.938447  1.310389
C    0.074418  0.459679  1.465194
O    0.965733  -0.254667  0.884063
H    1.168318  2.264620  1.717078
H    -0.610316  2.498577  1.789257
H    0.217918  2.177339  0.236224
N    -0.956968  -0.018492  2.181452
C    -1.541939  -1.380978  2.334305
C    -0.707645  -2.281438  3.270909
O    0.322412  -2.946138  2.867481
H    -1.537666  0.716397  2.580403
H    -2.481689  -1.182972  2.863932
C    -1.928735  -2.046506  0.991619
C    -2.956429  -3.184584  1.151003
C    -3.481546  -3.676470  -0.211713
N    -4.470220  -4.743274  -0.044022
C    -5.490762  -5.014852  -0.889710
N    -6.436748  -5.879030  -0.511827
N    -5.575327  -4.408506  -2.078929
H    -1.042574  -2.413141  0.448448
H    -2.352529  -1.247252  0.365794
H    -3.811223  -2.829794  1.747131
H    -2.507402  -4.029224  1.698351
H    -2.643302  -4.022990  -0.839652
H    -3.971330  -2.842408  -0.734047
H    -4.283801  -5.448090  0.663537
H    -7.088128  -6.274708  -1.182471
H    -6.554523  -6.156940  0.456154
H    -6.419160  -4.485437  -2.638653
H    -4.758546  -4.036091  -2.547692
N    -1.077709  -2.445221  4.525137
C    -2.233982  -1.883027  5.243917
H    -0.465684  -3.063690  5.064916
H    -2.163586  -2.207806  6.286056
H    -3.178552  -2.258267  4.831616
H    -2.212289  -0.787075  5.226996
Cd    1.635252  -2.169991  1.412351
