37
Energy: -175313.163309 eV PBE+vdW (tier 2 basis)
C    -0.608749  -0.947291  0.173270
C    -0.495984  -0.529958  1.606793
O    0.564034  -0.455510  2.228784
H    0.246957  -0.570498  -0.397442
H    -1.544694  -0.633269  -0.302568
H    -0.557076  -2.047889  0.142795
N    -1.683485  -0.202836  2.262520
C    -1.695641  0.118820  3.662501
C    -2.909415  -0.555792  4.377392
O    -2.515762  -1.379255  5.277013
H    -2.512241  -0.078220  1.685756
H    -0.812265  -0.389273  4.078921
C    -1.573737  1.626250  4.080762
C    -0.121690  2.153249  4.101943
C    0.377238  2.795975  2.787396
N    1.713723  3.365659  2.928183
C    2.888386  2.775300  2.600338
N    4.005806  3.509539  2.654842
N    2.934712  1.495748  2.228229
H    -1.976614  1.717309  5.099149
H    -2.216925  2.245739  3.440365
H    0.571950  1.354743  4.403948
H    -0.067528  2.911817  4.897209
H    -0.286088  3.622694  2.497241
H    0.388814  2.086289  1.952175
H    1.773769  4.300819  3.323942
H    4.922190  3.094527  2.514882
H    3.981456  4.519382  2.756553
H    2.138963  0.863774  2.302137
H    3.796177  1.097524  1.868523
N    -4.169810  -0.295532  4.102510
C    -4.757396  0.624177  3.114977
H    -4.859859  -0.820339  4.643045
H    -5.219237  0.049327  2.301946
H    -4.004285  1.307718  2.718071
H    -5.532231  1.220678  3.610463
Cd    -3.389213  -2.745896  6.769250
