37
Energy: -175314.081851 eV PBE+vdW (tier 2 basis)
C    0.470973  0.893010  -0.044226
C    0.155579  0.321923  1.285902
O    1.089971  -0.251068  1.953553
H    0.933590  0.089281  -0.642939
H    1.241769  1.673220  0.038519
H    -0.409661  1.264666  -0.575837
N    -1.098989  0.344744  1.809973
C    -1.961210  1.524791  1.940088
C    -1.446407  2.325681  3.172067
O    -0.731325  1.760488  4.089781
H    -1.246628  -0.342989  2.552303
H    -1.835126  2.144674  1.041078
C    -3.445631  1.119975  2.107785
C    -4.071843  0.496287  0.846958
C    -5.557922  0.156496  1.064797
N    -6.154126  -0.393048  -0.155143
C    -7.264492  -1.162511  -0.207975
N    -8.006165  -1.367832  0.886116
N    -7.599888  -1.745322  -1.362800
H    -4.012880  2.015657  2.397892
H    -3.524639  0.430066  2.964353
H    -3.530675  -0.415724  0.555176
H    -3.981784  1.207965  0.009807
H    -6.102738  1.060518  1.386663
H    -5.654584  -0.597599  1.859595
H    -5.833876  -0.016144  -1.042565
H    -8.746093  -2.063017  0.886049
H    -8.000578  -0.718569  1.663295
H    -8.519523  -2.151770  -1.501794
H    -6.945370  -1.823334  -2.133056
N    -1.769321  3.590787  3.342567
C    -2.626412  4.463182  2.533461
H    -1.391124  4.009834  4.197560
H    -3.599153  4.595317  3.025895
H    -2.769641  4.059003  1.527906
H    -2.139921  5.442695  2.454964
Cd    0.932570  0.412556  3.995571
