37
Energy: -175314.004292 eV PBE+vdW (tier 2 basis)
C    -0.387943  1.038207  1.478304
C    0.108085  -0.324134  1.790732
O    1.347026  -0.569941  1.554109
H    0.409141  1.743468  1.764537
H    -1.306553  1.293137  2.009522
H    -0.512430  1.167115  0.391826
N    -0.628845  -1.296798  2.401318
C    -1.914725  -1.931123  2.028242
C    -1.498759  -3.250759  1.319580
O    -0.504499  -3.261365  0.493834
H    -0.031658  -1.934155  2.933847
H    -2.431650  -2.170130  2.967766
C    -2.821321  -1.049071  1.134677
C    -4.216132  -1.624408  0.798028
C    -5.356182  -1.338969  1.792579
N    -5.896644  0.016309  1.612087
C    -6.813407  0.598643  2.424273
N    -7.207195  1.849381  2.171825
N    -7.287515  -0.049719  3.493325
H    -2.290233  -0.848215  0.193618
H    -2.945464  -0.084051  1.643591
H    -4.170536  -2.709121  0.639217
H    -4.509180  -1.233188  -0.187634
H    -5.013868  -1.435800  2.834936
H    -6.147351  -2.088885  1.628019
H    -5.863465  0.385994  0.665324
H    -8.016859  2.252648  2.632982
H    -6.733398  2.435988  1.494276
H    -7.878904  0.428234  4.166699
H    -7.276340  -1.060877  3.550545
N    -2.146049  -4.384513  1.506448
C    -3.302346  -4.714461  2.344562
H    -1.764621  -5.167542  0.965639
H    -3.035869  -5.567752  2.981165
H    -4.147236  -5.008672  1.708568
H    -3.590032  -3.871312  2.976109
Cd    1.495170  -2.508575  0.646562
