37
Energy: -175313.838089 eV PBE+vdW (tier 2 basis)
C    1.170314  0.525038  1.312706
C    0.498722  -0.211005  2.416878
O    1.182280  -0.744843  3.371880
H    0.495588  0.932302  0.560714
H    1.871015  -0.150312  0.803235
H    1.744036  1.357637  1.757484
N    -0.827327  -0.390593  2.543725
C    -1.927048  -0.335141  1.563799
C    -1.654231  -1.373481  0.422531
O    -0.582267  -1.292998  -0.177993
H    -1.064575  -0.880965  3.408593
H    -2.797183  -0.664149  2.146043
C    -2.218978  1.072145  0.982449
C    -3.611880  1.175237  0.332831
C    -3.840945  2.578927  -0.273298
N    -5.086122  2.677233  -1.035410
C    -6.120550  3.523509  -0.821914
N    -6.954363  3.791914  -1.830544
N    -6.319031  4.084066  0.375431
H    -1.455953  1.336650  0.238584
H    -2.132988  1.791668  1.809819
H    -4.401242  0.961585  1.069601
H    -3.710799  0.427446  -0.469407
H    -3.014351  2.823763  -0.958712
H    -3.837218  3.355354  0.501944
H    -5.113493  2.173305  -1.918311
H    -7.848213  4.246743  -1.670902
H    -6.700446  3.619136  -2.797703
H    -6.989108  4.837592  0.492161
H    -5.913286  3.702546  1.220098
N    -2.589589  -2.299778  0.132393
C    -3.806073  -2.647304  0.864071
H    -2.298870  -2.941568  -0.608019
H    -4.433509  -1.767604  1.046955
H    -3.580443  -3.148832  1.817323
H    -4.377141  -3.350169  0.248902
Cd    3.163326  -0.292061  4.072402
