37
Energy: -175313.741968 eV PBE+vdW (tier 2 basis)
C    -0.509473  -0.699369  0.047161
C    -0.282294  -0.120490  1.406078
O    0.886234  0.168782  1.847526
H    0.048025  -1.645300  -0.046030
H    -0.134343  0.000081  -0.714765
H    -1.562274  -0.910105  -0.170203
N    -1.343199  0.125454  2.188189
C    -1.320620  0.777108  3.509633
C    -2.322998  0.088133  4.483141
O    -3.022799  0.757282  5.248385
H    -2.252845  -0.022019  1.751135
H    -0.310137  0.609845  3.914453
C    -1.557269  2.298334  3.452708
C    -2.947598  2.754190  2.947125
C    -3.557558  3.915192  3.740505
N    -3.893064  3.505956  5.101129
C    -4.587364  4.247282  5.994673
N    -4.894349  3.695780  7.176666
N    -4.955860  5.495009  5.709579
H    -0.763793  2.741353  2.836403
H    -1.372229  2.662596  4.472961
H    -3.674888  1.927186  2.958208
H    -2.881447  3.085483  1.902978
H    -4.469342  4.267883  3.229174
H    -2.852054  4.766802  3.771289
H    -3.604793  2.553856  5.369367
H    -5.385089  4.215863  7.898303
H    -4.680033  2.725759  7.380453
H    -5.505523  6.047632  6.360745
H    -4.684122  5.955567  4.849340
N    -2.357485  -1.266934  4.474464
C    -3.180175  -2.057135  5.377338
H    -1.671791  -1.765131  3.911574
H    -3.447182  -3.000541  4.886958
H    -4.075308  -1.488211  5.646485
H    -2.626481  -2.294611  6.301481
Cd    2.828472  -0.395581  1.012287
