37
Energy: -175313.187644 eV PBE+vdW (tier 2 basis)
C    -0.006813  2.008373  1.969578
C    -0.131468  0.530025  2.104813
O    0.856189  -0.276292  1.962433
H    -0.062291  2.284745  0.903859
H    0.976570  2.336185  2.331454
H    -0.776449  2.564599  2.514794
N    -1.316703  -0.065113  2.329082
C    -2.636844  0.546810  2.207011
C    -3.266995  0.966374  3.599804
O    -3.795373  2.078912  3.570160
H    -1.263567  -1.080503  2.438590
H    -2.508695  1.506835  1.698349
C    -3.641008  -0.305123  1.382611
C    -4.886496  0.503863  0.974430
C    -5.774469  -0.147869  -0.115101
N    -6.717432  -1.170728  0.343217
C    -8.056815  -1.012445  0.470751
N    -8.595903  0.203700  0.583490
N    -8.839753  -2.096419  0.494876
H    -3.915465  -1.216550  1.934898
H    -3.102670  -0.624492  0.475861
H    -4.558369  1.468349  0.557953
H    -5.502425  0.744940  1.852562
H    -5.150646  -0.606492  -0.895551
H    -6.350175  0.638989  -0.618697
H    -6.384487  -2.128930  0.390079
H    -9.598194  0.341802  0.499034
H    -8.041258  1.024398  0.791402
H    -9.819356  -2.033516  0.755288
H    -8.525135  -2.991859  0.136258
N    -3.264072  0.162050  4.668373
C    -2.695193  -1.173833  4.837759
H    -3.697519  0.582970  5.490991
H    -3.160448  -1.624441  5.720740
H    -1.611518  -1.140957  5.013524
H    -2.927921  -1.826076  3.987174
Cd    3.001093  -0.041072  2.281697
