37
Energy: -175314.714294 eV PBE+vdW (tier 2 basis)
C    -2.694818  -0.782308  0.008043
C    -2.173050  -0.847389  1.405321
O    -1.568842  -1.923972  1.741201
H    -1.851704  -0.858836  -0.694095
H    -3.266565  0.127632  -0.204218
H    -3.329215  -1.662150  -0.173495
N    -2.380241  0.212209  2.208044
C    -2.189430  0.423871  3.668759
C    -0.704261  0.598382  4.056867
O    0.085408  -0.403164  4.253833
H    -2.836300  0.987537  1.732880
H    -2.665448  1.394926  3.849496
C    -2.903999  -0.617992  4.564587
C    -4.451790  -0.598581  4.508726
C    -5.106774  0.252497  5.614082
N    -6.566244  0.159857  5.543325
C    -7.421013  0.139855  6.591088
N    -8.688235  -0.231487  6.390177
N    -7.005567  0.463246  7.821149
H    -2.557491  -0.456915  5.596806
H    -2.573483  -1.633068  4.300441
H    -4.812966  -1.629885  4.616712
H    -4.794138  -0.261508  3.517247
H    -4.787352  1.306773  5.548268
H    -4.793372  -0.130923  6.595197
H    -6.995352  0.198194  4.623435
H    -9.409241  -0.042510  7.079596
H    -8.975111  -0.733066  5.556871
H    -7.598125  0.289103  8.627249
H    -6.210336  1.071795  7.971980
N    -0.206007  1.799003  4.276027
C    -0.839354  3.123862  4.224468
H    0.776370  1.789674  4.567631
H    -0.058104  3.856176  3.994611
H    -1.279358  3.379464  5.197090
H    -1.593874  3.176784  3.434142
Cd    -0.080617  -2.217083  3.202462
