37
Energy: -175315.177939 eV PBE+vdW (tier 2 basis)
C    0.951564  -1.513897  2.535472
C    0.490211  -0.106632  2.349196
O    1.353700  0.815097  2.571205
H    1.406469  -1.607940  3.532333
H    1.750877  -1.728856  1.810785
H    0.151796  -2.254741  2.429219
N    -0.783060  0.099625  1.976129
C    -1.639592  1.317404  1.914485
C    -1.347929  2.224562  0.696954
O    -0.339468  3.023383  0.623935
H    -1.291723  -0.764562  1.801292
H    -2.639742  0.900610  1.732622
C    -1.733879  2.113904  3.240635
C    -2.506623  1.361498  4.342769
C    -2.782930  2.245020  5.573091
N    -3.595695  1.520183  6.553414
C    -3.704424  1.824655  7.866400
N    -4.331226  0.973581  8.683315
N    -3.164174  2.947353  8.353858
H    -2.249880  3.058113  3.006296
H    -0.734289  2.390461  3.610216
H    -1.957930  0.461951  4.657986
H    -3.470610  1.023568  3.927374
H    -3.293864  3.170123  5.255420
H    -1.836516  2.528139  6.056914
H    -4.278692  0.858892  6.195326
H    -4.529854  0.017115  8.411785
H    -4.623477  1.253478  9.614308
H    -3.114081  3.102615  9.356101
H    -2.995434  3.754962  7.766490
N    -2.228875  2.226264  -0.282508
C    -2.161770  3.040847  -1.503305
H    -3.055619  1.639086  -0.180697
H    -2.855058  3.888251  -1.416617
H    -2.463402  2.417487  -2.352448
H    -1.144855  3.411925  -1.646375
Cd    1.468055  2.694475  1.637625
