37
Energy: -175314.980121 eV PBE+vdW (tier 2 basis)
C    1.600747  1.340493  2.040068
C    0.760254  0.215365  2.544921
O    1.380905  -0.769339  3.084192
H    1.035570  2.092204  1.478427
H    2.397351  0.930021  1.402609
H    2.105766  1.820728  2.891793
N    -0.571592  0.300895  2.396973
C    -1.679443  -0.686678  2.548233
C    -2.073525  -0.947237  4.020249
O    -1.398376  -1.701590  4.817138
H    -0.869632  1.183364  1.985987
H    -2.533902  -0.156811  2.104740
C    -1.504348  -1.991146  1.729473
C    -1.416212  -1.729006  0.212905
C    -1.309695  -2.971592  -0.687402
N    -2.594038  -3.665502  -0.859312
C    -2.728435  -4.869039  -1.471807
N    -3.940588  -5.423293  -1.561985
N    -1.659662  -5.517311  -1.943992
H    -2.368121  -2.631446  1.965255
H    -0.612137  -2.549912  2.053449
H    -0.526414  -1.121398  -0.004093
H    -2.274560  -1.118524  -0.114043
H    -0.585393  -3.685808  -0.267902
H    -0.923395  -2.637710  -1.664347
H    -3.422634  -3.077102  -0.888675
H    -4.733606  -5.067139  -1.041184
H    -4.113776  -6.222066  -2.164107
H    -0.799555  -5.033881  -2.173511
H    -1.741027  -6.470709  -2.284445
N    -3.199050  -0.415414  4.451489
C    -3.763648  -0.562426  5.799941
H    -3.752440  0.128786  3.790996
H    -4.600610  -1.272967  5.771167
H    -4.135523  0.414761  6.128500
H    -2.996144  -0.927496  6.485623
Cd    0.671829  -2.001890  4.629896
