37
Energy: -175314.120989 eV PBE+vdW (tier 2 basis)
C    -0.663494  1.548699  -0.681220
C    -0.316784  0.995867  0.647499
O    0.879455  1.138894  1.089438
H    0.027784  1.089367  -1.410732
H    -0.457950  2.627723  -0.724684
H    -1.688700  1.324455  -0.989580
N    -1.206276  0.295568  1.404033
C    -2.561683  0.708615  1.783225
C    -2.405094  1.778239  2.908537
O    -1.365260  1.815467  3.668861
H    -0.767066  -0.330660  2.083227
H    -3.039938  1.183122  0.913987
C    -3.368222  -0.550164  2.212738
C    -4.866475  -0.333599  2.489728
C    -5.633879  -1.594792  2.939868
N    -6.010806  -2.489656  1.841082
C    -7.100865  -3.292373  1.840218
N    -7.467582  -3.894017  0.703987
N    -7.820600  -3.469929  2.951803
H    -2.890150  -0.985717  3.105633
H    -3.222515  -1.271759  1.394442
H    -5.370896  0.098862  1.611367
H    -4.989354  0.383004  3.315047
H    -6.564845  -1.260628  3.415935
H    -5.048721  -2.137639  3.701133
H    -5.341164  -2.660534  1.098424
H    -8.140085  -4.654424  0.704666
H    -7.144137  -3.572500  -0.201203
H    -8.730795  -3.918632  2.914186
H    -7.431035  -3.319437  3.874707
N    -3.390286  2.631664  3.098872
C    -3.445250  3.696138  4.110369
H    -4.207913  2.543423  2.495857
H    -4.252801  3.479895  4.821755
H    -3.657608  4.649251  3.610796
H    -2.494592  3.747759  4.643644
Cd    0.717483  1.629383  3.177149
