37
Energy: -175314.006346 eV PBE+vdW (tier 2 basis)
C    -1.141747  -1.786344  0.430969
C    -2.296262  -1.048602  -0.132642
O    -2.508559  -1.142664  -1.394514
H    -1.001803  -1.623454  1.501062
H    -0.227785  -1.601751  -0.146295
H    -1.375199  -2.859042  0.290879
N    -3.216528  -0.381512  0.620188
C    -3.133197  0.705246  1.615604
C    -3.393749  2.026890  0.842350
O    -3.130181  2.149544  -0.417777
H    -4.148781  -0.430017  0.200936
H    -3.993599  0.541314  2.281805
C    -1.891192  0.761623  2.540821
C    -0.566370  1.345663  2.015100
C    0.507174  1.257197  3.118263
N    1.763641  1.893418  2.717936
C    2.722765  2.324175  3.571208
N    2.639108  2.064745  4.879861
N    3.744719  3.041210  3.095209
H    -2.205233  1.354793  3.411541
H    -1.749381  -0.253104  2.940416
H    -0.699664  2.399488  1.726814
H    -0.213909  0.811421  1.119409
H    0.674852  0.198609  3.382373
H    0.142661  1.771023  4.020146
H    2.037148  1.829960  1.742187
H    3.266420  2.517365  5.538009
H    2.098986  1.287014  5.239515
H    4.577062  3.207368  3.652292
H    3.715025  3.476905  2.180362
N    -3.873186  3.083428  1.467424
C    -4.235657  3.264356  2.878319
H    -4.000272  3.902376  0.865750
H    -3.413307  3.739711  3.428588
H    -5.108668  3.925198  2.919381
H    -4.498990  2.311176  3.346764
Cd    -3.276873  0.759833  -2.038143
