37
Energy: -175314.082556 eV PBE+vdW (tier 2 basis)
C    0.213209  2.308939  3.655907
C    -0.229156  0.899285  3.733661
O    -0.295459  0.327460  4.881164
H    1.243407  2.341817  4.056851
H    -0.382101  2.948784  4.321713
H    0.236293  2.700747  2.634310
N    -0.524908  0.164586  2.625212
C    -1.426386  0.560587  1.541062
C    -2.831615  -0.034497  1.879460
O    -3.079352  -0.695358  2.956642
H    -0.437866  -0.843990  2.762870
H    -1.546749  1.653002  1.609687
C    -0.861681  0.249661  0.129970
C    -0.616382  -1.227776  -0.222255
C    0.305388  -1.439991  -1.443413
N    -0.255285  -1.055136  -2.746554
C    -0.394423  -1.875451  -3.817562
N    -0.373791  -1.353637  -5.047037
N    -0.574901  -3.190044  -3.659291
H    0.084315  0.809653  0.071645
H    -1.523318  0.719144  -0.614832
H    -1.569117  -1.758095  -0.372099
H    -0.099540  -1.735505  0.608216
H    0.595364  -2.496195  -1.494952
H    1.242799  -0.880921  -1.299955
H    -0.222100  -0.066910  -2.979114
H    -0.682247  -1.888994  -5.852977
H    0.037857  -0.446545  -5.238927
H    -0.850660  -3.594210  -2.773971
H    -0.498656  -3.825832  -4.447013
N    -3.815715  0.167304  1.029927
C    -5.212044  -0.251071  1.242101
H    -3.605465  0.664530  0.167111
H    -5.815203  0.147731  0.422730
H    -5.581889  0.146697  2.194205
H    -5.282925  -1.345173  1.253519
Cd    -2.097235  -0.838568  4.859761
