37
Energy: -175313.279764 eV PBE+vdW (tier 2 basis)
C    0.392895  -0.501665  -0.229392
C    -0.647038  0.559845  -0.136854
O    -0.821210  1.432497  -1.069824
H    0.301167  -1.021532  -1.192398
H    0.349238  -1.235710  0.578380
H    1.387582  -0.029517  -0.198237
N    -1.474807  0.694104  0.902720
C    -1.828659  -0.200668  2.038235
C    -0.603158  -0.707187  2.848284
O    -0.460188  -1.903452  3.099865
H    -2.090202  1.507442  0.809667
H    -2.348122  0.487609  2.725755
C    -2.886141  -1.279960  1.709414
C    -2.636448  -2.406502  0.690713
C    -1.790151  -3.632585  1.105595
N    -2.186166  -4.269791  2.357768
C    -2.873198  -5.426541  2.505785
N    -2.860232  -6.035853  3.696782
N    -3.557394  -5.954206  1.488325
H    -3.770344  -0.725740  1.361549
H    -3.191660  -1.702205  2.678024
H    -2.197390  -2.016499  -0.240564
H    -3.634859  -2.762278  0.395128
H    -0.737991  -3.348923  1.242822
H    -1.817360  -4.380566  0.302233
H    -1.792995  -3.851811  3.199208
H    -3.480721  -6.814158  3.900459
H    -2.167183  -5.813485  4.403773
H    -3.949540  -6.889107  1.548438
H    -3.781504  -5.423530  0.656000
N    0.240641  0.245193  3.322950
C    1.340113  -0.053621  4.229298
H    -0.031549  1.222372  3.229516
H    2.108347  0.721282  4.127717
H    1.742873  -1.046180  4.000454
H    0.994821  -0.056619  5.277065
Cd    0.398248  2.308513  -2.622171
