37
Energy: -175315.148254 eV PBE+vdW (tier 2 basis)
C    -1.353097  0.726355  0.659332
C    -0.631429  0.485594  1.940997
O    0.427710  1.172139  2.154134
H    -0.677334  0.524123  -0.183730
H    -1.610882  1.794885  0.599193
H    -2.265258  0.128758  0.555959
N    -1.132808  -0.413052  2.807950
C    -0.778901  -0.625568  4.227070
C    0.366149  -1.663042  4.364715
O    1.587120  -1.317536  4.144718
H    -1.947799  -0.923405  2.472715
H    -0.351679  0.322263  4.597320
C    -2.042118  -0.905976  5.074246
C    -2.995078  0.307360  5.165539
C    -4.009471  0.281161  6.326351
N    -5.194025  -0.548457  6.082996
C    -6.417576  -0.317254  6.617194
N    -7.465757  -1.017560  6.171612
N    -6.588764  0.612274  7.560817
H    -1.695865  -1.164110  6.086719
H    -2.568471  -1.792219  4.678457
H    -3.530867  0.470790  4.219274
H    -2.387128  1.209728  5.332399
H    -4.363091  1.311079  6.467101
H    -3.504436  -0.024492  7.258455
H    -5.070374  -1.462674  5.661061
H    -8.346829  -1.024623  6.675864
H    -7.445327  -1.506152  5.283941
H    -7.520878  0.912730  7.829722
H    -5.826913  0.931464  8.147498
N    0.104206  -2.901076  4.718994
C    1.089147  -3.981222  4.885781
H    -0.867280  -3.142833  4.903285
H    2.098728  -3.567485  4.855362
H    0.961245  -4.716106  4.080594
H    0.913338  -4.470287  5.850601
Cd    2.111793  0.525427  3.254762
