37
Energy: -175313.418881 eV PBE+vdW (tier 2 basis)
C    -2.243937  -1.037771  1.377506
C    -1.522466  -0.749160  2.655037
O    -0.883081  -1.655581  3.307658
H    -2.753376  -0.163995  0.956557
H    -3.001457  -1.817936  1.550952
H    -1.527667  -1.405403  0.626910
N    -1.539706  0.493775  3.137040
C    -0.832366  0.981794  4.339926
C    -1.748412  1.933740  5.159304
O    -1.405252  3.102039  5.392430
H    -2.025461  1.181903  2.563979
H    -0.630521  0.094800  4.958080
C    0.519881  1.642852  4.011301
C    0.486389  2.854835  3.044322
C    1.345591  4.046536  3.479787
N    0.790293  4.694011  4.661426
C    1.204852  5.871709  5.184658
N    0.509941  6.387535  6.207311
N    2.272760  6.500372  4.697050
H    1.179286  0.863870  3.606467
H    0.960487  1.921594  4.979093
H    -0.538233  3.227274  2.891024
H    0.850869  2.552371  2.054666
H    1.403405  4.778884  2.655846
H    2.381943  3.715304  3.685853
H    -0.017712  4.212619  5.090862
H    0.793732  7.247848  6.667685
H    -0.355511  5.964090  6.525089
H    2.566312  7.404549  5.055201
H    2.860955  6.089345  3.981857
N    -2.921427  1.467638  5.649644
C    -3.459392  0.118556  5.665941
H    -3.451160  2.178692  6.159463
H    -3.946494  -0.057425  6.632756
H    -2.667169  -0.625735  5.532778
H    -4.221472  -0.008920  4.880375
Cd    -0.703563  -3.772311  2.827119
