37
Energy: -175314.136911 eV PBE+vdW (tier 2 basis)
C    0.387691  -2.229004  2.659987
C    -0.597585  -2.095229  3.758041
O    -0.431384  -2.782153  4.828994
H    1.394007  -1.946118  3.001665
H    0.107960  -1.677104  1.758059
H    0.455152  -3.302754  2.412205
N    -1.697554  -1.301179  3.656704
C    -1.717428  0.106575  3.250589
C    -1.339851  0.954118  4.511249
O    -1.338315  0.462825  5.701921
H    -2.448353  -1.549443  4.305626
H    -0.927513  0.255055  2.499195
C    -3.090295  0.512543  2.662115
C    -3.418779  -0.159917  1.316401
C    -4.788588  0.293689  0.777957
N    -5.084836  -0.342055  -0.508159
C    -5.919572  0.145495  -1.452851
N    -5.948664  -0.430645  -2.658502
N    -6.689888  1.209442  -1.201134
H    -3.097516  1.605346  2.536858
H    -3.872936  0.295520  3.407978
H    -3.418314  -1.254848  1.437107
H    -2.642927  0.085383  0.575226
H    -4.782437  1.382318  0.622354
H    -5.576489  0.061153  1.514343
H    -4.780897  -1.302538  -0.637419
H    -5.213740  -1.054266  -2.972737
H    -6.696984  -0.238659  -3.316741
H    -7.194077  1.672345  -1.951073
H    -6.953858  1.465592  -0.257540
N    -1.049364  2.226071  4.339731
C    -0.678006  3.178203  5.396982
H    -1.121885  2.606235  3.396608
H    -0.194436  2.647507  6.220861
H    -1.575099  3.690060  5.770338
H    0.008248  3.916272  4.970102
Cd    -0.846964  -1.471801  6.483603
