37
Energy: -175313.451346 eV PBE+vdW (tier 2 basis)
C    -0.147560  -0.044484  -0.621228
C    0.024439  -0.159526  0.853369
O    1.196057  -0.159279  1.400871
H    -1.187087  0.009510  -0.950986
H    0.314450  -0.920456  -1.102768
H    0.380576  0.851405  -0.976515
N    -0.979404  -0.270051  1.722666
C    -2.458033  -0.106122  1.629287
C    -3.113578  -0.754429  0.380254
O    -3.737815  -0.058570  -0.433499
H    -0.647635  -0.367342  2.686705
H    -2.820634  -0.689125  2.490691
C    -2.945017  1.335099  1.863546
C    -2.570246  2.411414  0.818525
C    -3.712842  3.380535  0.498760
N    -4.775398  2.712670  -0.250558
C    -5.901935  3.306286  -0.708305
N    -6.746619  2.585844  -1.458232
N    -6.166273  4.579631  -0.420844
H    -2.596903  1.645821  2.858491
H    -4.037783  1.252047  1.960805
H    -2.236566  1.964191  -0.127726
H    -1.733339  3.017342  1.188660
H    -3.325200  4.226129  -0.095386
H    -4.123849  3.802630  1.434306
H    -4.620682  1.721150  -0.465743
H    -7.621706  2.973675  -1.798574
H    -6.523361  1.641827  -1.753274
H    -5.577738  5.128202  0.194485
H    -6.992415  5.044981  -0.784721
N    -3.048545  -2.098738  0.233431
C    -2.642271  -3.120236  1.192313
H    -3.574370  -2.431552  -0.578505
H    -3.495017  -3.434040  1.815377
H    -1.831205  -2.770240  1.836357
H    -2.296144  -4.000538  0.637114
Cd    3.200908  -0.503285  0.708820
