37
Energy: -175314.067218 eV PBE+vdW (tier 2 basis)
C    -2.337852  1.602415  0.049314
C    -1.142362  1.140009  0.797514
O    0.008373  1.557003  0.414468
H    -3.234834  1.643947  0.671077
H    -2.514928  0.936595  -0.812736
H    -2.120102  2.592304  -0.374856
N    -1.204309  0.309410  1.871665
C    -1.925336  -0.975924  2.004861
C    -1.282036  -1.977629  0.997186
O    -0.074348  -1.832261  0.569795
H    -0.377957  0.371656  2.468376
H    -1.601134  -1.351176  2.990412
C    -3.468602  -0.906112  2.059569
C    -3.968562  0.014439  3.195894
C    -5.372042  -0.277954  3.751141
N    -6.465214  0.106769  2.846640
C    -7.760402  -0.252763  3.039417
N    -8.683267  0.136883  2.155029
N    -8.110030  -1.020743  4.074550
H    -3.824814  -1.926038  2.274196
H    -3.892368  -0.629884  1.084695
H    -3.896769  1.073346  2.902606
H    -3.294999  -0.086476  4.060443
H    -5.463401  0.260279  4.708943
H    -5.467678  -1.353250  3.962532
H    -6.338778  0.971988  2.328363
H    -9.675238  0.046969  2.350847
H    -8.431647  0.531006  1.256208
H    -9.047980  -1.404295  4.142732
H    -7.536448  -1.093701  4.906418
N    -1.940238  -3.057707  0.638923
C    -1.394860  -4.132907  -0.208199
H    -2.875030  -3.193666  1.015568
H    -2.201237  -4.837857  -0.424639
H    -0.584829  -4.651992  0.318895
H    -1.011116  -3.714821  -1.145191
Cd    1.265342  -0.189196  0.314860
