37
Energy: -175313.368985 eV PBE+vdW (tier 2 basis)
C    -0.295646  0.671534  -0.670841
C    0.179905  -0.014257  0.563424
O    1.425937  -0.194315  0.811145
H    -0.038165  1.740407  -0.619768
H    -1.369542  0.570065  -0.848263
H    0.233832  0.253106  -1.539893
N    -0.646641  -0.493229  1.513652
C    -2.053889  -0.171399  1.846946
C    -3.114967  -0.997957  1.056513
O    -4.293513  -0.842301  1.405873
H    -0.139536  -0.988039  2.251652
H    -2.162711  -0.540464  2.877620
C    -2.330614  1.361748  1.856772
C    -3.715868  1.881876  2.273771
C    -4.234865  1.574374  3.695422
N    -5.320597  0.600432  3.661580
C    -6.320953  0.488310  4.565505
N    -7.360471  -0.303563  4.270413
N    -6.281349  1.152542  5.720750
H    -2.137788  1.776788  0.859935
H    -1.568181  1.789540  2.526720
H    -4.479681  1.608480  1.533724
H    -3.641069  2.977815  2.194976
H    -4.622037  2.500560  4.145664
H    -3.422419  1.223612  4.358049
H    -5.292432  -0.059086  2.877138
H    -8.071001  -0.525941  4.961895
H    -7.532693  -0.621630  3.322449
H    -7.090189  1.190964  6.334153
H    -5.431577  1.580185  6.068953
N    -2.735606  -1.833953  0.087149
C    -3.676491  -2.698879  -0.635886
H    -1.744048  -2.025010  -0.014945
H    -3.241939  -2.951733  -1.607855
H    -4.620058  -2.163387  -0.779259
H    -3.868414  -3.623048  -0.074541
Cd    3.249071  -0.248065  -0.383434
