37
Energy: -175313.519433 eV PBE+vdW (tier 2 basis)
C    -0.748182  1.881955  0.044518
C    -0.308501  0.924009  1.096427
O    0.920438  0.710772  1.390997
H    -1.766971  2.254771  0.192527
H    -0.698844  1.384959  -0.938238
H    -0.066183  2.740745  0.004301
N    -1.190763  0.164219  1.768730
C    -2.610541  -0.054342  1.459866
C    -3.544133  1.028971  2.118168
O    -4.553054  1.316111  1.475960
H    -0.765744  -0.458705  2.461773
H    -2.761526  0.094987  0.385180
C    -3.021185  -1.491763  1.869262
C    -4.531471  -1.776824  2.010729
C    -5.402519  -1.818152  0.746903
N    -5.341186  -3.120742  0.075499
C    -6.074066  -3.467262  -1.010791
N    -5.948494  -4.700149  -1.514172
N    -6.890128  -2.583153  -1.586924
H    -2.572025  -1.708077  2.851965
H    -2.555775  -2.185966  1.153075
H    -4.983732  -1.040213  2.687327
H    -4.633447  -2.733766  2.545352
H    -5.124138  -1.025696  0.032856
H    -6.442132  -1.615058  1.057374
H    -4.938504  -3.890341  0.603871
H    -6.564315  -5.039742  -2.246850
H    -5.243207  -5.348594  -1.181760
H    -7.391017  -2.810907  -2.440233
H    -7.155256  -1.720206  -1.127815
N    -3.219249  1.543050  3.313295
C    -4.092621  2.466050  4.044166
H    -2.420004  1.155467  3.807683
H    -3.471338  3.107220  4.678407
H    -4.801735  1.918985  4.681381
H    -4.656454  3.068936  3.324365
Cd    2.738887  1.908880  1.241283
