37
Energy: -175313.689071 eV PBE+vdW (tier 2 basis)
C    0.075428  -1.340218  0.025800
C    0.243260  -0.271098  1.049991
O    1.204466  -0.282783  1.910678
H    0.794164  -1.160122  -0.789378
H    -0.928151  -1.377162  -0.408795
H    0.284449  -2.323450  0.468009
N    -0.579312  0.773855  1.126711
C    -1.632499  1.160350  0.174953
C    -0.981573  1.527016  -1.191689
O    0.217127  1.802071  -1.238949
H    -0.304600  1.469803  1.819939
H    -2.301875  0.298557  0.045078
C    -2.479981  2.337443  0.725439
C    -1.726730  3.660329  0.972212
C    -2.613016  4.912901  1.047065
N    -3.457085  4.965158  2.247828
C    -4.456137  5.861139  2.440657
N    -5.198383  5.779222  3.550549
N    -4.719346  6.795067  1.524446
H    -2.982444  1.986218  1.639378
H    -3.282624  2.507494  -0.006660
H    -1.018279  3.852427  0.152369
H    -1.108380  3.609542  1.883902
H    -3.270546  4.955523  0.165490
H    -1.950560  5.794682  1.014684
H    -3.095147  4.524832  3.089316
H    -5.844966  6.517898  3.810244
H    -5.177903  4.962452  4.150631
H    -5.545999  7.380307  1.598915
H    -4.038778  7.067547  0.825072
N    -1.752581  1.563934  -2.312643
C    -3.066215  0.994022  -2.564850
H    -1.221377  1.854234  -3.138530
H    -3.657458  1.710889  -3.154063
H    -3.601458  0.771660  -1.638471
H    -2.982271  0.074914  -3.166602
Cd    2.748574  -1.712803  2.311105
