37
Energy: -175314.834661 eV PBE+vdW (tier 2 basis)
C    0.382060  -1.786137  1.121561
C    0.176637  -0.683742  2.103405
O    1.003585  0.291336  2.065180
H    0.365790  -1.357789  0.107680
H    -0.375127  -2.574548  1.190832
H    1.383712  -2.216774  1.260260
N    -0.863167  -0.760103  2.955721
C    -1.437084  0.310631  3.794453
C    -0.747634  0.363940  5.180418
O    0.362615  0.998670  5.328059
H    -1.401961  -1.621193  2.893007
H    -1.154471  1.264319  3.318225
C    -2.991470  0.304859  3.734552
C    -3.779336  -0.941443  4.196836
C    -5.194145  -1.071209  3.587572
N    -6.172879  -0.128949  4.135372
C    -7.495580  -0.390164  4.291316
N    -8.250476  0.478091  4.970395
N    -8.039639  -1.506854  3.800803
H    -3.228062  0.499506  2.676959
H    -3.320905  1.198060  4.285983
H    -3.887398  -0.979516  5.292331
H    -3.262853  -1.870615  3.907402
H    -5.553509  -2.083018  3.814801
H    -5.134195  -0.976869  2.490104
H    -5.922083  0.854048  4.176256
H    -7.845261  1.175325  5.584613
H    -9.264365  0.436314  4.933633
H    -8.977275  -1.787904  4.072512
H    -7.628626  -2.010037  3.023408
N    -1.272003  -0.222181  6.233515
C    -0.661989  -0.224014  7.574796
H    -2.161533  -0.700107  6.118762
H    0.341864  -0.662137  7.529184
H    -1.293102  -0.821602  8.236830
H    -0.591287  0.801440  7.956973
Cd    1.556151  1.553364  3.667296
