37
Energy: -175314.539067 eV PBE+vdW (tier 2 basis)
C    -2.041139  1.459105  1.366713
C    -1.271111  0.620711  2.332106
O    -0.816175  -0.491762  1.889477
H    -1.376078  1.761290  0.543997
H    -2.491075  2.348985  1.820159
H    -2.830348  0.841363  0.913573
N    -1.115501  1.078838  3.586540
C    -0.619870  0.450437  4.844137
C    0.922763  0.344876  4.895749
O    1.590261  -0.568456  4.281757
H    -1.503610  2.010151  3.719330
H    -0.892905  1.188646  5.611080
C    -1.322155  -0.880731  5.214274
C    -2.841556  -0.758543  5.472797
C    -3.269438  -0.341111  6.898184
N    -3.273946  -1.425120  7.887352
C    -4.298257  -2.279949  8.125605
N    -4.147736  -3.235918  9.045445
N    -5.435340  -2.201377  7.425854
H    -0.808412  -1.290407  6.097722
H    -1.171078  -1.624677  4.417098
H    -3.310044  -1.723468  5.236716
H    -3.283426  -0.042886  4.763457
H    -4.262667  0.129159  6.855398
H    -2.616162  0.441001  7.308217
H    -2.562644  -1.390892  8.609502
H    -3.259117  -3.411407  9.500792
H    -4.934080  -3.793497  9.363857
H    -6.181628  -2.873181  7.577117
H    -5.692317  -1.362183  6.921252
N    1.570338  1.204253  5.656303
C    3.025917  1.259773  5.851703
H    1.020983  1.885551  6.177951
H    3.277333  0.865869  6.845385
H    3.345148  2.306558  5.790547
H    3.525129  0.665046  5.083982
Cd    0.902465  -1.516898  2.533888
