37
Energy: -175314.969213 eV PBE+vdW (tier 2 basis)
C    -0.385642  0.086821  -0.111417
C    -0.269934  -0.221871  1.342555
O    0.877036  -0.060240  1.883959
H    -1.404517  -0.026578  -0.497721
H    0.296994  -0.566267  -0.674337
H    -0.042093  1.117466  -0.283858
N    -1.365071  -0.637256  2.005427
C    -1.524676  -0.817169  3.457982
C    -0.926724  -2.168879  3.939553
O    0.244567  -2.162728  4.489163
H    -2.203581  -0.744217  1.437830
H    -0.886545  -0.062746  3.947369
C    -2.974752  -0.532410  3.916113
C    -3.332381  0.966505  3.970286
C    -4.806384  1.174756  4.377035
N    -5.210003  2.584568  4.355551
C    -5.847416  3.263368  5.337853
N    -6.606288  4.313906  5.015556
N    -5.719452  2.908162  6.621356
H    -3.096948  -0.977022  4.915499
H    -3.682246  -1.062515  3.261371
H    -3.163830  1.433228  2.986883
H    -2.676015  1.488553  4.682787
H    -4.995619  0.771599  5.379729
H    -5.467221  0.617298  3.694078
H    -5.248146  3.024786  3.440229
H    -6.959490  4.453879  4.075006
H    -6.899690  4.988261  5.715759
H    -6.323434  3.308124  7.332263
H    -4.938936  2.354340  6.948966
N    -1.539259  -3.331385  3.856144
C    -2.866089  -3.693003  3.342301
H    -0.990290  -4.106158  4.241097
H    -3.629999  -3.586494  4.122757
H    -2.824987  -4.744210  3.038791
H    -3.126768  -3.094154  2.465267
Cd    1.708835  -0.883318  3.651817
