37
Energy: -175314.849691 eV PBE+vdW (tier 2 basis)
C    -1.532042  0.242274  0.635709
C    -0.937903  -0.261510  1.908319
O    -0.249333  -1.339630  1.833273
H    -2.135255  -0.562534  0.188989
H    -0.725591  0.458511  -0.079931
H    -2.158804  1.130967  0.767244
N    -1.170916  0.430003  3.037047
C    -0.968567  0.110439  4.480412
C    0.501469  0.320282  4.922297
O    1.437762  -0.524418  4.674732
H    -1.703363  1.283323  2.879588
H    -1.555236  0.888417  4.987388
C    -1.553325  -1.260139  4.903746
C    -1.910152  -1.391779  6.404452
C    -3.348108  -0.940329  6.742990
N    -3.679123  -1.089453  8.162091
C    -4.615202  -1.906687  8.698161
N    -5.121456  -1.616658  9.898777
N    -5.037963  -2.994857  8.043978
H    -0.852077  -2.071944  4.648943
H    -2.441394  -1.444599  4.281929
H    -1.188443  -0.840681  7.028178
H    -1.795608  -2.445298  6.693483
H    -4.079507  -1.512827  6.157298
H    -3.507747  0.115895  6.475012
H    -3.288767  -0.401856  8.799716
H    -5.053539  -0.688226  10.301978
H    -5.633684  -2.308974  10.437033
H    -5.854524  -3.505844  8.364749
H    -4.479216  -3.440666  7.328045
N    0.786394  1.402640  5.617968
C    2.119089  1.779295  6.113319
H    0.029790  2.057140  5.808839
H    2.754149  0.893005  6.177782
H    2.007174  2.233942  7.103072
H    2.570011  2.513029  5.431687
Cd    1.334008  -1.910251  3.086703
