37
Energy: -175314.263226 eV PBE+vdW (tier 2 basis)
C    -1.086198  -1.441295  -0.519329
C    -1.073466  -1.473923  0.971251
O    -0.645278  -2.543660  1.528191
H    -1.387053  -0.470456  -0.928247
H    -1.766167  -2.222713  -0.889793
H    -0.084424  -1.700792  -0.891169
N    -1.495127  -0.389416  1.644896
C    -1.421294  -0.128806  3.093920
C    -2.529763  -0.893023  3.872949
O    -2.205238  -1.980464  4.498149
H    -1.823656  0.381818  1.066135
H    -0.484426  -0.578077  3.461361
C    -1.370175  1.392056  3.377111
C    -0.041086  2.129671  3.086330
C    0.967440  2.173558  4.262763
N    1.733165  3.425156  4.311264
C    3.068303  3.585036  4.187500
N    3.808419  2.688730  3.518202
N    3.654091  4.646311  4.745071
H    -1.647436  1.545320  4.431176
H    -2.163120  1.878403  2.793478
H    -0.315426  3.166639  2.849290
H    0.439148  1.744801  2.173717
H    1.678769  1.338538  4.242463
H    0.425516  2.096449  5.217919
H    1.230495  4.239942  4.653546
H    4.821967  2.728742  3.559411
H    3.409174  2.133445  2.772578
H    3.201989  5.188201  5.474437
H    4.582860  4.947021  4.464665
N    -3.782375  -0.500878  3.978466
C    -4.486117  0.679908  3.460477
H    -4.352437  -1.132859  4.549205
H    -4.378530  1.530900  4.144911
H    -5.548227  0.422847  3.392393
H    -4.131891  0.944441  2.460358
Cd    -0.982675  -3.354695  3.456533
