37
Energy: -175315.336817 eV PBE+vdW (tier 2 basis)
C    0.184191  -0.597327  0.099555
C    -0.173105  -1.021629  1.483297
O    0.361630  -2.099360  1.920852
H    -0.129693  -1.376009  -0.610657
H    1.279969  -0.533559  0.023009
H    -0.256567  0.363566  -0.187249
N    -1.013077  -0.252727  2.198577
C    -1.324013  -0.313230  3.642346
C    -2.489769  -1.300403  3.915674
O    -2.264901  -2.563814  4.030271
H    -1.402225  0.542734  1.695002
H    -0.446792  -0.751425  4.147444
C    -1.531402  1.105951  4.216598
C    -0.253847  1.968408  4.270689
C    -0.519490  3.320651  4.959325
N    0.710378  4.109315  5.060133
C    0.770567  5.452460  5.210474
N    1.953061  6.066497  5.113392
N    -0.339596  6.167285  5.421796
H    -1.924306  0.987932  5.237806
H    -2.308802  1.632285  3.635241
H    0.145152  2.150190  3.262006
H    0.521806  1.422708  4.832131
H    -0.950610  3.147071  5.960195
H    -1.247166  3.900667  4.372917
H    1.574465  3.606135  5.239365
H    2.763730  5.608848  4.712004
H    2.077776  7.024118  5.426069
H    -0.317475  7.181491  5.376931
H    -1.171092  5.754671  5.826734
N    -3.721259  -0.859526  4.042296
C    -4.909022  -1.693838  4.285310
H    -3.869931  0.147356  4.015834
H    -5.124168  -1.725370  5.361620
H    -4.729727  -2.707371  3.919128
H    -5.758541  -1.246356  3.759482
Cd    -0.487151  -3.448396  3.309404
