37
Energy: -175314.513407 eV PBE+vdW (tier 2 basis)
C    0.178256  0.774730  0.922567
C    -0.035398  -0.572692  1.528229
O    0.884463  -1.442918  1.332512
H    -0.682606  1.444034  1.027523
H    0.416142  0.650287  -0.143858
H    1.062847  1.239055  1.383562
N    -1.167782  -0.783665  2.219930
C    -1.811708  -2.011993  2.761370
C    -1.120767  -2.553377  4.030170
O    -0.067745  -3.300463  3.993585
H    -1.753076  0.046324  2.286326
H    -2.793168  -1.649257  3.090495
C    -2.084970  -3.120091  1.710617
C    -3.081027  -2.661038  0.626419
C    -3.372643  -3.667132  -0.505188
N    -4.363407  -4.690746  -0.158240
C    -5.268700  -5.218670  -1.015876
N    -6.266581  -5.965420  -0.532144
N    -5.187474  -4.986164  -2.329128
H    -2.469403  -3.989497  2.266723
H    -1.151206  -3.452509  1.230591
H    -2.680217  -1.763367  0.133588
H    -4.033141  -2.358077  1.088704
H    -2.437450  -4.136178  -0.854656
H    -3.784528  -3.095507  -1.346668
H    -4.282059  -5.163517  0.735837
H    -6.832085  -6.547038  -1.142559
H    -6.538644  -5.929986  0.443519
H    -5.959861  -5.220742  -2.945397
H    -4.316787  -4.727184  -2.777176
N    -1.651373  -2.328747  5.215415
C    -2.877057  -1.602313  5.584573
H    -1.138662  -2.763273  5.988545
H    -2.939226  -0.639619  5.066137
H    -2.830755  -1.404329  6.659958
H    -3.768809  -2.210070  5.384168
Cd    1.448606  -3.052850  2.561822
