37
Energy: -175315.144839 eV PBE+vdW (tier 2 basis)
C    -1.786071  -3.605574  2.145674
C    -2.749807  -2.471535  2.225509
O    -3.952130  -2.699959  1.849393
H    -0.794309  -3.359743  2.540301
H    -1.700017  -3.936035  1.100535
H    -2.199013  -4.457246  2.707029
N    -2.318552  -1.287826  2.697774
C    -3.115736  -0.117220  3.122614
C    -3.405780  0.809587  1.912702
O    -4.441411  0.610614  1.174524
H    -1.323767  -1.250796  2.915375
H    -4.100904  -0.491955  3.447362
C    -2.446935  0.543551  4.352393
C    -3.320171  1.611714  5.040759
C    -2.634129  2.410963  6.167549
N    -2.548650  1.696305  7.444957
C    -2.572611  2.285932  8.664146
N    -2.709825  1.523729  9.753947
N    -2.483355  3.613456  8.785470
H    -1.467787  0.969025  4.069523
H    -2.218438  -0.278219  5.048365
H    -4.241732  1.155352  5.432479
H    -3.642299  2.359556  4.300711
H    -3.239129  3.310214  6.342010
H    -1.633717  2.743821  5.842185
H    -2.277270  0.718781  7.439250
H    -2.522587  1.892501  10.681125
H    -3.067588  0.576724  9.703814
H    -2.683720  4.066454  9.672149
H    -2.060321  4.192785  8.070141
N    -2.592341  1.803434  1.630532
C    -2.714335  2.723848  0.489820
H    -1.813410  1.967785  2.265700
H    -1.729641  2.831702  0.020925
H    -3.053691  3.705591  0.844630
H    -3.434062  2.326498  -0.228547
Cd    -5.332755  -1.308812  1.065176
