37
Energy: -175314.120835 eV PBE+vdW (tier 2 basis)
C    -1.501207  -1.800794  1.456309
C    -0.404709  -1.078605  2.141958
O    0.768426  -1.599724  2.157360
H    -1.263826  -1.953960  0.393495
H    -2.476893  -1.321765  1.578204
H    -1.547238  -2.813552  1.893649
N    -0.603723  0.098040  2.793956
C    -1.263176  1.290234  2.253741
C    -0.200795  2.048392  1.388586
O    1.060134  1.797368  1.473268
H    0.114714  0.312732  3.489705
H    -2.071255  0.959235  1.584555
C    -1.836438  2.183419  3.380466
C    -2.988125  1.540273  4.175070
C    -3.476564  2.468090  5.307469
N    -4.485616  1.840395  6.166893
C    -5.708054  2.327158  6.478239
N    -6.289388  1.946605  7.619136
N    -6.346740  3.171655  5.659881
H    -2.179110  3.125282  2.926816
H    -1.012804  2.467582  4.056919
H    -2.653993  0.587344  4.613605
H    -3.826680  1.299565  3.503904
H    -3.892937  3.399348  4.903155
H    -2.626757  2.764844  5.942126
H    -4.157608  1.089416  6.767976
H    -5.757027  1.554857  8.388614
H    -7.282722  2.085109  7.777265
H    -7.173246  3.670692  5.972437
H    -6.120108  3.238103  4.676406
N    -0.624668  3.003441  0.588984
C    0.200379  3.844880  -0.289769
H    -1.624644  3.203804  0.584999
H    0.072883  4.895814  -0.001125
H    -0.136521  3.715732  -1.325900
H    1.249731  3.562254  -0.192741
Cd    2.164640  -0.014164  1.759261
