37
Energy: -175314.749148 eV PBE+vdW (tier 2 basis)
C    0.514847  1.215666  0.996058
C    -0.176639  0.493530  2.104063
O    -0.415051  -0.751068  1.916696
H    -0.050775  1.056728  0.065877
H    1.505382  0.765543  0.834754
H    0.623766  2.290921  1.174338
N    -0.508669  1.189545  3.205766
C    -1.387940  0.890259  4.371421
C    -0.719390  -0.038993  5.411902
O    -0.614170  -1.312976  5.259379
H    -0.176283  2.151068  3.181321
H    -1.485448  1.868193  4.863154
C    -2.816710  0.423354  3.991714
C    -3.632495  1.447598  3.165341
C    -4.436718  2.508136  3.946253
N    -5.774920  2.043286  4.326201
C    -6.889131  2.809340  4.375339
N    -8.086199  2.218393  4.441856
N    -6.804312  4.142917  4.340932
H    -3.329050  0.167077  4.932046
H    -2.768768  -0.514558  3.418329
H    -4.325444  0.902261  2.510185
H    -2.959719  1.980704  2.478622
H    -4.571065  3.379713  3.292570
H    -3.884280  2.853110  4.837795
H    -5.885805  1.082889  4.634701
H    -8.221929  1.248966  4.178057
H    -8.918201  2.742038  4.695611
H    -7.633458  4.710885  4.195047
H    -5.964413  4.635916  4.618485
N    -0.294677  0.504446  6.534523
C    0.342162  -0.206009  7.652340
H    -0.436525  1.505331  6.661894
H    1.205069  0.379410  7.989631
H    0.660363  -1.198529  7.327113
H    -0.372772  -0.300481  8.480471
Cd    -0.547634  -2.254605  3.379218
