37
Energy: -175314.263632 eV PBE+vdW (tier 2 basis)
C    0.779123  1.560117  1.351340
C    0.423161  0.180458  1.795265
O    1.397608  -0.625291  1.992587
H    1.369210  1.488410  0.425175
H    1.433765  2.024447  2.102715
H    -0.091910  2.200425  1.173612
N    -0.878742  -0.121960  1.944896
C    -1.590522  -1.414668  2.151911
C    -1.424019  -1.922073  3.603800
O    -0.441393  -2.670593  3.967619
H    -1.497016  0.664523  1.758163
H    -2.646140  -1.137543  2.043092
C    -1.265658  -2.469806  1.069823
C    -2.250627  -3.650551  0.915836
C    -3.546100  -3.327133  0.127132
N    -4.047254  -4.469249  -0.646168
C    -5.227312  -5.111185  -0.498719
N    -5.769361  -5.731880  -1.547489
N    -5.856692  -5.124366  0.685599
H    -0.261684  -2.895893  1.235391
H    -1.184612  -1.929654  0.114842
H    -2.487573  -4.104844  1.890179
H    -1.710044  -4.428662  0.359483
H    -3.349327  -2.517686  -0.592720
H    -4.357599  -2.974600  0.776212
H    -3.549602  -4.674723  -1.508533
H    -6.496524  -6.431491  -1.431101
H    -5.492397  -5.519075  -2.500516
H    -6.809119  -5.469443  0.754720
H    -5.338829  -5.057400  1.552386
N    -2.331041  -1.624927  4.514160
C    -3.560582  -0.827364  4.386824
H    -2.120891  -1.986767  5.448584
H    -4.121812  -0.929899  5.320054
H    -4.192708  -1.190962  3.568460
H    -3.323354  0.234306  4.243012
Cd    1.487576  -2.378002  3.148377
