37
Energy: -175313.745969 eV PBE+vdW (tier 2 basis)
C    1.144043  1.555778  2.246526
C    0.300692  0.588073  2.998028
O    0.339953  0.489592  4.284786
H    1.101047  1.427778  1.161924
H    2.191883  1.444581  2.563282
H    0.830437  2.579617  2.500058
N    -0.585469  -0.225484  2.416172
C    -1.171564  -0.208496  1.050654
C    -0.110722  -0.636912  -0.017101
O    0.270253  0.194534  -0.852536
H    -1.056935  -0.843972  3.080938
H    -1.933999  -1.000388  1.091455
C    -1.857504  1.125066  0.688354
C    -3.025915  1.026217  -0.311169
C    -2.741675  0.583167  -1.764612
N    -1.844974  1.455925  -2.515991
C    -2.185450  2.297335  -3.520760
N    -1.214760  2.787898  -4.301516
N    -3.456803  2.641451  -3.732065
H    -1.102615  1.840106  0.334213
H    -2.278553  1.538083  1.615947
H    -3.510679  2.013208  -0.332036
H    -3.786697  0.330407  0.076358
H    -3.693055  0.498545  -2.304371
H    -2.298439  -0.423130  -1.792710
H    -0.851916  1.348919  -2.304530
H    -1.401848  3.520622  -4.979953
H    -0.296882  2.357574  -4.342008
H    -3.733245  3.143298  -4.570752
H    -4.184373  2.471176  -3.048577
N    0.333761  -1.907144  -0.011727
C    -0.153303  -3.049944  0.763257
H    0.993915  -2.110646  -0.763761
H    0.451459  -3.920688  0.492449
H    -1.200879  -3.286911  0.528442
H    -0.040092  -2.886004  1.841122
Cd    1.815243  0.953476  5.780991
