37
Energy: -175314.754610 eV PBE+vdW (tier 2 basis)
C    -0.192907  -0.548671  -0.343250
C    -0.284879  -0.306424  1.124458
O    0.695206  0.301540  1.676938
H    -0.063299  0.418320  -0.852383
H    -1.072839  -1.057063  -0.752761
H    0.710116  -1.137678  -0.558225
N    -1.384218  -0.720326  1.782148
C    -1.776560  -0.395003  3.163429
C    -1.030071  -1.291053  4.190573
O    -0.021802  -0.789871  4.825013
H    -2.080581  -1.192258  1.208076
H    -1.394189  0.617191  3.377135
C    -3.317503  -0.308799  3.285444
C    -3.802635  0.102654  4.687398
C    -5.329946  0.146712  4.870802
N    -5.958141  1.296418  4.206280
C    -7.295786  1.425730  4.017012
N    -7.760665  2.494834  3.364477
N    -8.140457  0.480679  4.438957
H    -3.777176  -1.263506  2.994198
H    -3.641003  0.430721  2.537561
H    -3.372393  1.076545  4.973002
H    -3.434128  -0.609885  5.440871
H    -5.534398  0.171499  5.953517
H    -5.782183  -0.770085  4.464357
H    -5.444467  2.173259  4.238394
H    -8.748975  2.726714  3.366823
H    -7.149600  3.113759  2.844399
H    -9.120277  0.504873  4.172683
H    -7.895135  -0.164746  5.180273
N    -1.359567  -2.534083  4.477075
C    -2.444026  -3.384585  3.973465
H    -0.749508  -2.964355  5.178600
H    -2.131783  -4.426210  4.101339
H    -2.622837  -3.210936  2.908831
H    -3.364846  -3.228690  4.549962
Cd    1.304821  0.429177  3.700901
