37
Energy: -175313.795166 eV PBE+vdW (tier 2 basis)
C    0.297606  -0.484881  -0.280507
C    0.107384  0.021313  1.106827
O    1.047532  0.069770  1.977317
H    1.296629  -0.216742  -0.647565
H    -0.444497  -0.103143  -0.989065
H    0.240864  -1.585768  -0.274342
N    -1.099144  0.407577  1.556657
C    -2.409500  0.158637  0.939858
C    -2.864196  1.317672  -0.016542
O    -3.614891  0.987137  -0.933868
H    -1.100585  0.725694  2.530621
H    -2.320902  -0.709877  0.277850
C    -3.455942  -0.115548  2.051842
C    -4.938457  -0.194932  1.636570
C    -5.317916  -1.398941  0.749088
N    -6.718194  -1.368445  0.325214
C    -7.732596  -2.144029  0.770154
N    -8.858566  -2.207005  0.051650
N    -7.620570  -2.843099  1.903463
H    -3.378703  0.687279  2.802719
H    -3.153098  -1.045093  2.558524
H    -5.242418  0.731138  1.129318
H    -5.523542  -0.231588  2.566943
H    -5.123770  -2.354013  1.255664
H    -4.719873  -1.397137  -0.174644
H    -6.948353  -0.726874  -0.429725
H    -9.707919  -2.612644  0.433530
H    -8.892712  -1.914123  -0.919510
H    -8.312586  -3.542156  2.154838
H    -6.931324  -2.614698  2.608192
N    -2.449582  2.572460  0.218098
C    -2.917528  3.720704  -0.561149
H    -1.921793  2.758915  1.066571
H    -2.142641  4.494451  -0.544505
H    -3.841690  4.137864  -0.136112
H    -3.115522  3.397595  -1.588833
Cd    3.218715  0.214724  1.846867
