37
Energy: -175315.083558 eV PBE+vdW (tier 2 basis)
C    -0.150264  -2.313704  1.503628
C    -1.547452  -1.891710  1.804831
O    -2.486357  -2.677235  1.430598
H    0.603230  -1.606101  1.866594
H    -0.037892  -2.457493  0.419656
H    0.024935  -3.296734  1.967638
N    -1.747911  -0.734264  2.461283
C    -2.982616  -0.251021  3.115506
C    -3.868508  0.521720  2.106091
O    -4.726314  -0.102085  1.378111
H    -0.901989  -0.202276  2.659668
H    -3.570834  -1.140811  3.396647
C    -2.620418  0.476322  4.433050
C    -3.840572  0.812187  5.315858
C    -3.545751  1.025056  6.811381
N    -2.862636  2.292598  7.105551
C    -2.261546  2.568653  8.292308
N    -1.647636  3.744462  8.451672
N    -2.244453  1.667359  9.277576
H    -2.008798  1.371391  4.228322
H    -1.957756  -0.212421  4.979162
H    -4.551332  -0.027706  5.281872
H    -4.395995  1.677299  4.920865
H    -2.912453  0.204714  7.178774
H    -4.506389  0.974864  7.349272
H    -3.195294  3.110530  6.601443
H    -1.348808  4.064853  9.367487
H    -1.449901  4.357521  7.669438
H    -1.674155  1.814235  10.105162
H    -2.924245  0.918144  9.331358
N    -3.747505  1.825466  1.982653
C    -4.486408  2.668860  1.030133
H    -3.099027  2.297146  2.609301
H    -3.820507  3.465763  0.683465
H    -5.359644  3.113665  1.525187
H    -4.820197  2.062722  0.184610
Cd    -4.482601  -2.169969  0.969851
