37
Energy: -175314.370973 eV PBE+vdW (tier 2 basis)
C    -0.177312  -2.619326  0.849358
C    -0.793566  -1.428782  1.505372
O    -1.217559  -0.497431  0.731474
H    -0.941150  -3.133055  0.246558
H    0.268813  -3.327821  1.555635
H    0.591820  -2.275937  0.142373
N    -0.853673  -1.403977  2.846039
C    -1.158729  -0.330962  3.833042
C    -2.658037  0.002943  3.960332
O    -3.303592  0.722453  3.102195
H    -0.498392  -2.256269  3.274492
H    -0.884991  -0.798603  4.786243
C    -0.275397  0.940071  3.718730
C    1.205417  0.649291  4.057231
C    2.039082  1.840941  4.572795
N    2.645309  2.666519  3.523249
C    3.798601  3.361558  3.665963
N    4.371078  3.497248  4.864924
N    4.375982  3.899097  2.585783
H    -0.683596  1.663085  4.442542
H    -0.376850  1.407060  2.727455
H    1.722968  0.176614  3.210108
H    1.229417  -0.089063  4.873295
H    2.865296  1.425399  5.164821
H    1.427742  2.460537  5.250627
H    2.102346  2.880493  2.693939
H    5.319526  3.850079  4.950559
H    3.847620  3.399371  5.726709
H    4.163359  3.576104  1.649185
H    5.117459  4.586864  2.673651
N    -3.323642  -0.370707  5.034652
C    -2.875655  -1.102328  6.230794
H    -4.298257  -0.055055  5.046077
H    -3.768911  -1.476014  6.741024
H    -2.338245  -0.435599  6.917400
H    -2.255490  -1.963705  5.961506
Cd    -2.875524  0.754176  1.053250
