37
Energy: -175315.132196 eV PBE+vdW (tier 2 basis)
C    0.216374  0.889600  0.449437
C    0.109898  0.620644  1.911418
O    1.027038  1.105262  2.662088
H    0.222793  1.979760  0.295102
H    -0.601422  0.450240  -0.132131
H    1.181721  0.517827  0.078520
N    -0.939655  -0.088698  2.364130
C    -1.418974  -0.247187  3.754887
C    -0.705090  -1.442114  4.438413
O    0.422432  -1.274417  5.037084
H    -1.560446  -0.444330  1.638612
H    -1.100261  0.647438  4.315544
C    -2.966062  -0.272426  3.762996
C    -3.600405  -0.177725  5.163920
C    -5.134734  -0.353332  5.191616
N    -5.920521  0.775028  4.676112
C    -6.780911  1.531992  5.400449
N    -7.791995  2.146196  4.780507
N    -6.620841  1.683996  6.718492
H    -3.330008  -1.172791  3.236011
H    -3.288831  0.581724  3.148260
H    -3.330756  0.782932  5.628414
H    -3.193588  -0.963800  5.818811
H    -5.451501  -0.543351  6.224479
H    -5.425618  -1.250689  4.624514
H    -6.066008  0.813403  3.672090
H    -8.127402  1.844852  3.871902
H    -8.322194  2.882189  5.237067
H    -7.354278  2.092959  7.288876
H    -5.748921  1.470527  7.185009
N    -1.242115  -2.641799  4.407753
C    -0.643026  -3.864778  4.964502
H    -2.163605  -2.735167  3.984930
H    -0.904160  -4.704989  4.312851
H    -1.040787  -4.049810  5.971028
H    0.442310  -3.751476  5.018734
Cd    1.691554  0.339308  4.512569
