37
Energy: -175314.380574 eV PBE+vdW (tier 2 basis)
C    -0.065610  0.401125  -0.087511
C    -0.212728  -0.810337  0.771423
O    0.519940  -1.821429  0.475768
H    -0.792600  1.189022  0.137194
H    -0.165984  0.102410  -1.141108
H    0.954127  0.799235  0.023096
N    -1.099314  -0.769697  1.778450
C    -1.688046  -1.815440  2.660680
C    -0.747734  -2.297769  3.782688
O    0.232997  -3.116880  3.589089
H    -1.552472  0.137186  1.870982
H    -2.492343  -1.272078  3.170750
C    -2.379190  -2.990670  1.919112
C    -3.611198  -2.522276  1.109532
C    -4.720390  -3.568999  0.876811
N    -4.504538  -4.448858  -0.276208
C    -5.496540  -5.019620  -1.000365
N    -5.197207  -5.626476  -2.154221
N    -6.764887  -4.964514  -0.585731
H    -2.697200  -3.698738  2.700738
H    -1.664805  -3.535353  1.283626
H    -3.311492  -2.082937  0.147254
H    -4.101125  -1.711497  1.670353
H    -5.649521  -3.016409  0.683830
H    -4.873945  -4.161273  1.794940
H    -3.572065  -4.807110  -0.450838
H    -5.866634  -6.231952  -2.618855
H    -4.334984  -5.435294  -2.650971
H    -7.525727  -5.223504  -1.206675
H    -7.009003  -4.814008  0.385928
N    -0.985107  -1.947148  5.030859
C    -2.059499  -1.117715  5.600571
H    -0.334735  -2.359718  5.706443
H    -3.000141  -1.680312  5.657434
H    -2.193551  -0.193351  5.028599
H    -1.759722  -0.844587  6.616985
Cd    1.347974  -3.210030  1.819347
