37
Energy: -175314.103078 eV PBE+vdW (tier 2 basis)
C    -0.095214  -0.157623  0.312961
C    -0.473893  -0.131410  1.743253
O    0.271183  -0.733598  2.597801
H    0.933586  0.199844  0.168808
H    -0.800721  0.375132  -0.332018
H    -0.085474  -1.219352  0.004858
N    -1.613932  0.468603  2.185061
C    -2.047634  1.832581  1.874770
C    -1.479252  2.755410  3.002156
O    -0.803297  2.312455  4.004494
H    -1.947314  0.109864  3.081685
H    -1.526851  2.132657  0.952648
C    -3.571050  1.940547  1.598444
C    -4.513748  1.558628  2.752126
C    -5.981338  1.330164  2.341597
N    -6.685316  2.563239  1.965948
C    -7.847105  2.591510  1.263758
N    -8.378196  3.772650  0.934341
N    -8.438446  1.460732  0.869456
H    -3.756219  1.287740  0.732348
H    -3.787686  2.958706  1.241553
H    -4.465109  2.299186  3.566896
H    -4.204126  0.601268  3.199773
H    -6.495743  0.836607  3.181943
H    -6.013003  0.647031  1.480492
H    -6.530069  3.372041  2.562083
H    -9.327965  3.846017  0.583339
H    -7.853332  4.636122  1.009808
H    -9.217723  1.483117  0.218316
H    -8.271255  0.577135  1.336182
N    -1.693691  4.050948  2.914853
C    -1.164050  5.058720  3.849558
H    -2.252812  4.389741  2.134537
H    -1.390023  6.049302  3.446938
H    -0.078482  4.944109  3.947846
H    -1.631461  4.946029  4.835225
Cd    0.381129  0.548320  4.316285
