37
Energy: -175313.987555 eV PBE+vdW (tier 2 basis)
C    -0.596562  -1.559734  1.238442
C    0.216898  -0.468188  1.839851
O    1.489494  -0.575630  2.002918
H    -0.340235  -1.658566  0.173966
H    -1.676972  -1.410855  1.307613
H    -0.348231  -2.507037  1.745884
N    -0.299078  0.705872  2.239671
C    -1.578547  1.296782  1.843254
C    -1.432459  1.788405  0.347563
O    -1.264067  0.904296  -0.490693
H    0.393105  1.343641  2.642545
H    -2.314093  0.485148  1.770532
C    -2.058366  2.315188  2.902632
C    -3.556896  2.654044  2.777726
C    -4.019407  3.622681  3.882212
N    -5.453932  3.889776  3.770563
C    -6.270057  4.276084  4.777738
N    -7.592085  4.278024  4.577358
N    -5.769158  4.631902  5.964128
H    -1.440695  3.228696  2.879425
H    -1.875517  1.859028  3.887361
H    -4.148687  1.729048  2.847784
H    -3.772883  3.094417  1.791549
H    -3.449488  4.565755  3.819296
H    -3.830663  3.181572  4.872242
H    -5.855257  3.913291  2.836994
H    -8.223084  4.749775  5.218099
H    -8.017563  3.784921  3.799691
H    -6.379667  4.776283  6.762608
H    -4.811872  4.946729  6.067022
N    -1.476188  3.099877  0.065550
C    -1.276443  3.619069  -1.288128
H    -1.495379  3.767283  0.831035
H    -1.818855  4.565383  -1.385883
H    -1.647565  2.883581  -2.010047
H    -0.209932  3.800258  -1.487390
Cd    2.710103  -2.346369  2.145272
