37
Energy: -175314.257931 eV PBE+vdW (tier 2 basis)
C    -0.192290  0.363731  -0.053882
C    -0.227495  -0.564561  1.115438
O    0.869351  -1.151656  1.415526
H    0.262090  -0.157240  -0.908648
H    0.472989  1.208170  0.181162
H    -1.177711  0.747138  -0.339950
N    -1.397368  -0.729793  1.757253
C    -1.830983  -1.667367  2.828019
C    -1.271340  -1.285542  4.216845
O    -0.078902  -1.599147  4.600738
H    -2.137933  -0.130148  1.400908
H    -2.913348  -1.504003  2.887876
C    -1.604880  -3.173609  2.513755
C    -2.748207  -3.923238  1.793244
C    -2.933682  -3.641731  0.286348
N    -3.592367  -4.746079  -0.421210
C    -4.841940  -4.774042  -0.931670
N    -5.129085  -5.630179  -1.913570
N    -5.787708  -3.939794  -0.473053
H    -1.452020  -3.687566  3.473835
H    -0.674101  -3.307039  1.940661
H    -3.693872  -3.770815  2.336653
H    -2.520495  -4.993000  1.906754
H    -1.952592  -3.503877  -0.193392
H    -3.507382  -2.724762  0.095567
H    -3.004452  -5.539431  -0.661674
H    -6.089037  -5.869115  -2.143725
H    -4.404992  -6.075244  -2.468250
H    -6.675690  -3.859177  -0.958923
H    -5.769322  -3.607490  0.482527
N    -2.037648  -0.685360  5.104933
C    -3.448252  -0.277151  5.033578
H    -1.576464  -0.526265  6.006102
H    -3.598568  0.521708  5.767100
H    -4.106833  -1.115993  5.293727
H    -3.699253  0.121313  4.045746
Cd    1.548781  -1.823647  3.295653
