37
Energy: -175313.968889 eV PBE+vdW (tier 2 basis)
C    0.060059  -0.542779  0.494061
C    -0.155156  -0.140866  1.912040
O    0.776473  -0.226627  2.794486
H    0.971352  -0.059766  0.111552
H    -0.762981  -0.291146  -0.179710
H    0.219766  -1.631013  0.451438
N    -1.336094  0.289676  2.381819
C    -2.669998  0.215938  1.756310
C    -3.440644  1.534137  2.127520
O    -4.393501  1.499822  2.911069
H    -1.324979  0.501333  3.383820
H    -2.532542  0.187508  0.666741
C    -3.460796  -1.017191  2.223494
C    -4.788600  -1.208372  1.446379
C    -5.967317  -1.681816  2.299865
N    -6.444969  -0.624877  3.190344
C    -7.572795  -0.684807  3.933795
N    -8.304349  -1.797719  3.974557
N    -7.942067  0.399936  4.628489
H    -3.642790  -0.915251  3.303168
H    -2.825136  -1.903552  2.096528
H    -4.644821  -1.955794  0.655832
H    -5.089510  -0.285208  0.929095
H    -5.680897  -2.570304  2.892681
H    -6.790859  -1.987830  1.632962
H    -5.870116  0.223353  3.244926
H    -9.189162  -1.832502  4.471567
H    -8.002913  -2.658136  3.533325
H    -8.752924  0.390719  5.240027
H    -7.466564  1.288357  4.517003
N    -2.996028  2.667907  1.550513
C    -3.631561  3.967855  1.734032
H    -2.270455  2.599386  0.840733
H    -4.084869  4.010348  2.729626
H    -4.416780  4.131237  0.979375
H    -2.874489  4.751527  1.619025
Cd    2.939890  -0.261239  2.684126
