37
Energy: -175314.163150 eV PBE+vdW (tier 2 basis)
C    0.335708  1.331123  -0.485088
C    0.110277  0.773973  0.867446
O    1.123049  0.451318  1.586609
H    0.977973  2.221950  -0.443047
H    -0.590827  1.529576  -1.031705
H    0.914653  0.577079  -1.048880
N    -1.135139  0.541193  1.366211
C    -2.265304  1.472577  1.408021
C    -2.024889  2.415863  2.627357
O    -1.227225  2.113290  3.591821
H    -1.165496  -0.180967  2.090104
H    -2.244285  2.081259  0.492044
C    -3.589932  0.662446  1.476282
C    -4.891739  1.429351  1.180022
C    -6.075691  0.452555  1.027472
N    -7.310127  1.161441  0.684327
C    -8.563662  0.705919  0.913059
N    -9.601042  1.520447  0.699925
N    -8.768717  -0.530983  1.377956
H    -3.658447  0.168996  2.459243
H    -3.471915  -0.136975  0.729155
H    -4.777521  2.000548  0.243570
H    -5.130670  2.142914  1.982647
H    -6.240591  -0.076474  1.977102
H    -5.834402  -0.298691  0.256605
H    -7.236641  1.934245  0.028732
H    -9.483355  2.521450  0.591345
H    -10.550332  1.164494  0.650120
H    -9.689002  -0.816025  1.698760
H    -8.092316  -1.272102  1.240176
N    -2.691306  3.550074  2.687047
C    -2.585108  4.540584  3.770427
H    -3.347080  3.754920  1.935771
H    -1.533545  4.689328  4.036926
H    -3.135705  4.196483  4.655322
H    -3.011262  5.482930  3.415967
Cd    0.655502  1.076126  3.589899
