37
Energy: -175315.058377 eV PBE+vdW (tier 2 basis)
C    -1.765448  -0.816011  -0.492738
C    -1.091177  -0.635979  0.824739
O    0.119508  -0.225363  0.809666
H    -1.210586  -1.558936  -1.083861
H    -1.709957  0.129724  -1.051760
H    -2.812758  -1.124895  -0.403725
N    -1.784795  -0.898335  1.947938
C    -1.388235  -0.616513  3.337618
C    -0.415063  -1.696168  3.889524
O    0.850964  -1.431279  3.908411
H    -2.732152  -1.242924  1.804684
H    -0.773401  0.298554  3.316958
C    -2.609518  -0.304170  4.234410
C    -3.193628  1.106990  4.023540
C    -4.393665  1.360071  4.955716
N    -4.933594  2.708663  4.769146
C    -5.635929  3.407319  5.689818
N    -6.038954  2.828633  6.826188
N    -5.899912  4.698065  5.466925
H    -2.282973  -0.411078  5.279924
H    -3.390760  -1.062710  4.079735
H    -3.512365  1.232332  2.976128
H    -2.421400  1.865833  4.220670
H    -4.070401  1.268272  6.002868
H    -5.175058  0.602447  4.774335
H    -4.945774  3.083559  3.825205
H    -6.421180  3.387441  7.582929
H    -6.168138  1.826757  6.898534
H    -6.595102  5.196545  6.013345
H    -5.403822  5.233032  4.763071
N    -0.785907  -2.863965  4.371310
C    -2.114615  -3.463834  4.543043
H    -0.000455  -3.432864  4.701749
H    -2.556267  -3.166276  5.502415
H    -1.986233  -4.551165  4.543033
H    -2.778249  -3.198110  3.715549
Cd    1.659000  -0.377665  2.259962
