37
Energy: -175314.073030 eV PBE+vdW (tier 2 basis)
C    0.526089  1.480916  0.423641
C    0.402087  0.967548  1.806835
O    1.467578  0.720550  2.479025
H    1.106419  0.732513  -0.145734
H    1.127879  2.400087  0.395698
H    -0.437742  1.618032  -0.075004
N    -0.800907  0.698318  2.381501
C    -1.953773  1.605294  2.476714
C    -1.565015  2.680553  3.530814
O    -0.779766  2.374761  4.514160
H    -0.743067  0.043537  3.164971
H    -2.107469  2.083350  1.500597
C    -3.199731  0.763924  2.871783
C    -4.544072  1.507169  2.923072
C    -5.747443  0.634137  3.324727
N    -6.183011  -0.271584  2.252822
C    -7.051147  -1.298567  2.431387
N    -7.362092  -2.077092  1.390834
N    -7.562727  -1.559571  3.637687
H    -3.003480  0.302509  3.853955
H    -3.245310  -0.056755  2.140652
H    -4.758142  1.994916  1.958653
H    -4.505349  2.311940  3.670878
H    -6.570071  1.308802  3.611965
H    -5.489140  0.026107  4.204215
H    -6.147790  0.098579  1.306572
H    -8.136540  -2.731891  1.433047
H    -6.841167  -2.044615  0.522204
H    -8.099692  -2.405788  3.801424
H    -7.603360  -0.856569  4.365783
N    -2.035816  3.910590  3.486285
C    -2.953985  4.554972  2.541676
H    -1.700797  4.509610  4.247638
H    -2.499392  5.496641  2.209660
H    -3.902900  4.785151  3.042190
H    -3.141456  3.920896  1.672741
Cd    1.161968  1.454325  4.479234
