37
Energy: -175313.533173 eV PBE+vdW (tier 2 basis)
C    -0.589409  -0.268515  -0.159076
C    0.046952  -0.035570  1.167538
O    1.315495  0.163361  1.291743
H    -1.681705  -0.250940  -0.139439
H    -0.277473  -1.257000  -0.532733
H    -0.234771  0.486808  -0.872903
N    -0.624935  -0.019670  2.321932
C    -2.074099  0.064871  2.655338
C    -2.954729  -0.963971  1.893290
O    -3.970563  -0.609955  1.289555
H    -0.008984  0.106383  3.130457
H    -2.096727  -0.277298  3.703664
C    -2.628045  1.506855  2.703616
C    -2.663220  2.390790  1.440859
C    -3.967173  2.420570  0.615712
N    -5.103153  2.979949  1.344004
C    -6.322506  2.407195  1.514403
N    -7.355157  3.187327  1.847381
N    -6.472820  1.090271  1.370995
H    -2.021702  2.024168  3.461122
H    -3.629054  1.434459  3.154000
H    -1.853151  2.140483  0.740756
H    -2.439486  3.420770  1.754421
H    -4.238979  1.432391  0.237154
H    -3.795487  3.064184  -0.263980
H    -5.025952  3.954698  1.630218
H    -8.246722  2.793334  2.134200
H    -7.325593  4.195704  1.730924
H    -5.670133  0.461956  1.331979
H    -7.398401  0.674229  1.347237
N    -2.579679  -2.260421  1.994813
C    -3.371833  -3.364513  1.465845
H    -1.824355  -2.496396  2.635585
H    -3.889206  -3.040701  0.556825
H    -4.126744  -3.690909  2.199463
H    -2.709209  -4.211993  1.258268
Cd    3.071362  -0.295553  0.127482
