37
Energy: -175313.339885 eV PBE+vdW (tier 2 basis)
C    0.157820  0.717682  0.378721
C    -0.104171  0.073597  1.695541
O    0.775968  -0.626197  2.321079
H    1.174246  1.134849  0.365135
H    -0.540971  1.524107  0.136950
H    0.109903  -0.043279  -0.416623
N    -1.300620  0.131872  2.296734
C    -2.582167  0.546902  1.715070
C    -3.044403  2.013226  2.030847
O    -3.894527  2.426510  1.228254
H    -1.333650  -0.334954  3.206257
H    -2.453951  0.553081  0.627277
C    -3.746286  -0.417500  2.104749
C    -4.515479  -1.049514  0.928929
C    -5.247575  -0.112937  -0.057926
N    -6.285626  0.738151  0.517805
C    -7.623977  0.556552  0.425231
N    -8.433000  1.589151  0.691258
N    -8.134466  -0.627727  0.083365
H    -4.441288  0.107498  2.774896
H    -3.332792  -1.244402  2.700248
H    -5.235596  -1.758205  1.364017
H    -3.829525  -1.658663  0.320024
H    -5.687809  -0.717299  -0.861972
H    -4.536014  0.572128  -0.542232
H    -5.959719  1.628822  0.892708
H    -8.094011  2.545530  0.691944
H    -9.437772  1.464993  0.776605
H    -9.120277  -0.731024  -0.138096
H    -7.580846  -1.475429  0.083844
N    -2.616288  2.732506  3.071713
C    -1.790603  2.356671  4.223077
H    -3.042229  3.659276  3.109522
H    -1.907689  3.140846  4.977921
H    -0.727023  2.298385  3.964302
H    -2.132753  1.420075  4.680842
Cd    2.941740  -0.683052  2.282612
