37
Energy: -175313.831527 eV PBE+vdW (tier 2 basis)
C    0.729559  -0.786766  0.904975
C    0.109290  0.333487  1.675543
O    0.419946  1.573375  1.470266
H    1.821483  -0.766595  1.038526
H    0.499905  -0.668174  -0.166602
H    0.369508  -1.774984  1.211567
N    -0.779140  0.055009  2.618707
C    -1.485522  1.007971  3.501785
C    -1.281645  0.455277  4.937863
O    -1.855042  -0.603526  5.233809
H    -0.981161  -0.931830  2.791491
H    -1.010202  1.990282  3.375356
C    -2.980991  1.045526  3.112108
C    -3.909423  1.959121  3.931374
C    -4.240723  1.566940  5.390349
N    -4.760481  0.214028  5.567890
C    -6.017442  -0.135195  5.935365
N    -6.233706  -1.381742  6.370799
N    -7.024975  0.735593  5.858860
H    -3.362730  0.013775  3.111791
H    -3.026209  1.382812  2.066943
H    -4.852227  2.026796  3.369346
H    -3.510602  2.984453  3.968523
H    -4.959376  2.286103  5.801718
H    -3.348166  1.649442  6.029241
H    -4.066791  -0.533846  5.515846
H    -7.174786  -1.736059  6.516678
H    -5.472889  -1.980853  6.673723
H    -7.933081  0.524597  6.262160
H    -6.956159  1.597502  5.331486
N    -0.479625  1.140158  5.771767
C    -0.161711  0.715039  7.131987
H    -0.083596  2.019797  5.448084
H    0.916239  0.829955  7.302270
H    -0.456897  -0.329953  7.260504
H    -0.690365  1.340907  7.866466
Cd    1.581954  2.320840  -0.188536
