37
Energy: -175314.855679 eV PBE+vdW (tier 2 basis)
C    -1.490769  -2.915409  -0.257469
C    -1.037133  -1.967982  0.799680
O    0.079945  -1.374413  0.609134
H    -0.726514  -3.692026  -0.402593
H    -1.566597  -2.369293  -1.210075
H    -2.456199  -3.382092  -0.032380
N    -1.819864  -1.777050  1.878032
C    -1.688515  -0.734314  2.910626
C    -0.626150  -1.122833  3.974262
O    0.543916  -0.578559  3.902055
H    -2.682202  -2.319321  1.887033
H    -1.255802  0.154251  2.420892
C    -3.088182  -0.310238  3.415007
C    -3.093674  0.871506  4.402540
C    -4.535199  1.247663  4.804793
N    -4.581405  2.353503  5.766835
C    -5.403188  3.429174  5.730321
N    -5.895699  3.888439  4.574760
N    -5.712502  4.049183  6.872028
H    -3.612800  -1.171556  3.851693
H    -3.653829  -0.033135  2.511646
H    -2.599193  1.747652  3.956727
H    -2.523029  0.617284  5.310467
H    -5.044200  0.375325  5.245992
H    -5.121230  1.525460  3.920295
H    -4.152394  2.178039  6.671450
H    -6.631913  4.587095  4.566763
H    -5.469023  3.670812  3.683862
H    -6.116637  4.980788  6.874130
H    -5.601967  3.601318  7.775339
N    -0.834682  -1.968946  4.962652
C    -2.028791  -2.735756  5.337829
H    -0.014266  -2.105015  5.560636
H    -2.692175  -2.142256  5.979530
H    -1.693552  -3.610001  5.905399
H    -2.566351  -3.090280  4.454112
Cd    1.367766  -0.370019  1.953997
