23
Energy: -30563.9002456 eV PBE+vdW (tier 2 basis)
N    1.122090  0.092726  -0.005985
C    0.503344  -0.098516  1.369985
C    1.448257  -0.970936  2.193256
O    1.086946  -1.363628  3.348192
H    0.974604  1.043910  -0.368071
H    2.136395  -0.108008  0.035476
H    0.522617  0.885888  1.864423
C    -0.955336  -0.575976  1.265907
C    -1.230657  -1.778608  0.340597
C    -0.439856  -3.038109  0.717840
C    -2.741763  -2.054291  0.324554
H    -1.563619  0.282804  0.945854
H    -1.279063  -0.805862  2.291651
H    -0.965851  -1.503517  -0.703286
H    -0.714489  -3.872854  0.061542
H    -0.662727  -3.344109  1.750158
H    0.652134  -2.917819  0.613797
H    -2.979560  -2.858179  -0.381951
H    -3.314255  -1.167008  0.025710
H    -3.092433  -2.364965  1.318616
O    2.624680  -1.240694  1.746427
H    0.684759  -0.568195  -0.670263
Ca    3.028785  -2.312052  3.658570
