23
Energy: -30563.9351525 eV PBE+vdW (tier 2 basis)
N    -0.253901  0.581241  1.474788
C    0.653178  0.060377  2.577023
C    2.100447  0.263540  2.153101
O    3.026520  0.117631  3.017411
H    0.087465  0.269132  0.553150
H    -1.210387  0.209276  1.634329
H    0.459493  0.666732  3.474052
C    0.350842  -1.425498  2.863664
C    -0.940465  -1.710331  3.665783
C    -2.223267  -1.156600  3.024301
C    -1.051287  -3.225563  3.879168
H    1.205071  -1.813382  3.435690
H    0.341341  -1.977954  1.906916
H    -0.820809  -1.232216  4.652513
H    -2.347302  -1.490629  1.978895
H    -2.315864  -0.057049  3.092651
H    -3.107322  -1.528763  3.557510
H    -0.152870  -3.635719  4.358324
H    -1.204240  -3.755761  2.928066
H    -1.905158  -3.457317  4.527354
O    2.382872  0.540862  0.930688
H    -0.306085  1.608675  1.451279
Ca    4.540728  0.505314  1.494344
