23
Energy: -30563.9403901 eV PBE+vdW (tier 2 basis)
N    -0.100470  -0.959668  0.880721
C    0.487077  -0.423382  2.176044
C    1.917187  0.019986  1.915166
O    2.528535  0.703856  2.801086
H    0.595646  -1.539614  0.387689
H    -0.932805  -1.538172  1.108074
H    -0.108302  0.453897  2.468330
C    0.419474  -1.498123  3.280566
C    -0.993367  -1.802046  3.840176
C    -1.619135  -0.589697  4.536076
C    -1.959676  -2.431081  2.821919
H    1.047946  -1.130575  4.103836
H    0.896024  -2.420675  2.907638
H    -0.801650  -2.568093  4.608399
H    -1.886866  0.212559  3.829480
H    -0.953878  -0.165608  5.299424
H    -2.551394  -0.877566  5.037443
H    -1.505896  -3.252910  2.244372
H    -2.412353  -1.685444  2.139285
H    -2.824672  -2.868378  3.336454
O    2.511566  -0.324279  0.828513
H    -0.390495  -0.213182  0.234746
Ca    4.332505  0.724194  1.573564
