23
Energy: -30563.8183105 eV PBE+vdW (tier 2 basis)
N    -0.897116  0.363407  0.303535
C    -0.739603  0.037276  1.783781
C    0.544638  0.690583  2.279093
O    1.607765  0.548577  1.576422
H    -1.608247  -0.243553  -0.131947
H    -1.180211  1.341284  0.141134
H    -1.604985  0.459181  2.307486
C    -0.654031  -1.499587  1.928291
C    -0.366279  -2.091929  3.332340
C    1.094778  -1.959180  3.817877
C    -1.367610  -1.639002  4.401080
H    0.107226  -1.867718  1.221031
H    -1.625909  -1.900558  1.598605
H    -0.514981  -3.172027  3.175393
H    1.316987  -2.726284  4.569846
H    1.237740  -0.997565  4.355983
H    1.825254  -2.089924  3.002425
H    -1.262840  -0.573363  4.650744
H    -1.220059  -2.205820  5.328627
H    -2.402482  -1.815637  4.079853
O    0.573918  1.223269  3.430764
H    0.001234  0.206370  -0.183579
Ca    2.740814  0.836202  3.470216
