23
Energy: -30563.2354017 eV PBE+vdW (tier 2 basis)
N    0.327693  0.280476  0.169134
C    0.256110  0.031230  1.659585
C    1.688934  -0.059952  2.178704
O    2.657606  0.220335  1.423048
H    0.092484  -0.609209  -0.291256
H    -0.458467  0.890665  -0.081875
H    -0.173250  0.940121  2.116873
C    -0.633855  -1.188005  2.035647
C    -1.526454  -1.037292  3.290374
C    -2.423727  -2.276462  3.406768
C    -0.752969  -0.806880  4.596133
H    -0.011838  -2.095046  2.114721
H    -1.309360  -1.357405  1.183140
H    -2.172738  -0.158074  3.123950
H    -3.126167  -2.163207  4.241273
H    -1.832569  -3.184669  3.592661
H    -3.016102  -2.436985  2.496704
H    -1.436304  -0.797712  5.455311
H    -0.255337  0.179987  4.651083
H    -0.047046  -1.631202  4.813473
O    1.949901  -0.407807  3.392425
H    1.133465  -0.592816  3.937868
Ca    2.563519  0.961130  -0.548681
