23
Energy: -30562.1340226 eV PBE+vdW (tier 2 basis)
N    0.542371  0.399005  0.231757
C    0.246810  -0.110212  1.571401
C    1.691017  -0.363774  1.971436
O    2.463981  0.556574  2.416117
H    0.317497  -0.258680  -0.512202
H    0.153212  1.315464  0.029031
H    -0.146898  0.693446  2.209709
C    -0.638703  -1.356986  1.671202
C    -2.164281  -1.105299  1.594641
C    -2.616660  -0.440660  0.288933
C    -2.897970  -2.432802  1.821010
H    -0.435745  -1.854204  2.635329
H    -0.363314  -2.072924  0.869464
H    -2.414905  -0.431045  2.432353
H    -2.320563  -1.032792  -0.590309
H    -2.230650  0.580590  0.166923
H    -3.710797  -0.364988  0.268767
H    -2.610382  -2.906929  2.769128
H    -2.695622  -3.144875  1.007631
H    -3.981974  -2.269222  1.849614
O    2.255846  -1.525620  1.799506
H    1.591062  -2.201468  1.532190
Ca    4.083055  1.653409  2.912865
