23
Energy: -30563.2949575 eV PBE+vdW (tier 2 basis)
N    0.834681  -0.418156  0.511301
C    0.259234  0.016199  1.824387
C    1.384303  0.020199  2.850000
O    2.390097  -0.706087  2.697090
H    0.062698  -0.743529  -0.081365
H    1.197798  0.409504  0.023182
H    -0.136425  1.040050  1.739427
C    -0.908559  -0.910159  2.324150
C    -1.079611  -2.326800  1.726594
C    0.156836  -3.259658  1.803181
C    -2.275667  -2.990478  2.431743
H    -1.843288  -0.368409  2.132736
H    -0.838511  -0.998222  3.419348
H    -1.354434  -2.229297  0.663162
H    0.845208  -3.003467  2.632375
H    0.663963  -3.335411  0.814193
H    -0.137369  -4.299507  1.996601
H    -3.171028  -2.359033  2.373990
H    -2.059995  -3.176473  3.493173
H    -2.518618  -3.949769  1.958728
O    1.308521  0.733017  3.938223
H    0.518482  1.309663  3.990110
Ca    2.595685  -2.051178  1.028670
