23
Energy: -30563.2467445 eV PBE+vdW (tier 2 basis)
N    0.211746  0.087232  0.216473
C    0.033435  -0.098649  1.706071
C    1.416284  -0.073864  2.344376
O    2.427883  0.238706  1.660166
H    0.067436  -0.834237  -0.218030
H    -0.585829  0.636026  -0.124460
H    -0.487179  0.800890  2.080636
C    -0.817308  -1.348776  2.074535
C    -1.810729  -1.184201  3.252486
C    -1.144614  -0.974251  4.619135
C    -2.866845  -0.111094  2.971361
H    -0.154779  -2.212013  2.243477
H    -1.416846  -1.591002  1.183636
H    -2.325085  -2.157125  3.297667
H    -1.882509  -1.050857  5.428355
H    -0.732026  0.046959  4.742290
H    -0.390886  -1.747517  4.853495
H    -2.444586  0.907406  2.948083
H    -3.625887  -0.103533  3.763416
H    -3.390179  -0.290338  2.022628
O    1.592739  -0.347980  3.592290
H    0.748735  -0.572361  4.076938
Ca    2.455842  0.877365  -0.348168
