23
Energy: -30563.3756473 eV PBE+vdW (tier 2 basis)
N    -0.502252  0.393070  0.052997
C    0.126696  -0.090415  1.349421
C    1.594744  0.404725  1.229102
O    2.377214  0.072435  2.225525
H    -0.761248  -0.379380  -0.573616
H    -1.329551  0.984911  0.192276
H    -0.363567  0.462576  2.163506
C    -0.037508  -1.614653  1.548799
C    -0.317679  -2.124574  2.982265
C    -0.727067  -3.603877  2.920921
C    0.836245  -1.955430  3.991552
H    0.828560  -2.142216  1.118239
H    -0.904575  -1.937486  0.952720
H    -1.168972  -1.549923  3.385004
H    -0.984777  -3.983602  3.917023
H    0.080854  -4.231903  2.517962
H    -1.607529  -3.742704  2.281282
H    0.585498  -2.425040  4.950834
H    1.020899  -0.881296  4.196530
H    1.735867  -2.490067  3.607129
O    1.929965  1.046283  0.249016
H    0.278686  0.951163  -0.398352
Ca    3.403303  -0.675467  3.759173
