23
Energy: -30563.2067552 eV PBE+vdW (tier 2 basis)
N    0.940846  -0.653906  0.484299
C    0.359062  -0.225398  1.807055
C    1.427737  -0.421848  2.877923
O    2.625091  -0.625716  2.556346
H    0.527210  -1.575940  0.276863
H    0.545649  -0.045932  -0.242163
H    0.234166  0.872015  1.768706
C    -1.027512  -0.842964  2.097647
C    -1.149537  -2.373851  1.963603
C    -0.161161  -3.146951  2.843369
C    -2.599998  -2.786488  2.257139
H    -1.745928  -0.352792  1.424086
H    -1.352861  -0.533024  3.107429
H    -0.962865  -2.647577  0.904829
H    -0.312014  -2.930394  3.910858
H    0.898677  -2.943153  2.608337
H    -0.296177  -4.227891  2.715013
H    -2.735406  -3.861492  2.090088
H    -3.313339  -2.256143  1.613431
H    -2.864436  -2.576224  3.303139
O    1.159012  -0.292923  4.140782
H    0.203720  -0.165170  4.321648
Ca    3.371064  -0.829237  0.584571
