23
Energy: -30563.1527101 eV PBE+vdW (tier 2 basis)
N    1.114877  -0.053947  0.503057
C    0.258790  0.228727  1.713924
C    1.140509  0.845191  2.793181
O    2.335730  1.147001  2.551972
H    1.218102  -1.078400  0.449366
H    0.563739  0.182598  -0.329358
H    -0.423875  1.052444  1.437610
C    -0.635047  -0.957252  2.154479
C    0.021613  -2.273121  2.633081
C    0.814223  -3.022203  1.547763
C    0.846358  -2.125371  3.914970
H    -1.306029  -1.163282  1.306241
H    -1.311603  -0.587809  2.944866
H    -0.844444  -2.910259  2.874545
H    0.991499  -4.060736  1.854320
H    1.827108  -2.602477  1.395704
H    0.284301  -3.069308  0.584359
H    1.176996  -3.108807  4.271648
H    0.273922  -1.667382  4.733082
H    1.765466  -1.533713  3.764599
O    0.666421  1.163905  3.959715
H    -0.258863  0.872902  4.099376
Ca    3.321151  0.954715  0.685641
