23
Energy: -30563.8982949 eV PBE+vdW (tier 2 basis)
N    0.989289  -0.292527  -0.169308
C    0.548943  -0.109861  1.276805
C    1.420496  -0.989550  2.167135
O    1.186868  -1.022596  3.419195
H    1.995893  -0.512244  -0.225947
H    0.468342  -1.085922  -0.587372
H    0.797574  0.929416  1.544594
C    -0.965740  -0.321177  1.440119
C    -1.515842  -1.757782  1.318654
C    -3.032545  -1.717430  1.549793
C    -1.192606  -2.451921  -0.016490
H    -1.470737  0.341432  0.716863
H    -1.221952  0.081941  2.429733
H    -1.070970  -2.358905  2.131662
H    -3.540896  -1.155619  0.753181
H    -3.284854  -1.246057  2.508277
H    -3.449954  -2.731605  1.556467
H    -1.748242  -3.394170  -0.105312
H    -0.132504  -2.750890  -0.119450
H    -1.499482  -1.843561  -0.884153
O    2.402445  -1.649335  1.666137
H    0.792808  0.549355  -0.726591
Ca    2.912668  -2.321992  3.732008
