23
Energy: -30563.1921423 eV PBE+vdW (tier 2 basis)
N    -0.301112  -0.482239  -0.055617
C    -0.178228  0.074129  1.337451
C    1.286118  0.388934  1.578410
O    2.173349  -0.217870  0.928425
H    -1.161493  -1.048190  -0.069568
H    -0.509246  0.292737  -0.699056
H    -0.783857  0.989379  1.440193
C    -0.634822  -0.964451  2.400021
C    -2.158445  -1.045231  2.650781
C    -2.989065  -1.338996  1.394697
C    -2.413602  -2.093788  3.741493
H    -0.142215  -0.732393  3.356202
H    -0.242810  -1.956025  2.101134
H    -2.469995  -0.061754  3.042598
H    -4.041901  -1.488454  1.664921
H    -2.670711  -2.273082  0.899391
H    -2.993669  -0.512218  0.666146
H    -3.477129  -2.109379  4.009227
H    -1.846417  -1.881237  4.657056
H    -2.145737  -3.104254  3.399745
O    1.676753  1.228474  2.491488
H    0.946544  1.689190  2.954611
Ca    1.792315  -1.555240  -0.682367
