23
Energy: -30563.3703296 eV PBE+vdW (tier 2 basis)
N    -0.003110  0.152258  -0.246388
C    -0.090766  -0.115021  1.246812
C    1.010709  0.794230  1.843479
O    0.982052  0.915703  3.149532
H    0.001425  -0.703972  -0.814817
H    -0.758508  0.759615  -0.588482
H    -1.078211  0.215208  1.594160
C    0.100984  -1.621147  1.529584
C    0.006250  -2.046538  3.021631
C    -0.718157  -3.393717  3.158856
C    1.393321  -2.146404  3.698307
H    1.059129  -1.957814  1.101128
H    -0.691196  -2.150657  0.979717
H    -0.607416  -1.291274  3.545528
H    -1.749599  -3.325847  2.791588
H    -0.761809  -3.720915  4.205819
H    -0.202298  -4.177924  2.587292
H    1.908974  -3.076699  3.418598
H    1.307520  -2.224530  4.803336
H    2.108257  -1.357971  3.382477
O    1.833244  1.301668  1.099519
H    0.913228  0.667498  -0.349820
Ca    1.595944  0.378439  4.978662
