21
Energy: -101662.73662 eV PBE+vdW (tier 2 basis)
N    -0.098527  -0.359534  -0.197998
C    -0.106392  -0.110565  1.238638
C    1.289065  0.284933  1.733736
O    2.051413  -0.430560  2.389423
H    -0.022616  0.498586  -0.742208
H    0.648656  -0.991781  -0.486669
H    -0.770920  0.748871  1.416697
C    -0.676813  -1.355185  1.937975
C    -0.917831  -1.243911  3.471470
C    -0.084466  -2.161942  4.325043
O    -0.653027  -2.867277  5.265798
N    1.200798  -2.237325  4.117259
H    -0.036980  -2.220161  1.711424
H    -1.634914  -1.555414  1.445649
H    -1.970030  -1.435356  3.709361
H    -0.711673  -0.217269  3.821492
H    1.630203  -1.606015  3.372111
H    1.791642  -2.841029  4.683665
O    1.645140  1.493845  1.306731
H    2.572579  1.670840  1.568045
Sr    -1.761978  -3.935562  6.770087
