21
Energy: -101663.54146 eV PBE+vdW (tier 2 basis)
N    -1.080237  0.673132  1.042049
C    -0.375856  -0.034022  2.110134
C    0.999511  -0.330258  1.507050
O    2.027144  0.295390  1.907641
H    -1.699913  0.102705  0.473033
H    -1.591062  1.481930  1.387140
H    -0.172946  0.701054  2.898920
C    -1.085059  -1.219674  2.815401
C    -1.122726  -2.631591  2.170479
C    -1.708333  -2.721397  0.795330
O    -1.078618  -2.250023  -0.236195
N    -2.874773  -3.282491  0.576366
H    -2.112504  -0.884233  3.017422
H    -0.614753  -1.365062  3.798179
H    -1.683819  -3.291431  2.844422
H    -0.105793  -3.048902  2.107547
H    -3.418708  -3.687100  1.332741
H    -3.249015  -3.349334  -0.369892
O    1.125157  -1.149410  0.492145
H    -0.172059  -1.828497  0.029093
Sr    3.326678  -0.253624  0.075164
