21
Energy: -101662.76671 eV PBE+vdW (tier 2 basis)
N    -0.478341  0.485016  -0.065220
C    -0.217415  0.015700  1.306945
C    1.118052  -0.725106  1.360096
O    1.512066  -1.521961  0.512484
H    -1.101110  1.293226  -0.019257
H    0.380025  0.828282  -0.500726
H    -0.148750  0.834363  2.041056
C    -1.377527  -0.900224  1.767862
C    -1.455086  -2.317930  1.143803
C    -1.561415  -2.407667  -0.356560
O    -2.734481  -2.510074  -0.919811
N    -0.473757  -2.455464  -1.075802
H    -2.310794  -0.350736  1.575952
H    -1.321033  -1.042839  2.855767
H    -2.333939  -2.824909  1.562829
H    -0.576954  -2.902135  1.450935
H    -0.518202  -2.483568  -2.090997
H    0.428587  -2.190257  -0.605076
O    1.808353  -0.428114  2.456760
H    2.644704  -0.940955  2.460447
Sr    -4.701068  -2.771254  -1.740713
