21
Energy: -101662.733098 eV PBE+vdW (tier 2 basis)
N    -0.287489  0.056388  0.562104
C    -0.175487  -0.270911  2.026388
C    1.276151  -0.365925  2.516510
O    1.571339  -0.850213  3.576531
H    0.340322  0.831126  0.314867
H    -0.036731  -0.737509  -0.037859
H    -0.608891  0.605282  2.532778
C    -0.971095  -1.531201  2.408377
C    -2.353325  -1.752270  1.741386
C    -3.282357  -0.554633  1.618123
O    -4.485720  -0.658256  2.180483
N    -2.880832  0.466108  0.942428
H    -1.075646  -1.502529  3.499699
H    -0.362401  -2.421549  2.196672
H    -2.860462  -2.550252  2.294972
H    -2.215032  -2.142465  0.720763
H    -1.355405  0.336323  0.448213
H    -3.560229  1.227263  0.869232
O    2.128265  0.193087  1.625410
H    3.035419  0.153294  1.993983
Sr    -6.441891  -0.874638  2.968839
