21
Energy: -101662.420309 eV PBE+vdW (tier 2 basis)
N    0.248235  -0.380784  0.145578
C    -0.136674  -0.201593  1.524426
C    0.986414  -0.285052  2.569775
O    2.117821  -0.636360  2.402270
H    0.768369  -1.251088  0.015691
H    0.858663  0.371344  -0.174448
H    -0.527864  0.826824  1.619030
C    -1.258272  -1.214735  1.898870
C    -2.667672  -0.647527  1.739306
C    -3.128443  0.329279  2.781587
O    -4.342457  0.794736  2.708998
N    -2.348234  0.713568  3.762905
H    -1.127748  -1.619356  2.912342
H    -1.162921  -2.071890  1.221043
H    -3.418104  -1.456243  1.733757
H    -2.765092  -0.148714  0.758364
H    -1.359561  0.410544  3.850390
H    -2.689223  1.375639  4.456631
O    0.489879  0.126373  3.806084
H    1.216832  0.059582  4.458216
Sr    -6.390937  1.351925  2.283185
