21
Energy: -101662.463339 eV PBE+vdW (tier 2 basis)
N    -0.307872  -0.222070  -0.074669
C    -0.242803  0.043489  1.357691
C    1.183704  0.383178  1.821765
O    2.171715  -0.003176  1.240688
H    -0.437000  0.641881  -0.600580
H    0.587830  -0.616037  -0.381532
H    -0.907025  0.881696  1.610139
C    -0.712223  -1.220797  2.131724
C    -2.049494  -1.679953  1.552846
C    -2.519494  -3.053075  1.844807
O    -3.710664  -3.422433  1.470268
N    -1.747916  -3.929027  2.456768
H    -0.770878  -1.012451  3.208226
H    0.061436  -1.991536  1.970701
H    -1.925758  -1.584004  0.444733
H    -2.865505  -0.987041  1.813073
H    -0.819287  -3.662447  2.775247
H    -2.049020  -4.885750  2.622065
O    1.175567  1.113733  2.953858
H    2.104862  1.286212  3.211450
Sr    -5.682705  -3.721611  0.637824
