21
Energy: -101663.670406 eV PBE+vdW (tier 2 basis)
N    0.948308  -0.004312  0.199811
C    0.131933  0.022033  1.414791
C    1.035006  -0.381531  2.574920
O    2.072239  0.319955  2.806362
H    0.448848  0.443273  -0.571194
H    1.814672  0.520796  0.325856
H    -0.199801  1.042852  1.705282
C    -1.150407  -0.807643  1.224791
C    -0.943900  -2.195547  0.561856
C    -1.188832  -3.358293  1.459044
O    -0.728203  -3.397989  2.674153
N    -1.869486  -4.407185  1.057793
H    -1.803602  -0.221947  0.565162
H    -1.699587  -0.880184  2.173431
H    0.101442  -2.255086  0.200868
H    -1.567601  -2.298276  -0.333532
H    -2.275664  -4.449463  0.128244
H    -2.001625  -5.207390  1.674667
O    0.777385  -1.386733  3.357143
H    -0.198897  -2.562846  2.913341
Sr    2.688658  -0.801820  4.731203
