21
Energy: -101663.126686 eV PBE+vdW (tier 2 basis)
N    -0.701818  0.485306  0.426740
C    -0.235927  -0.030716  1.757379
C    1.102420  -0.732474  1.484647
O    1.602413  -0.765849  0.379613
H    0.109369  0.438117  -0.217850
H    -1.049291  1.446431  0.480757
H    -0.018884  0.830666  2.405164
C    -1.288902  -0.902123  2.467897
C    -1.586218  -2.307576  1.913149
C    -2.387299  -2.404563  0.631587
O    -2.985740  -3.578338  0.418270
N    -2.454770  -1.409350  -0.180269
H    -2.222152  -0.325107  2.543351
H    -0.931098  -1.027826  3.497954
H    -2.137278  -2.862519  2.685399
H    -0.653689  -2.878646  1.764062
H    -1.498263  -0.204001  0.053718
H    -3.013821  -1.587401  -1.018523
O    1.614830  -1.263300  2.598516
H    2.497586  -1.635724  2.392918
Sr    -3.955905  -5.427849  0.077785
