21
Energy: -101662.518651 eV PBE+vdW (tier 2 basis)
N    1.014402  0.301790  0.472974
C    1.103591  -0.496325  1.695806
C    2.202445  -1.550022  1.558146
O    2.483537  -2.095838  0.506575
H    1.819692  0.144808  -0.132339
H    0.951859  1.297504  0.675371
H    1.318061  0.110262  2.585645
C    -0.258578  -1.225850  1.934351
C    -0.657851  -1.932953  0.640713
C    -2.015312  -2.498410  0.499615
O    -2.280652  -3.258696  -0.522616
N    -2.974254  -2.239109  1.365550
H    -0.987460  -0.439417  2.187660
H    -0.185332  -1.913739  2.788367
H    0.061289  -2.726220  0.382146
H    -0.522431  -1.162869  -0.157608
H    -2.790547  -1.660720  2.181496
H    -3.917123  -2.599257  1.241577
O    2.773467  -1.825684  2.740643
H    3.461886  -2.508484  2.601091
Sr    -2.106154  -4.376652  -2.367242
