21
Energy: -101662.765574 eV PBE+vdW (tier 2 basis)
N    0.897679  -0.367758  -0.130137
C    -0.016807  -0.529610  0.974174
C    0.544093  -0.656760  2.401335
O    -0.194272  -0.785552  3.382553
H    1.557983  -1.142234  -0.206462
H    1.441181  0.491831  -0.062443
H    -0.613932  0.399051  1.029138
C    -0.980716  -1.730311  0.712898
C    -2.447716  -1.361967  0.471494
C    -3.285937  -0.934688  1.645555
O    -4.568945  -0.763207  1.444097
N    -2.776845  -0.745287  2.829699
H    -0.913306  -2.481785  1.511357
H    -0.624422  -2.218052  -0.202260
H    -2.975487  -2.223575  0.030493
H    -2.524028  -0.560671  -0.284428
H    -1.718853  -0.814753  3.044447
H    -3.388269  -0.458040  3.592085
O    1.861650  -0.599611  2.490126
H    2.128213  -0.671966  3.431245
Sr    -6.639801  -0.584110  0.893309
