21
Energy: -101664.329541 eV PBE+vdW (tier 2 basis)
N    -0.662350  -0.287310  0.242911
C    0.032891  0.530231  1.285433
C    1.205342  -0.271060  1.859291
O    1.802250  0.154879  2.901817
H    -1.619951  -0.752705  0.744367
H    -0.963601  0.288069  -0.549421
H    0.512725  1.391939  0.791724
C    -0.941408  1.098174  2.334927
C    -1.690478  0.106053  3.247524
C    -2.818875  -0.670128  2.589091
O    -2.717095  -1.127446  1.419072
N    -3.923077  -0.892856  3.297010
H    -1.661584  1.744746  1.812702
H    -0.352496  1.765965  2.976129
H    -2.078342  0.665394  4.108793
H    -0.997115  -0.640297  3.670041
H    -4.055057  -0.526538  4.232541
H    -4.676120  -1.439903  2.886348
O    1.612034  -1.317536  1.239228
H    -0.033178  -1.021429  -0.107363
Sr    3.496484  -1.462244  2.677836
