21
Energy: -101663.597065 eV PBE+vdW (tier 2 basis)
N    -0.142355  0.250003  0.084500
C    -0.074911  -0.119631  1.478301
C    1.380667  -0.366694  1.861870
O    2.254778  -0.666519  0.996750
H    0.004856  -0.532333  -0.552351
H    -1.022189  0.705421  -0.150636
H    -0.381310  0.763822  2.062205
C    -0.994972  -1.318996  1.884240
C    -0.978439  -1.843752  3.347916
C    -1.209920  -0.797243  4.394345
O    -0.295485  0.075546  4.690388
N    -2.342810  -0.713488  5.051660
H    -0.755654  -2.176686  1.239736
H    -2.017066  -1.011682  1.624271
H    -0.013472  -2.319504  3.578580
H    -1.740098  -2.628626  3.439646
H    -3.099058  -1.372319  4.891929
H    -2.478848  0.008060  5.759469
O    1.750868  -0.238439  3.111715
H    0.544283  -0.039035  4.114220
Sr    4.062256  -0.311227  2.396960
