21
Energy: -101664.502166 eV PBE+vdW (tier 2 basis)
N    0.170888  0.932704  0.167377
C    -0.000541  0.049825  1.354276
C    1.246462  -0.834727  1.487338
O    2.061506  -0.963521  0.569178
H    -0.746057  1.297761  -0.106232
H    0.692477  1.765680  0.460968
H    -0.038157  0.657827  2.275259
C    -1.333987  -0.758100  1.339906
C    -1.913445  -1.295313  0.008465
C    -1.080371  -2.303785  -0.750933
O    -0.072847  -1.924156  -1.416298
N    -1.430540  -3.582100  -0.718725
H    -2.105969  -0.095141  1.753424
H    -1.246853  -1.586304  2.057689
H    -2.114542  -0.471199  -0.691343
H    -2.895883  -1.722073  0.250814
H    -2.258070  -3.903619  -0.226024
H    -0.897806  -4.272739  -1.243968
O    1.465392  -1.479483  2.613554
H    0.827183  -1.268584  3.323442
Sr    1.614349  -0.397471  -1.689208
