21
Energy: -101663.02294 eV PBE+vdW (tier 2 basis)
N    0.176802  -0.573752  0.155390
C    -0.007489  -0.231960  1.611092
C    1.338580  -0.283386  2.347515
O    1.454064  -0.569537  3.512669
H    -0.575368  -0.176257  -0.416741
H    1.073781  -0.210323  -0.189787
H    -0.324384  0.821531  1.664368
C    -1.104722  -1.095052  2.254888
C    -0.776645  -2.536919  2.679547
C    -0.388278  -3.542818  1.623545
O    -0.428237  -4.816322  2.016032
N    -0.022554  -3.177996  0.442493
H    -1.980779  -1.086454  1.588772
H    -1.420535  -0.567063  3.163777
H    -1.657023  -2.936857  3.203464
H    0.030255  -2.525253  3.430428
H    0.232145  -3.953678  -0.174156
H    0.135464  -1.710255  0.106096
O    2.348550  0.081698  1.524063
H    3.180048  0.119709  2.039925
Sr    -0.520364  -6.790801  2.773528
