21
Energy: -101664.885064 eV PBE+vdW (tier 2 basis)
N    0.364684  0.218378  -0.161200
C    -0.003039  0.177451  1.311598
C    1.298750  -0.108292  2.068466
O    2.140447  -0.864204  1.475325
H    0.701623  1.147826  -0.448848
H    1.151361  -0.455500  -0.275776
H    -0.423845  1.149419  1.593222
C    -1.007793  -0.974741  1.545230
C    -1.383251  -1.232385  3.029385
C    -0.717794  -2.452386  3.646734
O    0.538887  -2.580942  3.688989
N    -1.508688  -3.387320  4.161585
H    -0.599867  -1.892173  1.094317
H    -1.930303  -0.730683  1.000119
H    -2.471902  -1.328211  3.108052
H    -1.103753  -0.371804  3.656516
H    -2.520495  -3.311980  4.142250
H    -1.105649  -4.206595  4.610648
O    1.399982  0.275367  3.262699
H    -0.415008  -0.040799  -0.781220
Sr    2.705347  -1.707685  3.715749
