21
Energy: -101662.969401 eV PBE+vdW (tier 2 basis)
N    0.194176  0.232696  -0.150030
C    -0.011615  -0.170617  1.284727
C    1.228311  0.086960  2.160393
O    1.310007  -0.311420  3.291912
H    1.069243  -0.158469  -0.517918
H    0.260063  1.250810  -0.254933
H    -0.798757  0.490293  1.680087
C    -0.460889  -1.637165  1.383692
C    -1.952171  -1.937267  1.166674
C    -2.543470  -1.729040  -0.211055
O    -3.706386  -2.345305  -0.427790
N    -1.957234  -0.987330  -1.085690
H    -0.210664  -1.956263  2.404062
H    0.154965  -2.256291  0.712511
H    -2.562918  -1.347666  1.872451
H    -2.129144  -2.986753  1.443013
H    -0.682673  -0.197130  -0.708234
H    -2.461227  -0.913937  -1.973281
O    2.154844  0.817913  1.500270
H    2.907529  0.982958  2.105744
Sr    -5.534654  -3.376703  -0.709591
