21
Energy: -101664.213508 eV PBE+vdW (tier 2 basis)
N    -0.671241  0.215473  0.624909
C    -0.010816  -0.275736  1.863534
C    1.496886  -0.471667  1.698575
O    2.068165  -0.124950  0.606682
H    -0.191598  1.033884  0.237421
H    -0.697278  -0.493495  -0.114322
H    -0.123544  0.538267  2.598635
C    -0.706914  -1.538833  2.427424
C    -2.248095  -1.630313  2.262580
C    -3.043613  -0.360017  2.494115
O    -2.809907  0.680005  1.807721
N    -4.019941  -0.355467  3.391267
H    -0.441415  -1.602000  3.489181
H    -0.285313  -2.436147  1.953366
H    -2.604255  -2.435733  2.916304
H    -2.499677  -1.949432  1.238587
H    -4.255598  -1.175218  3.939249
H    -4.595580  0.476868  3.502045
O    2.163578  -0.950078  2.677069
H    -1.795802  0.500229  1.055582
Sr    4.184590  -0.691426  1.514956
