21
Energy: -101664.339917 eV PBE+vdW (tier 2 basis)
N    0.696562  1.101231  0.176036
C    0.196441  0.892603  1.543226
C    1.375601  1.305168  2.455859
O    1.267269  1.449089  3.697483
H    0.296901  1.918286  -0.285616
H    0.574536  0.294204  -0.435628
H    -0.640223  1.570121  1.776713
C    -0.254974  -0.578121  1.727141
C    -0.581738  -1.103272  3.143269
C    -1.676749  -0.375275  3.897002
O    -1.396463  0.432382  4.835855
N    -2.940619  -0.596995  3.562552
H    0.537478  -1.231527  1.331678
H    -1.127249  -0.718328  1.072672
H    0.315459  -1.095279  3.773577
H    -0.869839  -2.159301  3.034753
H    -3.198845  -1.280886  2.857666
H    -3.694360  -0.133757  4.065908
O    2.476679  1.511372  1.830699
H    2.154700  1.377168  0.830661
Sr    0.323528  1.638148  5.755107
