21
Energy: -101664.0154 eV PBE+vdW (tier 2 basis)
N    0.807225  0.469258  0.631700
C    -0.268993  0.265920  1.586592
C    0.331992  0.345374  2.987132
O    0.755434  -0.646358  3.636756
H    1.595854  -0.168871  0.719884
H    1.132659  1.431449  0.559526
H    -0.969006  1.107227  1.482097
C    -0.991087  -1.056208  1.310859
C    -2.265957  -1.280982  2.161708
C    -2.376496  -2.688673  2.689790
O    -1.438534  -3.170877  3.407533
N    -3.448377  -3.411395  2.418334
H    -0.281299  -1.888788  1.444297
H    -1.245562  -1.060027  0.244478
H    -3.161471  -0.999387  1.595412
H    -2.258793  -0.635721  3.056615
H    -4.207196  -3.049943  1.847848
H    -3.543399  -4.355395  2.788105
O    0.470271  1.573397  3.433189
H    0.985772  1.605090  4.267040
Sr    0.591160  -2.843359  4.358370
