21
Energy: -101664.409751 eV PBE+vdW (tier 2 basis)
N    -0.379994  -0.575006  0.209953
C    0.257577  -0.296203  1.528208
C    1.707323  -0.789016  1.555440
O    2.144615  -1.528004  0.604711
H    -0.198595  0.167577  -0.471420
H    0.000230  -1.442664  -0.187911
H    0.289115  0.793991  1.671405
C    -0.551330  -0.925837  2.686579
C    -1.932914  -0.297036  2.961277
C    -3.033621  -0.661308  1.981927
O    -2.802819  -0.852678  0.753415
N    -4.277356  -0.750366  2.437872
H    0.050838  -0.804430  3.595988
H    -0.651882  -2.009102  2.517133
H    -1.860255  0.803610  2.967094
H    -2.243063  -0.577404  3.976646
H    -4.510297  -0.612103  3.414683
H    -5.036148  -0.939101  1.786823
O    2.451908  -0.458040  2.537422
H    -1.578634  -0.702194  0.408799
Sr    4.289010  -1.593736  1.625544
