21
Energy: -101664.695208 eV PBE+vdW (tier 2 basis)
N    0.130922  -0.952244  0.013794
C    0.132748  0.095335  1.076115
C    1.384189  -0.138937  1.915535
O    1.792004  -1.287824  2.153984
H    -0.759467  -0.909963  -0.489640
H    0.828118  -0.689730  -0.691793
H    0.161805  1.103523  0.640267
C    -1.071147  0.003483  2.071169
C    -2.431562  -0.450519  1.518812
C    -2.655129  -1.954618  1.579089
O    -1.682371  -2.765228  1.615442
N    -3.904797  -2.396266  1.584601
H    -1.186136  1.006363  2.499696
H    -0.811357  -0.649958  2.916792
H    -2.600823  -0.118360  0.480291
H    -3.225147  0.045127  2.095362
H    -4.701032  -1.765498  1.580454
H    -4.096542  -3.395273  1.610209
O    1.926860  0.952525  2.391673
H    2.691258  0.748309  2.975116
Sr    0.563775  -3.208221  1.287729
