21
Energy: -101664.330949 eV PBE+vdW (tier 2 basis)
N    0.430999  1.183971  1.348198
C    0.069206  0.215672  2.397681
C    1.381229  -0.055360  3.154215
O    1.440131  -0.787582  4.170087
H    0.041447  2.111678  1.519222
H    0.154152  0.904222  0.407845
H    -0.618357  0.671645  3.126627
C    -0.609663  -1.083053  1.902364
C    0.106230  -1.935900  0.842362
C    1.174947  -2.915485  1.301196
O    1.313202  -3.263957  2.512608
N    1.944600  -3.448352  0.360633
H    -1.581475  -0.787080  1.485266
H    -0.852409  -1.701671  2.777432
H    0.525676  -1.323945  0.029513
H    -0.658612  -2.560367  0.350035
H    1.840291  -3.207096  -0.620735
H    2.617477  -4.174708  0.592626
O    2.412510  0.520140  2.643831
H    1.947418  1.045966  1.842254
Sr    1.681203  -2.966522  4.748156
