21
Energy: -101662.823757 eV PBE+vdW (tier 2 basis)
N    -0.081464  -0.394836  0.166469
C    -0.158630  -0.287760  1.631723
C    1.142077  -0.780298  2.251472
O    1.390436  -1.961703  2.505880
H    0.144504  0.500020  -0.264458
H    0.619393  -1.066822  -0.145775
H    -0.243567  0.774620  1.888233
C    -1.420805  -1.002539  2.208079
C    -2.012622  -2.132631  1.346481
C    -1.587336  -3.545871  1.587101
O    -2.423954  -4.506801  1.278402
N    -0.408706  -3.836501  2.063443
H    -2.203228  -0.236217  2.266739
H    -1.244382  -1.327498  3.242686
H    -1.761771  -1.889653  0.290699
H    -3.108193  -2.119561  1.407561
H    0.310174  -3.071856  2.281324
H    -0.138626  -4.809089  2.191908
O    2.023705  0.193154  2.440305
H    2.860595  -0.184709  2.784482
Sr    -3.962549  -5.887031  0.706557
