21
Energy: -101662.460507 eV PBE+vdW (tier 2 basis)
N    -0.498653  -0.049203  0.336663
C    0.216564  -0.086894  1.619786
C    1.725090  -0.294290  1.409333
O    2.225170  -1.384608  1.230664
H    -0.403452  0.862038  -0.111472
H    -0.121603  -0.744314  -0.311976
H    0.052065  0.873116  2.127396
C    -0.325951  -1.248290  2.474343
C    -1.849851  -1.182325  2.539260
C    -2.579720  -2.393756  2.985416
O    -3.863739  -2.338766  3.193864
N    -1.955511  -3.540488  3.158947
H    0.127816  -1.224393  3.474728
H    0.020204  -2.171450  1.978394
H    -2.191443  -0.937206  1.506243
H    -2.196906  -0.341997  3.162110
H    -0.949628  -3.602658  3.014348
H    -2.450276  -4.386243  3.429617
O    2.383917  0.878502  1.386096
H    3.325662  0.696045  1.186976
Sr    -5.974230  -1.917994  3.390609
