23
Energy: -237156.5688 eV PBE+vdW (tier 2 basis)
N    0.926026  -0.571723  0.217503
C    0.353231  -0.243582  1.557171
C    1.487195  -0.274763  2.572116
O    2.493572  -0.986468  2.383498
H    0.145040  -0.787024  -0.411849
H    1.339122  0.280402  -0.178041
H    -0.095581  0.761374  1.551068
C    -0.773189  -1.261158  1.940153
C    -1.453732  -0.945010  3.288747
C    -0.307031  -2.723786  1.891294
C    -2.021578  0.469059  3.434838
H    -1.534448  -1.119410  1.152774
H    -0.772188  -1.182310  4.122127
H    -2.283085  -1.659146  3.392335
H    0.488836  -2.938058  2.625126
H    -0.008487  -3.043099  0.874724
H    -1.136492  -3.393696  2.151515
H    -1.262990  1.272847  3.466518
H    -2.585913  0.555842  4.370329
H    -2.705023  0.722183  2.612883
O    1.409740  0.404961  3.684687
H    0.580330  0.926464  3.755674
Ba    2.896470  -2.549971  0.539073
