23
Energy: -237157.104565 eV PBE+vdW (tier 2 basis)
N    0.543695  -0.296175  0.103038
C    -0.049934  0.113313  1.443701
C    1.084147  0.736472  2.265188
O    2.221827  0.927879  1.707569
H    -0.074609  -0.078483  -0.687079
H    1.452711  0.192648  -0.003566
H    -0.768705  0.920801  1.236760
C    -0.779327  -1.065045  2.122431
C    0.176874  -2.245046  2.394093
C    -2.028374  -1.456751  1.321563
C    -0.417526  -3.328763  3.297730
H    -1.101867  -0.656508  3.093097
H    1.105646  -1.866628  2.855533
H    0.480326  -2.727200  1.443469
H    -2.683230  -0.594400  1.138242
H    -2.619785  -2.195992  1.872109
H    -1.781469  -1.917655  0.351941
H    -1.277192  -3.825706  2.833126
H    -0.746513  -2.906989  4.256744
H    0.328547  -4.103516  3.508954
O    0.848635  1.082807  3.462593
H    0.725667  -1.311850  0.098991
Ba    3.103455  2.077787  3.847777
