23
Energy: -237156.306404 eV PBE+vdW (tier 2 basis)
N    -0.959180  1.416462  1.019344
C    -0.575228  0.534101  2.168552
C    0.904248  0.812239  2.460432
O    1.446676  1.866082  2.062214
H    -0.804535  0.878738  0.157076
H    -1.977855  1.526371  1.045787
H    -1.119116  0.917401  3.051368
C    -0.927581  -0.986514  2.024103
C    -2.244620  -1.196448  1.240542
C    -1.028088  -1.657116  3.408341
C    -2.637983  -2.666264  1.065081
H    -0.119310  -1.464998  1.441386
H    -2.153791  -0.758749  0.233444
H    -3.061251  -0.655540  1.750539
H    -0.198292  -1.472772  4.113808
H    -1.084760  -2.745009  3.301728
H    -1.932187  -1.320457  3.935761
H    -1.821332  -3.252009  0.621177
H    -3.501011  -2.742489  0.393629
H    -2.924346  -3.139240  2.011408
O    1.633314  -0.025293  3.137893
H    1.118063  -0.821338  3.407103
Ba    0.599088  3.749080  0.800118
