23
Energy: -237156.448534 eV PBE+vdW (tier 2 basis)
N    -0.288920  0.111072  -0.003593
C    -0.331894  0.043839  1.492237
C    0.935145  0.697806  2.040276
O    1.703152  1.347652  1.297808
H    -1.256135  0.158465  -0.338995
H    0.039262  -0.806651  -0.331925
H    -1.151429  0.706110  1.823600
C    -0.632168  -1.385052  2.042287
C    -1.012664  -1.382576  3.544423
C    0.490405  -2.379021  1.720027
C    -1.872689  -2.584769  3.953118
H    -1.542897  -1.691908  1.500225
H    -1.562980  -0.459679  3.796121
H    -0.100974  -1.420025  4.177288
H    0.697762  -2.473377  0.642565
H    0.211704  -3.385946  2.050858
H    1.431912  -2.120519  2.226858
H    -2.106909  -2.539824  5.022797
H    -1.361314  -3.537414  3.769517
H    -2.822270  -2.589780  3.402504
O    1.215387  0.635268  3.309031
H    0.579115  0.057674  3.799041
Ba    1.529253  2.012118  -1.021141
