23
Energy: -237156.436699 eV PBE+vdW (tier 2 basis)
N    0.269800  0.248135  0.900855
C    -0.321858  -0.247749  2.181451
C    0.799312  -0.421101  3.202752
O    1.935213  0.061908  3.008301
H    -0.435055  0.831839  0.439978
H    0.350781  -0.568172  0.279561
H    -0.921519  0.579672  2.602834
C    -1.289796  -1.459067  2.009355
C    -0.670489  -2.645194  1.245580
C    -2.603986  -0.995861  1.365499
C    0.613708  -3.241653  1.820883
H    -1.545882  -1.811670  3.027577
H    -0.525784  -2.370473  0.184254
H    -1.442591  -3.426551  1.204774
H    -2.457279  -0.654626  0.330175
H    -3.080573  -0.185864  1.933683
H    -3.315867  -1.828438  1.321774
H    0.924583  -4.116616  1.237535
H    0.483881  -3.579694  2.857920
H    1.467347  -2.543179  1.804713
O    0.573706  -0.997497  4.351373
H    -0.327331  -1.379508  4.407843
Ba    2.838093  1.370182  1.182854
