23
Energy: -237157.034332 eV PBE+vdW (tier 2 basis)
N    0.481967  -1.052419  0.043950
C    0.036962  -0.371505  1.329188
C    1.310555  0.076568  2.049657
O    2.383063  -0.599688  1.865285
H    0.715066  -0.382239  -0.700479
H    1.332104  -1.603603  0.252077
H    -0.551981  0.514251  1.057060
C    -0.831324  -1.370877  2.152404
C    -2.258029  -1.509958  1.571837
C    -0.908778  -0.983166  3.634229
C    -2.404451  -1.938933  0.107801
H    -0.321987  -2.350925  2.086640
H    -2.796811  -0.563192  1.732783
H    -2.767302  -2.252520  2.201791
H    0.064701  -1.049678  4.138085
H    -1.582611  -1.675307  4.152121
H    -1.302065  0.032251  3.772432
H    -3.451048  -2.184170  -0.110789
H    -1.838083  -2.858727  -0.124785
H    -2.150211  -1.144521  -0.614096
O    1.264661  1.081059  2.824199
H    -0.272718  -1.668854  -0.305956
Ba    3.626291  0.847884  3.593637
