23
Energy: -237156.902577 eV PBE+vdW (tier 2 basis)
N    0.595639  0.106387  0.466780
C    0.170447  -0.003989  1.929643
C    1.458911  -0.319694  2.701414
O    2.477228  -0.730362  2.036375
H    -0.083286  -0.356777  -0.152567
H    0.697432  1.080454  0.155249
H    -0.206116  0.977931  2.243157
C    -0.968051  -1.067754  2.055697
C    -1.959531  -0.791477  3.211122
C    -0.439348  -2.505158  2.011629
C    -1.523936  -1.104406  4.642429
H    -1.571598  -0.900765  1.143440
H    -2.851433  -1.391153  2.975226
H    -2.289774  0.256869  3.142216
H    0.181098  -2.711675  1.127131
H    -1.279450  -3.209193  1.982450
H    0.150901  -2.749940  2.905516
H    -2.372197  -0.944560  5.318644
H    -0.706972  -0.459610  4.984427
H    -1.218266  -2.152347  4.763897
O    1.490731  -0.184199  3.959826
H    1.521961  -0.363096  0.389291
Ba    3.828609  -1.010485  4.223007
