23
Energy: -237156.412556 eV PBE+vdW (tier 2 basis)
N    0.641249  -0.503923  0.014999
C    0.168246  -0.140733  1.393374
C    1.393058  0.245949  2.222853
O    2.529564  0.307403  1.699100
H    -0.099726  -0.241811  -0.642621
H    0.652616  -1.530830  -0.033231
H    -0.427263  0.783663  1.299113
C    -0.745321  -1.252593  2.021556
C    -1.891972  -0.719760  2.913253
C    0.063687  -2.392872  2.656590
C    -1.543331  0.003419  4.217153
H    -1.264724  -1.668900  1.141950
H    -2.509862  -1.594868  3.160175
H    -2.536982  -0.068234  2.304589
H    0.561144  -2.103980  3.591829
H    0.838874  -2.788880  1.981705
H    -0.599475  -3.233699  2.891865
H    -0.855781  -0.563235  4.865624
H    -2.446578  0.151527  4.822744
H    -1.179504  1.037729  4.057093
O    1.288598  0.551457  3.478616
H    0.359799  0.476265  3.830174
Ba    3.273447  0.299073  -0.590869
