23
Energy: -237156.418728 eV PBE+vdW (tier 2 basis)
N    0.148816  0.637758  0.420791
C    -0.176146  0.342757  1.848516
C    1.095577  0.526533  2.657054
O    2.209584  0.282003  2.146682
H    0.043609  1.645581  0.259045
H    -0.594114  0.211522  -0.145578
H    -0.955569  1.026855  2.222093
C    -0.702325  -1.124080  1.997980
C    -1.985475  -1.343686  1.157930
C    -0.902988  -1.519749  3.466965
C    -3.188006  -0.469037  1.513666
H    0.085896  -1.780878  1.577824
H    -2.250181  -2.403946  1.284787
H    -1.767370  -1.256256  0.077779
H    0.037742  -1.576185  4.029408
H    -1.360735  -2.514683  3.519661
H    -1.583440  -0.833649  3.991307
H    -3.492849  -0.588671  2.560396
H    -4.049352  -0.751777  0.897111
H    -3.012574  0.601824  1.331105
O    1.068689  0.908771  3.906304
H    0.164660  1.077540  4.241005
Ba    2.778077  -0.160608  -0.178612
