23
Energy: -237157.084413 eV PBE+vdW (tier 2 basis)
N    -0.781388  0.536840  -0.072917
C    -0.092262  0.117985  1.219954
C    1.371907  -0.180155  0.885085
O    2.129172  -0.609190  1.809244
H    -1.258544  -0.277149  -0.495284
H    -0.055745  0.853575  -0.740102
H    -0.084387  1.010562  1.864760
C    -0.852111  -1.011975  1.949781
C    -0.782691  -2.391134  1.254072
C    -2.284309  -0.567958  2.284948
C    -1.361061  -2.510369  -0.163513
H    -0.306797  -1.112598  2.900723
H    -1.319650  -3.090185  1.910127
H    0.259954  -2.744713  1.253048
H    -2.300199  0.385963  2.829923
H    -2.761538  -1.316292  2.928592
H    -2.930990  -0.467085  1.400536
H    -0.714800  -2.061366  -0.938374
H    -2.378569  -2.098217  -0.249028
H    -1.448320  -3.564867  -0.452672
O    1.801151  0.051858  -0.299061
H    -1.475486  1.277924  0.079166
Ba    4.195665  -0.599453  0.415993
