23
Energy: -237157.025675 eV PBE+vdW (tier 2 basis)
N    0.009830  1.026479  0.591244
C    0.313225  0.247662  1.867930
C    1.612103  -0.524228  1.599695
O    2.110225  -1.243190  2.517150
H    0.831008  0.918323  -0.038965
H    -0.172279  2.021501  0.768383
H    0.526319  0.986956  2.653688
C    -0.915489  -0.602322  2.284687
C    -0.828700  -1.021895  3.766884
C    -1.153529  -1.774814  1.325301
C    -2.134372  -1.612147  4.303889
H    -1.770974  0.095444  2.209595
H    -0.560789  -0.136687  4.365616
H    -0.007819  -1.741581  3.898358
H    -2.122754  -2.242031  1.529229
H    -0.385361  -2.551911  1.446741
H    -1.176103  -1.485787  0.261660
H    -2.978220  -0.922066  4.167292
H    -2.041979  -1.807145  5.378719
H    -2.392247  -2.565235  3.825526
O    2.173167  -0.400074  0.452418
H    -0.812480  0.630784  0.113941
Ba    4.112220  -1.939040  1.202023
