23
Energy: -237156.544254 eV PBE+vdW (tier 2 basis)
N    0.889291  -0.425369  0.249100
C    0.061682  0.022070  1.408954
C    1.014492  0.495276  2.499815
O    2.154547  0.002604  2.603114
H    1.171461  0.400689  -0.290690
H    0.276503  -0.945269  -0.388573
H    -0.600330  0.853962  1.119513
C    -0.853604  -1.140944  1.919639
C    -1.781390  -0.683866  3.065847
C    -0.077065  -2.417523  2.271626
C    -2.973054  -1.615505  3.304507
H    -1.499913  -1.367110  1.053090
H    -2.174983  0.318041  2.821036
H    -1.204460  -0.582834  3.999852
H    0.429617  -2.862370  1.393827
H    -0.767414  -3.202351  2.603705
H    0.627172  -2.266776  3.107937
H    -3.623065  -1.200216  4.083199
H    -2.665443  -2.612017  3.646146
H    -3.579324  -1.734134  2.396710
O    0.650167  1.391764  3.378720
H    -0.255515  1.733582  3.233691
Ba    3.154690  -1.772496  1.234292
