23
Energy: -237157.046846 eV PBE+vdW (tier 2 basis)
N    -0.211156  1.192451  0.840175
C    0.148486  0.123162  1.866801
C    1.538527  -0.388403  1.485239
O    2.134712  -1.197283  2.259028
H    -1.108306  0.982566  0.381997
H    0.545891  1.185549  0.124323
H    0.217174  0.614127  2.846645
C    -0.958046  -0.966989  1.919464
C    -0.867916  -1.835369  3.189656
C    -1.001732  -1.813076  0.641973
C    -0.907419  -1.069793  4.511592
H    -1.899876  -0.392118  2.001757
H    0.029828  -2.468874  3.140907
H    -1.723306  -2.525056  3.142758
H    -0.118629  -2.463465  0.562275
H    -1.070960  -1.224330  -0.286131
H    -1.880980  -2.467545  0.658998
H    -0.995123  -1.769385  5.351139
H    -1.770942  -0.391994  4.568273
H    0.005458  -0.483672  4.695113
O    2.064238  0.016915  0.386681
H    -0.277050  2.131103  1.252151
Ba    4.176126  -1.402521  0.840187
