23
Energy: -237156.920428 eV PBE+vdW (tier 2 basis)
N    0.093130  0.127494  0.120747
C    -0.239843  0.185321  1.606094
C    1.056706  0.540938  2.335398
O    0.982987  1.230563  3.398249
H    0.159082  1.064530  -0.299254
H    -0.614817  -0.405629  -0.403498
H    -0.956535  1.003221  1.747016
C    -0.894817  -1.160117  2.053363
C    -1.167573  -1.182594  3.580575
C    -0.159265  -2.411029  1.552736
C    -0.053483  -1.727665  4.480474
H    -1.886868  -1.135585  1.570803
H    -2.051494  -1.817916  3.731279
H    -1.468886  -0.179756  3.916362
H    -0.156453  -2.509300  0.457262
H    -0.678816  -3.304121  1.921366
H    0.880673  -2.468289  1.898382
H    0.143808  -2.792063  4.306698
H    -0.337158  -1.615135  5.533691
H    0.906770  -1.197100  4.346896
O    2.162177  0.091988  1.875323
H    1.012132  -0.335284  0.011316
Ba    3.336387  0.764580  4.072463
