18
Energy: -29461.8813805 eV PBE+vdW (tier 2 basis)
N    0.264703  0.043074  0.266041
C    0.025246  -0.186465  1.758047
C    1.333249  -0.113284  2.521595
O    1.309241  -0.175803  3.794088
H    -0.130531  0.944772  -0.025661
H    -0.638927  0.608300  2.122969
C    -0.678056  -1.561874  1.839021
C    -1.409908  -1.661401  0.494971
C    -0.400102  -1.109851  -0.501853
H    -1.344323  -1.604741  2.706366
H    0.062628  -2.367941  1.939695
H    -2.329576  -1.059414  0.499397
H    -1.690757  -2.691570  0.248921
H    -0.819081  -0.715700  -1.432861
H    0.392119  -1.829674  -0.738111
O    2.447814  -0.011292  1.890430
H    1.282550  0.086936  0.094906
Ca    3.483713  0.001928  3.872038
