18
Energy: -29461.1692575 eV PBE+vdW (tier 2 basis)
N    0.455877  0.000079  0.082564
C    0.213866  0.066464  1.577625
C    1.510730  0.344992  2.294960
O    2.615881  0.362091  1.693951
H    -0.190130  0.668421  -0.348972
H    -0.487884  0.881901  1.803979
C    -0.399043  -1.305428  1.993007
C    -0.994565  -1.834756  0.684780
C    0.020875  -1.385865  -0.360979
H    -1.135332  -1.178229  2.792927
H    0.382826  -1.982422  2.366795
H    -1.972845  -1.377255  0.479171
H    -1.130520  -2.922154  0.698357
H    -0.364183  -1.342096  -1.386385
H    0.898230  -2.061473  -0.349259
O    1.393649  0.534703  3.574107
H    2.259821  0.687374  4.014876
Ca    2.760748  0.250651  -0.457503
