18
Energy: -29460.9639917 eV PBE+vdW (tier 2 basis)
N    0.295012  -0.085942  -0.122711
C    0.145337  0.159990  1.360188
C    1.515887  0.062865  2.017851
O    2.527087  -0.253617  1.349762
H    -0.186050  0.673114  -0.613423
H    -0.238021  1.176697  1.536174
C    -0.844978  -0.920150  1.867580
C    -0.609234  -2.087347  0.904150
C    -0.428839  -1.391469  -0.442451
H    -1.867162  -0.530208  1.777966
H    -0.690208  -1.195781  2.917906
H    -1.448052  -2.791984  0.886656
H    0.285679  -2.661429  1.188790
H    -1.389114  -1.166683  -0.923858
H    0.149659  -1.994764  -1.166134
O    1.680177  0.297853  3.286577
H    0.861668  0.550621  3.762399
Ca    2.570152  -0.457767  -0.776422
