18
Energy: -29461.8662475 eV PBE+vdW (tier 2 basis)
N    -0.233946  0.160441  -0.082446
C    0.183181  0.034066  1.381405
C    1.643085  -0.393298  1.447196
O    2.201318  -0.516510  2.585553
H    -0.454567  1.130703  -0.336120
H    0.104354  1.015157  1.867798
C    -0.804555  -0.993651  1.987208
C    -1.283704  -1.811069  0.780120
C    -1.432923  -0.767005  -0.316157
H    -1.638222  -0.452907  2.452510
H    -0.328779  -1.593768  2.769723
H    -2.233945  -2.320344  0.975289
H    -0.552436  -2.580260  0.492405
H    -2.335382  -0.157454  -0.189991
H    -1.389676  -1.142248  -1.343428
O    2.302835  -0.618442  0.367170
H    0.577323  -0.129246  -0.656594
Ca    4.101039  -1.022165  1.638359
