18
Energy: -29461.12482 eV PBE+vdW (tier 2 basis)
N    0.150162  0.321569  0.191055
C    0.106581  0.150178  1.688970
C    1.529235  0.095559  2.215986
O    2.525272  0.214525  1.458705
H    -0.555799  1.019712  -0.057886
H    -0.376637  1.019132  2.160450
C    -0.690258  -1.149939  1.936226
C    -0.315271  -2.014643  0.728666
C    -0.266624  -1.012304  -0.427928
H    -1.760924  -0.906861  1.938085
H    -0.455709  -1.613048  2.900616
H    -1.043653  -2.810490  0.538282
H    0.659301  -2.502641  0.878552
H    -1.238038  -0.889879  -0.922110
H    0.445827  -1.319375  -1.220255
O    1.629062  -0.076513  3.498973
H    2.563383  -0.091746  3.806722
Ca    2.336091  0.636764  -0.655109
