22
Energy: -102129.450798 eV PBE+vdW (tier 2 basis)
N    0.07126  -1.07349  0.03478
C    0.09896  -0.31060  1.28244
C    1.54638  -0.24166  1.79474
O    2.34541  0.66494  1.43381
H    0.45637  -0.57935  -0.76953
H    0.48303  -2.00655  0.09366
H    1.40666  -1.85323  2.85377
H    -0.19308  0.72334  1.05377
C    -0.89026  -0.91392  2.30897
C    -2.33281  -0.79948  1.91475
N    -2.85392  -1.23058  0.70007
C    -3.41003  -0.37504  2.65180
C    -4.18270  -1.07581  0.68618
N    -4.52918  -0.55931  1.86897
H    -0.77784  -0.42168  3.28526
H    -0.66202  -1.98620  2.46202
H    -2.28851  -1.56826  -0.07869
H    -3.47254  0.02022  3.65866
H    -4.85281  -1.32078  -0.13130
H    -5.48722  -0.34532  2.14593
O    2.05738  -1.18325  2.55513
Sr    4.36647  1.75898  1.43812
