22
Energy: -102129.942788 eV PBE+vdW (tier 2 basis)
N    0.88523  1.36238  1.27486
C    0.09186  0.34017  2.02765
C    0.89554  -0.96193  2.01832
O    2.11473  -0.97608  1.77034
H    0.63955  2.29128  1.63494
H    0.55183  1.38120  0.30201
H    0.78932  -2.83128  2.36759
H    0.08487  0.64994  3.08700
C    -1.38928  0.23010  1.53739
C    -2.39294  -0.37731  2.47830
N    -3.07753  -1.56014  2.21630
C    -2.92900  0.10212  3.64925
C    -3.98684  -1.79453  3.17051
N    -3.89669  -0.79296  4.04920
H    -1.42023  -0.29864  0.57350
H    -1.72050  1.25807  1.32602
H    -2.95935  -2.15867  1.40106
H    -2.72705  1.00680  4.21055
H    -4.67252  -2.63516  3.21596
H    -4.48220  -0.70206  4.88050
O    0.21333  -2.03286  2.32651
Sr    3.53985  0.80656  1.17223
