22
Energy: -102129.256909 eV PBE+vdW (tier 2 basis)
N    0.19437  0.66555  0.41048
C    0.06702  0.23580  1.80117
C    1.44246  -0.17969  2.31601
O    2.21232  0.61204  2.92578
H    0.41441  1.65347  0.29577
H    0.81654  0.10626  -0.17194
H    1.26458  -1.96089  1.61926
H    -0.22215  1.11070  2.39647
C    -1.06057  -0.82365  1.99687
C    -1.19715  -1.91063  0.97436
N    -1.62841  -1.68085  -0.33147
C    -1.13923  -3.28029  1.10191
C    -1.82806  -2.84020  -0.96758
N    -1.52759  -3.81830  -0.10778
H    -2.00011  -0.25037  2.00444
H    -0.98956  -1.28389  2.99288
H    -1.78774  -0.76000  -0.73968
H    -0.91797  -3.90514  1.96005
H    -2.17092  -2.96492  -1.99041
H    -1.60905  -4.81394  -0.31707
O    1.91971  -1.37896  2.06569
Sr    3.96511  1.48588  4.10080
