22
Energy: -102130.438863 eV PBE+vdW (tier 2 basis)
N    0.44678  -1.56748  0.08018
C    0.20451  -0.37380  0.99322
C    1.60364  0.07289  1.51025
O    1.67607  0.92380  2.43757
H    -0.14154  -1.56744  -0.76404
H    0.30698  -2.46861  0.56005
H    1.45290  -1.51916  -0.19710
H    -0.13482  0.44657  0.34207
C    -0.81208  -0.63382  2.11439
C    -2.26095  -0.71911  1.70997
N    -3.18832  -1.42376  2.47344
C    -2.99251  -0.11434  0.71666
C    -4.42203  -1.25938  1.97930
N    -4.31212  -0.46988  0.90988
H    -0.68778  0.19635  2.82898
H    -0.52596  -1.54211  2.66928
H    -2.99221  -1.97125  3.31071
H    -2.70641  0.55561  -0.08525
H    -5.33675  -1.69235  2.37381
H    -5.09874  -0.17182  0.33131
O    2.62735  -0.40803  0.91960
Sr    4.09799  1.06610  2.27372
