22
Energy: -102129.910872 eV PBE+vdW (tier 2 basis)
N    0.59862  1.02376  2.01202
C    0.59010  -0.41182  1.59776
C    0.50229  -0.46500  0.06432
O    0.70411  0.54388  -0.63791
H    -0.35487  1.28800  2.28845
H    1.14550  1.11468  2.87392
H    0.25681  -1.66175  -1.40686
H    1.59146  -0.82077  1.81870
C    -0.48650  -1.30975  2.28469
C    -0.25934  -1.68863  3.71823
N    0.50063  -2.78959  4.11449
C    -0.80926  -1.19338  4.87540
C    0.41736  -2.95995  5.43976
N    -0.37120  -1.99116  5.91096
H    -0.58613  -2.23025  1.69206
H    -1.46558  -0.81251  2.21234
H    1.00257  -3.43295  3.50456
H    -1.50264  -0.37744  5.04183
H    0.89431  -3.74444  6.01996
H    -0.62765  -1.88528  6.89345
O    0.25585  -1.64660  -0.42154
Sr    1.28755  2.72495  -0.04261
