22
Energy: -102130.201894 eV PBE+vdW (tier 2 basis)
N    0.32923  -0.99010  -0.12740
C    0.05286  -0.24354  1.16588
C    1.34346  0.52863  1.54855
O    1.42418  1.06416  2.68869
H    -0.47382  -0.98408  -0.77355
H    0.59419  -1.97311  0.03613
H    1.13668  -0.51432  -0.58285
H    -0.64881  0.56189  0.89418
C    -0.65720  -1.06903  2.25468
C    -0.12207  -2.42305  2.63199
N    -0.98688  -3.42369  3.07103
C    1.13770  -2.96097  2.74459
C    -0.29952  -4.51005  3.44052
N    0.99225  -4.24291  3.23923
H    -1.70910  -1.18474  1.95439
H    -0.67859  -0.42231  3.14737
H    -2.00241  -3.35336  3.14272
H    2.11740  -2.54285  2.55130
H    -0.71663  -5.43614  3.82661
H    1.75000  -4.89818  3.43497
O    2.22049  0.69409  0.63606
Sr    3.30740  2.44838  2.02006
