22
Energy: -102130.344896 eV PBE+vdW (tier 2 basis)
N    -0.04561  -0.00093  -0.04128
C    0.43226  -0.31078  1.37136
C    1.91691  -0.74265  1.24282
O    2.48416  -0.56676  0.11168
H    -0.70277  0.79216  -0.07742
H    -0.50303  -0.80837  -0.49153
H    0.79815  0.21898  -0.61086
H    0.42883  0.64962  1.90934
C    -0.51707  -1.31900  2.07002
C    -0.68429  -1.15328  3.55641
N    -1.90172  -1.41905  4.17883
C    0.17538  -0.80645  4.56752
C    -1.79681  -1.24372  5.50127
N    -0.54009  -0.86666  5.74592
H    -0.19742  -2.34875  1.84453
H    -1.51488  -1.20399  1.61903
H    -2.76328  -1.72104  3.72520
H    1.22440  -0.54334  4.54625
H    -2.58752  -1.37899  6.23325
H    -0.17611  -0.65633  6.67554
O    2.52353  -1.20897  2.24705
Sr    4.62628  -1.37982  0.96263
