22
Energy: -102130.200330 eV PBE+vdW (tier 2 basis)
N    -0.34432  -0.95902  -0.37968
C    -0.21124  -0.29414  0.98028
C    1.30009  -0.06931  1.23785
O    1.73066  0.09187  2.41512
H    -1.22189  -0.70655  -0.85895
H    -0.30100  -1.98775  -0.31923
H    0.45761  -0.64479  -0.96182
H    -0.60455  0.72624  0.83574
C    -1.08410  -0.93179  2.08080
C    -0.86460  -2.35635  2.49628
N    0.02542  -2.74819  3.49435
C    -1.56727  -3.49244  2.16917
C    -0.12714  -4.05013  3.76884
N    -1.08528  -4.51198  2.96128
H    -2.13567  -0.83306  1.77320
H    -0.98896  -0.27677  2.95966
H    0.65477  -2.13013  4.00303
H    -2.39711  -3.64567  1.48780
H    0.41700  -4.62218  4.51447
H    -1.42668  -5.47477  2.96314
O    2.04034  0.06185  0.20536
Sr    3.85271  1.01950  1.52868
