22
Energy: -102129.891273 eV PBE+vdW (tier 2 basis)
N    0.27179  1.00181  1.44564
C    0.19145  -0.33194  2.11660
C    1.45082  -1.13168  1.74144
O    2.44425  -0.57887  1.23231
H    -0.21092  1.69331  2.02782
H    -0.28753  0.96706  0.58463
H    2.24434  -2.86810  1.85792
H    0.31495  -0.16154  3.20075
C    -1.11183  -1.13767  1.87735
C    -2.34301  -0.66005  2.59967
N    -3.61778  -0.90272  2.09435
C    -2.54441  -0.09802  3.83672
C    -4.55140  -0.51574  2.97266
N    -3.90888  -0.02042  4.03137
H    -0.92280  -2.17890  2.18107
H    -1.31210  -1.17894  0.79449
H    -3.84073  -1.34548  1.20367
H    -1.85152  0.22030  4.60587
H    -5.62723  -0.58943  2.84382
H    -4.37071  0.34673  4.86422
O    1.40289  -2.39316  2.05204
Sr    2.83438  1.65345  0.67160
