22
Energy: -102129.435502 eV PBE+vdW (tier 2 basis)
N    0.77518  -2.25253  1.12070
C    0.19936  -0.92007  1.17568
C    1.22940  -0.00124  1.85018
O    2.13450  0.58784  1.19447
H    1.02582  -2.67159  2.01604
H    1.51607  -2.38263  0.43525
H    0.57716  -0.31615  3.64435
H    0.08521  -0.55451  0.14622
C    -1.18142  -0.92530  1.87542
C    -2.23727  -1.70494  1.14047
N    -3.53970  -1.23350  0.99746
C    -2.23484  -2.95231  0.56464
C    -4.29772  -2.13918  0.36723
N    -3.51132  -3.18327  0.09696
H    -1.52792  0.11102  2.00469
H    -1.09030  -1.35576  2.89032
H    -3.90076  -0.34241  1.33277
H    -1.44278  -3.68179  0.46408
H    -5.35075  -2.04066  0.12404
H    -3.82367  -4.03023  -0.37778
O    1.30753  0.12014  3.15785
Sr    3.97725  1.92505  0.96796
