22
Energy: -102130.366393 eV PBE+vdW (tier 2 basis)
N    -0.52307  0.38006  0.16106
C    0.14259  0.05870  1.49206
C    1.67108  0.14595  1.26093
O    2.07340  0.70856  0.18861
H    -1.43097  0.85472  0.27734
H    -0.68392  -0.46313  -0.41194
H    0.11711  0.99367  -0.38051
H    -0.11997  0.88862  2.16639
C    -0.38613  -1.28471  2.06533
C    -0.44254  -1.39887  3.55863
N    0.66575  -1.44025  4.39659
C    -1.53121  -1.59564  4.37150
C    0.27959  -1.65055  5.66180
N    -1.05274  -1.74620  5.65416
H    0.19227  -2.12216  1.64485
H    -1.42027  -1.42440  1.71834
H    1.63019  -1.31869  4.09138
H    -2.58897  -1.66085  4.14250
H    0.92470  -1.72887  6.53102
H    -1.62436  -1.91648  6.48303
O    2.47065  -0.29684  2.13786
Sr    4.41803  0.51994  0.77949
