22
Energy: -102129.412894 eV PBE+vdW (tier 2 basis)
N    -0.87309  -0.61264  0.11235
C    -0.15049  -0.11421  1.25645
C    1.38715  -0.06763  1.12608
O    2.04498  -0.78336  0.32962
H    -0.85355  0.00573  -0.69754
H    -0.61133  -1.55760  -0.16772
H    1.55255  1.33684  2.44996
H    -0.45693  0.93416  1.41814
C    -0.54758  -0.93300  2.53197
C    -1.96875  -0.71782  2.95588
N    -3.05889  -0.79815  2.09822
C    -2.49242  -0.49726  4.20555
C    -4.19700  -0.63160  2.78059
N    -3.86269  -0.45288  4.06238
H    0.09629  -0.68719  3.38750
H    -0.38006  -2.00057  2.31396
H    -2.97142  -0.91223  1.08664
H    -2.01290  -0.38744  5.17088
H    -5.20210  -0.63638  2.37197
H    -4.53239  -0.31005  4.81829
O    2.08981  0.76060  1.86646
Sr    4.08426  -1.30537  -0.64145
