22
Energy: -102129.366464 eV PBE+vdW (tier 2 basis)
N    -0.38722  1.60169  1.65848
C    0.05601  0.25297  1.39341
C    1.44755  0.51463  0.78157
O    2.47170  0.67611  1.49662
H    -0.75878  1.78222  2.58527
H    -0.92268  2.06321  0.92823
H    0.81847  0.52508  -1.04808
H    0.24553  -0.25036  2.35096
C    -0.87246  -0.63333  0.50976
C    -2.19539  -0.96625  1.13313
N    -2.45993  -2.16049  1.79966
C    -3.37994  -0.27147  1.14812
C    -3.73838  -2.19991  2.19634
N    -4.30265  -1.05350  1.80932
H    -0.35319  -1.56564  0.23816
H    -1.09330  -0.11495  -0.43886
H    -1.81221  -2.93417  1.93484
H    -3.64829  0.68747  0.72205
H    -4.22506  -3.01456  2.72325
H    -5.28169  -0.81252  1.96621
O    1.61760  0.69464  -0.50806
Sr    4.59531  1.39412  1.90761
