22
Energy: -102129.521543 eV PBE+vdW (tier 2 basis)
N    0.91842  -0.47158  0.22153
C    0.16211  -0.29903  1.49510
C    1.16505  0.16389  2.58097
O    2.32185  0.48071  2.25709
H    1.13431  -1.46756  0.09704
H    0.30339  -0.24302  -0.56511
H    -0.08151  0.04884  4.07074
H    -0.51062  0.56556  1.35969
C    -0.67791  -1.54178  1.93589
C    -1.82765  -1.95112  1.06053
N    -3.08093  -1.33665  1.05814
C    -1.95736  -3.04244  0.23651
C    -3.92992  -2.01790  0.27722
N    -3.25422  -3.05143  -0.22993
H    -1.07482  -1.37785  2.95094
H    -0.00777  -2.40922  2.03219
H    -3.36803  -0.52561  1.60327
H    -1.25506  -3.82777  -0.01838
H    -4.97402  -1.77723  0.09785
H    -3.65866  -3.75503  -0.85012
O    0.83597  0.29003  3.83422
Sr    3.43686  0.80604  0.27292
