22
Energy: -102129.769141 eV PBE+vdW (tier 2 basis)
N    -0.10590  -0.36424  -0.13099
C    -0.01245  0.00146  1.31432
C    1.46282  0.24008  1.63225
O    2.26104  0.59936  0.74750
H    -1.06822  -0.19501  -0.44505
H    0.02017  -1.38007  -0.22637
H    2.72284  0.39588  3.05409
H    -0.44138  1.01789  1.40286
C    -0.84778  -0.84121  2.32355
C    -0.52881  -2.28596  2.57431
N    0.27221  -2.73058  3.62579
C    -1.06052  -3.42613  2.01928
C    0.22963  -4.06553  3.71356
N    -0.56989  -4.49729  2.73482
H    -1.89176  -0.78575  1.98271
H    -0.84026  -0.30076  3.28164
H    0.76725  -2.14130  4.29262
H    -1.78322  -3.55924  1.22250
H    0.74025  -4.68105  4.44839
H    -0.80555  -5.47784  2.57510
O    1.79361  0.11044  2.89038
Sr    1.83192  0.92285  -1.55525
