22
Energy: -102129.599173 eV PBE+vdW (tier 2 basis)
N    -0.31397  0.77206  0.26374
C    -0.01068  0.12502  1.57498
C    1.49701  0.29179  1.84701
O    2.17750  1.06913  1.15991
H    -0.33536  0.04952  -0.46670
H    -1.27472  1.13070  0.28803
H    1.45940  -0.92940  3.32559
H    -0.51041  0.72998  2.35112
C    -0.53572  -1.34070  1.65222
C    -0.56268  -2.00392  3.00732
N    -0.48617  -3.38999  3.14056
C    -0.80207  -1.53118  4.27934
C    -0.67440  -3.74797  4.41633
N    -0.85954  -2.62721  5.11643
H    0.04729  -1.96750  0.95887
H    -1.56803  -1.33077  1.26592
H    -0.33700  -4.06274  2.38810
H    -0.97587  -0.52894  4.65448
H    -0.66783  -4.76190  4.80807
H    -1.02991  -2.59811  6.12356
O    2.07508  -0.34536  2.82765
Sr    1.64733  2.55971  -0.54065
