22
Energy: -102129.928584 eV PBE+vdW (tier 2 basis)
N    -0.44215  1.05316  0.73669
C    0.02232  0.20343  1.87944
C    1.55396  0.23300  1.88015
O    2.19260  1.07665  1.22411
H    -0.65249  0.43672  -0.05942
H    -1.35327  1.45654  0.98038
H    3.10184  -0.56011  2.65420
H    -0.26410  0.72069  2.81110
C    -0.63026  -1.22317  1.86303
C    -0.59789  -2.06437  3.10524
N    -1.49494  -1.93097  4.16523
C    0.15677  -3.17086  3.40563
C    -1.29852  -2.90339  5.06491
N    -0.29409  -3.65802  4.61233
H    -0.18233  -1.81320  1.05060
H    -1.68429  -1.07509  1.57993
H    -2.24351  -1.24629  4.25051
H    0.95162  -3.65770  2.85354
H    -1.85747  -3.05375  5.98365
H    0.06387  -4.48601  5.09035
O    2.12141  -0.65782  2.64620
Sr    1.42290  2.81755  -0.15679
