22
Energy: -102129.156493 eV PBE+vdW (tier 2 basis)
N    0.05628  0.75540  0.24357
C    0.23732  0.14394  1.55166
C    1.62958  -0.47120  1.33315
O    2.68305  0.20833  1.45493
H    -0.32531  1.69844  0.26530
H    -0.44842  0.18440  -0.43317
H    0.94209  -2.18848  0.79443
H    0.37324  0.93801  2.29792
C    -0.92285  -0.80168  1.98846
C    -1.02274  -1.22629  3.42399
N    -1.72152  -0.49122  4.38083
C    -0.62099  -2.36942  4.07081
C    -1.75220  -1.14875  5.54625
N    -1.07982  -2.28859  5.36904
H    -0.95877  -1.70559  1.35713
H    -1.84446  -0.26237  1.72064
H    -2.20585  0.39181  4.22728
H    -0.08814  -3.24204  3.71290
H    -2.24115  -0.82164  6.45873
H    -0.95797  -3.00163  6.08863
O    1.78309  -1.69487  0.88307
Sr    4.73405  0.95057  0.81347
