25
Energy: -32071.8255733 eV PBE+vdW (tier 2 basis)
N    1.111485  -0.160938  0.069044
C    0.296340  -0.076116  1.355756
C    1.067004  -0.876400  2.408344
O    1.935175  -1.728483  2.002007
H    0.512985  -0.221368  -0.765595
H    1.734956  0.649032  -0.048035
H    0.253301  0.978749  1.653011
C    -1.136146  -0.614147  1.141745
C    -1.287304  -2.130286  0.905327
C    -1.259402  -2.984101  2.200790
C    -0.294113  -4.177680  2.168908
N    0.295407  -4.435553  3.534925
H    -1.569506  -0.048097  0.302061
H    -1.718846  -0.307009  2.021677
H    -0.523381  -2.495560  0.198642
H    -2.240603  -2.283619  0.385775
H    -2.273586  -3.344214  2.418109
H    -1.010237  -2.336453  3.054862
H    0.546784  -3.982684  1.489172
H    -0.797540  -5.082126  1.801817
H    0.735087  -5.364243  3.517885
H    -0.481272  -4.553491  4.197553
O    0.766564  -0.745416  3.629605
H    1.705596  -1.011104  0.140664
Ca    1.859251  -2.645694  4.101951
