25
Energy: -32071.3762714 eV PBE+vdW (tier 2 basis)
N    -0.870917  0.676829  -0.134220
C    -0.498532  0.094718  1.210677
C    1.009892  0.367777  1.472641
O    1.431014  1.511092  0.948927
H    -0.647604  -0.026219  -0.850201
H    -1.892039  0.759454  -0.183082
H    -1.040286  0.699898  1.957590
C    -0.917607  -1.375464  1.362619
C    -0.862330  -1.919794  2.814337
C    0.223003  -2.988157  3.026503
C    0.321880  -3.387080  4.491713
N    1.441443  -4.400116  4.703604
H    -0.291428  -1.993326  0.700085
H    -1.947505  -1.470401  0.989823
H    -1.843493  -2.338395  3.077767
H    -0.685432  -1.090096  3.514555
H    1.184311  -2.572324  2.689437
H    -0.005525  -3.874702  2.412500
H    -0.592526  -3.860824  4.870760
H    0.565907  -2.532423  5.135224
H    2.348203  -4.013926  4.404118
H    1.528503  -4.673072  5.692611
O    1.694310  -0.395022  2.123321
H    1.277943  -5.257597  4.157349
Ca    0.539813  2.653169  -0.450660
