25
Energy: -32071.6206488 eV PBE+vdW (tier 2 basis)
N    -0.646463  0.625223  -0.056466
C    -0.671296  -0.055898  1.291685
C    0.440634  0.582813  2.166691
O    0.607926  1.864120  1.966184
H    0.065903  0.160798  -0.634025
H    -1.527138  0.417345  -0.539567
H    -1.625440  0.243299  1.758082
C    -0.594938  -1.586743  1.250279
C    -1.227031  -2.245206  2.500811
C    -0.573545  -3.570870  2.947207
C    0.386393  -3.455515  4.126029
N    1.614413  -2.621399  3.814714
H    0.459717  -1.880351  1.130979
H    -1.113194  -1.955663  0.353403
H    -2.289445  -2.424626  2.292247
H    -1.213502  -1.539977  3.345986
H    -0.082752  -4.075926  2.100033
H    -1.353115  -4.269510  3.281073
H    0.744281  -4.441083  4.446845
H    -0.096348  -2.971762  4.984716
H    2.193089  -3.073389  3.096329
H    1.360075  -1.650414  3.470058
O    1.089226  -0.072725  2.977721
H    2.203585  -2.510995  4.649740
Ca    -0.023037  2.959454  0.364246
