25
Energy: -32069.6901817 eV PBE+vdW (tier 2 basis)
N    0.345263  -0.125372  0.316177
C    -0.035256  -0.091180  1.728302
C    1.304017  0.256183  2.373290
O    1.749741  1.442762  2.387423
H    0.585250  -1.058569  -0.014634
H    -0.366622  0.272692  -0.291932
H    -0.668352  0.793709  1.883418
C    -0.773552  -1.315182  2.309138
C    -0.066320  -2.683885  2.230233
C    -1.029158  -3.884526  2.275472
C    -1.806602  -4.033573  3.591175
N    -2.649967  -5.203663  3.549593
H    -1.714341  -1.375193  1.740757
H    -1.064047  -1.090544  3.346655
H    0.642061  -2.824446  3.077321
H    0.518491  -2.775470  1.300008
H    -0.445476  -4.800264  2.098756
H    -1.743463  -3.807328  1.442122
H    -2.457450  -3.163887  3.763014
H    -1.084551  -4.057116  4.436873
H    -2.172837  -6.098335  3.466527
H    -3.397080  -5.240102  4.236964
O    2.087918  -0.660115  2.862892
H    1.644493  -1.547446  2.846652
Ca    2.907012  3.121868  2.134221
