25
Energy: -32070.543946 eV PBE+vdW (tier 2 basis)
N    -0.820912  0.424663  0.470643
C    -0.356232  0.530101  1.912343
C    1.152809  0.710108  1.930734
O    1.721848  1.075652  3.012183
H    -1.760095  -0.028012  0.460471
H    -0.891907  1.338771  0.004359
H    -0.830461  1.420951  2.347799
C    -0.780175  -0.730187  2.698570
C    -2.292601  -0.896247  2.896383
C    -3.155862  -1.153764  1.650867
C    -4.505231  -1.816216  2.032245
N    -4.262396  -3.086241  2.704293
H    -0.294505  -0.653419  3.681608
H    -0.351889  -1.619083  2.204086
H    -2.688873  -0.037986  3.460926
H    -2.426232  -1.783352  3.536815
H    -2.639171  -1.842044  0.954430
H    -3.412245  -0.222553  1.103971
H    -5.127317  -1.895905  1.125799
H    -5.037799  -1.144044  2.719765
H    -4.265137  -3.871028  2.054537
H    -4.966084  -3.280961  3.412925
O    1.848341  0.445459  0.882272
H    -0.159373  -0.150975  -0.072409
Ca    3.677985  0.909967  2.065293
