25
Energy: -32069.6940672 eV PBE+vdW (tier 2 basis)
N    0.199130  0.115972  0.144915
C    0.088248  0.058057  1.647785
C    1.421545  0.529630  2.227523
O    2.266758  1.101522  1.499695
H    0.365952  -0.844510  -0.185358
H    -0.728315  0.342019  -0.231327
H    -0.634654  0.837921  1.949037
C    -0.426201  -1.307413  2.157530
C    -0.777877  -1.392479  3.657049
C    -1.622814  -2.634119  4.003140
C    -3.099615  -2.526844  3.594460
N    -3.786071  -3.765769  3.898775
H    0.303036  -2.092594  1.900101
H    -1.336723  -1.521011  1.578162
H    -1.315243  -0.484412  3.980741
H    0.139200  -1.482620  4.272592
H    -1.567486  -2.788637  5.090456
H    -1.184027  -3.532827  3.544898
H    -3.193649  -2.361183  2.509069
H    -3.543487  -1.635861  4.086660
H    -3.873554  -3.957673  4.895481
H    -4.697413  -3.852529  3.455738
O    1.687584  0.400681  3.489748
H    0.986457  -0.108275  3.968158
Ca    2.079613  1.533776  -0.581055
