25
Energy: -32071.2617739 eV PBE+vdW (tier 2 basis)
N    -0.527111  0.633385  0.358876
C    0.364190  0.092508  1.380645
C    1.510399  -0.491431  0.553990
O    2.611855  0.160478  0.420828
H    -2.414200  -0.122475  6.671384
H    -0.949885  1.523700  0.601747
H    0.797752  0.940056  1.929004
C    -0.245623  -0.942947  2.350915
C    -1.393690  -0.379877  3.206142
C    -0.964253  0.498721  4.397308
C    -0.551844  -0.258127  5.654890
N    -1.764807  -0.859627  6.361553
H    0.554960  -1.355647  2.987865
H    -0.619057  -1.789108  1.755888
H    -2.020400  -1.222001  3.547775
H    -2.063483  0.208687  2.563019
H    -1.760667  1.215201  4.655841
H    -0.104820  1.127304  4.120971
H    -0.074651  0.396331  6.393599
H    0.122112  -1.098706  5.446921
H    -1.491932  -1.402573  7.192642
H    -2.289432  -1.487531  5.736158
O    1.339336  -1.582745  -0.112107
H    -1.232640  -0.024960  0.035690
Ca    3.122892  -1.118617  -1.232546
