25
Energy: -32071.2491946 eV PBE+vdW (tier 2 basis)
N    -1.347411  1.145160  3.348152
C    -0.846427  0.020690  2.573107
C    0.671819  0.044448  2.614317
O    1.389915  -0.440074  1.658579
H    -4.526969  -2.614393  -1.196857
H    -0.881721  1.218770  4.252135
H    -1.088334  -0.979486  3.012011
C    -1.427458  0.066400  1.140774
C    -1.603754  -1.290574  0.446681
C    -2.206894  -1.120228  -0.956608
C    -2.477999  -2.405649  -1.726678
N    -3.665430  -3.177065  -1.152639
H    -0.816001  0.734155  0.517280
H    -2.407934  0.557365  1.225436
H    -2.249424  -1.923689  1.083426
H    -0.637294  -1.811156  0.367421
H    -1.513369  -0.538260  -1.582199
H    -3.128233  -0.514325  -0.914407
H    -1.628595  -3.100023  -1.702184
H    -2.736238  -2.207158  -2.773509
H    -3.837479  -4.048584  -1.673200
H    -3.510504  -3.427967  -0.166706
O    1.265041  0.548474  3.641626
H    -2.347914  1.055208  3.520151
Ca    3.167604  0.223960  2.722891
