25
Energy: -32069.7478469 eV PBE+vdW (tier 2 basis)
N    0.153264  -0.640803  0.313573
C    0.616126  -0.542254  1.741888
C    1.749871  -1.537600  1.928438
O    1.849689  -2.527654  1.165635
H    -0.829704  -0.326828  0.298897
H    0.644317  0.076421  -0.235901
H    0.975929  0.477367  1.956064
C    -0.520707  -0.896657  2.739230
C    -1.592250  0.191005  2.929074
C    -2.459012  0.522042  1.709550
C    -3.662287  1.430360  2.042260
N    -4.418170  1.729899  0.835093
H    -0.062407  -1.112019  3.716306
H    -0.983584  -1.846205  2.414323
H    -1.113542  1.106103  3.312207
H    -2.242505  -0.164571  3.743203
H    -2.852323  -0.405876  1.253585
H    -1.893404  1.067312  0.932183
H    -3.285339  2.370019  2.469581
H    -4.264599  0.944760  2.831475
H    -5.187830  1.081652  0.678702
H    -4.801952  2.671985  0.839024
O    2.606225  -1.437351  2.903703
H    2.493435  -0.636862  3.456566
Ca    0.655765  -2.848649  -0.579081
