25
Energy: -32069.9130726 eV PBE+vdW (tier 2 basis)
N    -0.284241  0.138705  0.128604
C    0.104660  -0.073089  1.563768
C    1.497219  -0.668326  1.587745
O    1.922992  -1.307998  0.593124
H    -1.314885  0.112381  0.105426
H    -0.048427  1.101790  -0.139992
H    0.077528  0.881148  2.113253
C    -0.868574  -1.080130  2.242004
C    -2.328820  -0.629618  2.183627
C    -3.299863  -1.660260  2.776248
C    -4.709979  -1.468532  2.196140
N    -4.695506  -1.687750  0.740522
H    -0.547743  -1.220561  3.284953
H    -0.758124  -2.067455  1.757318
H    -2.664674  -0.503940  1.135276
H    -2.444212  0.342564  2.687390
H    -3.323991  -1.588141  3.872598
H    -2.958738  -2.681302  2.536046
H    -5.051234  -0.441453  2.389384
H    -5.406619  -2.135043  2.728997
H    -4.832377  -2.676791  0.528645
H    -5.469650  -1.195744  0.295225
O    2.258542  -0.615431  2.642040
H    1.887333  -0.087602  3.378704
Ca    0.877066  -1.477484  -1.254992
