25
Energy: -32071.428128 eV PBE+vdW (tier 2 basis)
N    -0.634095  -1.261798  0.607170
C    0.221978  -0.143863  1.009942
C    1.597960  -0.311018  0.377559
O    2.481414  -1.109948  0.881501
H    -0.974657  -0.175245  7.222356
H    -0.912318  -1.216291  -0.371884
H    -0.203228  0.769861  0.570917
C    0.255443  -0.011222  2.542290
C    -1.106144  0.473624  3.061630
C    -1.255900  0.551473  4.592408
C    -1.441126  -0.812580  5.245218
N    -1.740175  -0.660965  6.733916
H    1.044126  0.699145  2.834762
H    0.538046  -0.986074  2.970563
H    -1.900454  -0.162374  2.643012
H    -1.290502  1.484065  2.669529
H    -2.139191  1.172164  4.813985
H    -0.386837  1.065783  5.035156
H    -0.550775  -1.449392  5.180905
H    -2.293283  -1.358614  4.821340
H    -1.876589  -1.571800  7.194335
H    -2.595385  -0.106027  6.882959
O    1.865622  0.289181  -0.734420
H    -0.209490  -2.170229  0.794325
Ca    3.774561  -0.681855  -0.800475
