25
Energy: -32071.5378574 eV PBE+vdW (tier 2 basis)
N    -0.791605  0.765400  0.226032
C    -0.418312  -0.091476  1.414822
C    1.090520  0.117346  1.706608
O    1.546655  1.298839  1.385000
H    -0.614049  0.214264  -0.623499
H    -1.809763  0.889820  0.226324
H    -0.939146  0.359448  2.277084
C    -0.846652  -1.568877  1.284722
C    -1.474111  -2.195801  2.548991
C    -0.653578  -2.270743  3.850013
C    0.349566  -3.410279  4.003990
N    1.517693  -3.324947  3.030967
H    0.005062  -2.152925  0.905805
H    -1.614504  -1.633653  0.499191
H    -1.828800  -3.203765  2.284016
H    -2.388423  -1.626606  2.775911
H    -1.364463  -2.419887  4.676176
H    -0.155775  -1.315277  4.074440
H    -0.117737  -4.392529  3.863809
H    0.785402  -3.386129  5.009011
H    2.382139  -3.685432  3.451270
H    1.344554  -3.879485  2.186006
O    1.777767  -0.756716  2.227977
H    1.671054  -2.318157  2.727505
Ca    0.664507  2.735565  0.238830
