25
Energy: -32070.5506655 eV PBE+vdW (tier 2 basis)
N    0.754737  -1.546689  -0.171920
C    0.061186  -0.520860  0.722177
C    1.134112  0.411869  1.275197
O    0.808260  1.307532  2.118806
H    0.945231  -2.399053  0.381094
H    0.166406  -1.813425  -0.971734
H    -0.570944  0.094858  0.063040
C    -0.804926  -1.206482  1.781320
C    -0.051898  -2.173241  2.705206
C    -0.948657  -2.794466  3.793013
C    -1.356901  -1.843668  4.923609
N    -2.203491  -0.735327  4.444776
H    -1.627430  -1.725160  1.264365
H    -1.285205  -0.430504  2.400827
H    0.790622  -1.650370  3.193130
H    0.396133  -3.012015  2.135983
H    -0.412897  -3.644019  4.238894
H    -1.848612  -3.223700  3.322659
H    -0.451269  -1.404234  5.370246
H    -1.830966  -2.445338  5.718339
H    -3.145553  -1.079821  4.245437
H    -2.322549  -0.044079  5.186241
O    2.347595  0.320729  0.853825
H    1.659310  -1.180231  -0.511968
Ca    2.842454  2.085187  2.119239
