25
Energy: -32068.8461861 eV PBE+vdW (tier 2 basis)
N    1.372391  -1.040280  0.818490
C    0.619071  -0.538673  1.966105
C    1.403515  -1.228354  3.079144
O    2.480816  -0.755491  3.552606
H    0.891492  -1.771311  0.299710
H    1.712175  -0.319043  0.189708
H    0.787722  0.541421  2.080017
C    -0.884434  -0.840755  2.013027
C    -1.768660  0.023045  1.094728
C    -1.676213  -0.253953  -0.411322
C    -2.766048  0.485736  -1.207524
N    -2.610087  1.926901  -1.139391
H    -1.230963  -0.689002  3.049081
H    -1.057987  -1.909147  1.770395
H    -1.571758  1.087917  1.290913
H    -2.807669  -0.146824  1.414854
H    -1.790269  -1.332007  -0.608880
H    -0.692097  0.037546  -0.811704
H    -3.754755  0.228448  -0.802774
H    -2.747022  0.116451  -2.250336
H    -1.883990  2.311706  -1.739497
H    -3.470539  2.459431  -1.235330
O    1.045947  -2.399164  3.539480
H    0.174933  -2.671482  3.175061
Ca    4.310306  -0.653090  4.497461
