25
Energy: -32070.4137829 eV PBE+vdW (tier 2 basis)
N    0.704936  -0.585132  0.074710
C    0.107162  -0.216805  1.430324
C    1.272673  0.083766  2.369657
O    1.034497  0.423672  3.569975
H    0.531974  -1.575881  -0.146655
H    0.315225  -0.025180  -0.693814
H    -0.454763  0.719175  1.290524
C    -0.833410  -1.313975  1.950047
C    -2.063924  -1.545476  1.062646
C    -3.016714  -2.581066  1.670385
C    -4.276782  -2.807063  0.818331
N    -5.166276  -3.746561  1.472787
H    -1.151221  -0.997838  2.953681
H    -0.262231  -2.248476  2.087536
H    -1.767693  -1.883573  0.052147
H    -2.594764  -0.588548  0.924507
H    -3.332224  -2.258175  2.673578
H    -2.490068  -3.540542  1.801422
H    -3.975567  -3.120025  -0.202638
H    -4.814247  -1.854280  0.706451
H    -6.137243  -3.659424  1.184299
H    -4.877074  -4.719283  1.393134
O    2.478896  -0.005696  1.931976
H    1.731393  -0.432166  0.127708
Ca    3.185304  0.637043  3.974838
