25
Energy: -32071.3078387 eV PBE+vdW (tier 2 basis)
N    -0.760724  0.733576  0.603802
C    0.354216  0.014041  1.210977
C    1.263296  -0.321092  0.026279
O    2.343981  0.347018  -0.175762
H    -2.243267  1.088408  5.666222
H    -1.098231  1.521006  1.146890
H    0.923922  0.726634  1.822686
C    0.003880  -1.253249  2.016880
C    -0.863079  -1.023082  3.266094
C    -0.160035  -0.256582  4.400621
C    -0.773094  -0.449557  5.781910
N    -2.204033  0.079208  5.866109
H    0.935551  -1.761107  2.315269
H    -0.521143  -1.950765  1.347608
H    -1.165842  -2.016388  3.634845
H    -1.790966  -0.507413  2.962939
H    -0.081137  0.819508  4.176595
H    0.877690  -0.611602  4.499760
H    -0.212550  0.083109  6.559175
H    -0.834057  -1.509644  6.059391
H    -2.601497  -0.065852  6.804986
H    -2.819599  -0.396413  5.191941
O    0.907600  -1.219436  -0.827965
H    -1.529782  0.135853  0.309894
Ca    2.520900  -0.587180  -2.109147
