25
Energy: -32071.4096345 eV PBE+vdW (tier 2 basis)
N    0.232307  0.534538  -0.196488
C    -0.072148  0.113498  1.229503
C    0.935548  -1.042504  1.482678
O    1.719052  -1.342519  0.591543
H    0.492126  1.523565  -0.283897
H    1.057638  -0.087413  -0.446659
H    0.172106  0.964966  1.879280
C    -1.534703  -0.320096  1.422902
C    -1.993074  -0.276616  2.898205
C    -3.083259  -1.303906  3.237664
C    -2.644022  -2.763787  3.343901
N    -1.771008  -3.035660  4.560028
H    -1.659703  -1.328361  0.997447
H    -2.190205  0.343356  0.839231
H    -2.376639  0.728824  3.118207
H    -1.128667  -0.404920  3.566210
H    -3.880312  -1.259423  2.480116
H    -3.575702  -1.014405  4.180039
H    -2.087564  -3.086798  2.450572
H    -3.535647  -3.400613  3.406020
H    -2.022562  -3.972080  4.900099
H    -2.107213  -2.421644  5.313233
O    0.831955  -1.632084  2.639130
H    -0.543291  0.347025  -0.843422
Ca    0.619987  -2.919943  4.196459
