25
Energy: -32069.8311818 eV PBE+vdW (tier 2 basis)
N    0.052964  -0.315123  0.138342
C    0.049862  -0.340773  1.648989
C    1.496282  -0.400863  2.117022
O    2.441598  -0.167234  1.319019
H    -0.196373  -1.264087  -0.173879
H    -0.748846  0.249324  -0.164308
H    -0.317510  0.643160  1.992759
C    -0.872999  -1.438071  2.220670
C    -1.150073  -1.402395  3.735062
C    -1.681356  -0.076226  4.304965
C    -2.917046  0.473575  3.572059
N    -3.877834  -0.594828  3.294100
H    -0.476096  -2.426210  1.935980
H    -1.851161  -1.325253  1.726821
H    -0.294997  -1.776108  4.338370
H    -1.905835  -2.183351  3.899002
H    -0.905063  0.708635  4.330485
H    -1.934097  -0.254831  5.360275
H    -2.624154  0.910934  2.600253
H    -3.317901  1.316746  4.162020
H    -4.285243  -0.951167  4.160862
H    -4.662381  -0.241821  2.745966
O    1.786165  -0.651800  3.351935
H    0.979378  -0.894753  3.876412
Ca    2.253754  0.282024  -0.737828
