25
Energy: -32071.7081076 eV PBE+vdW (tier 2 basis)
N    0.166716  0.250291  0.225188
C    0.128710  -0.216688  1.622188
C    1.100529  0.519808  2.545597
O    1.014221  0.347224  3.816498
H    0.035649  1.264796  0.188351
H    -1.001133  -0.478482  -0.802763
H    -0.875305  -0.002430  2.024983
C    0.367247  -1.739344  1.747391
C    -0.654681  -2.627080  1.015228
C    -0.378360  -2.895863  -0.487028
C    -1.493439  -2.496037  -1.442255
N    -1.724754  -0.985120  -1.445725
H    0.337340  -1.974573  2.819230
H    1.387465  -1.980761  1.405449
H    -1.665399  -2.211368  1.162255
H    -0.675694  -3.591173  1.538051
H    -0.223402  -3.971624  -0.645723
H    0.564777  -2.427817  -0.807138
H    -2.445379  -2.967893  -1.173003
H    -1.256175  -2.787954  -2.470885
H    -1.639185  -0.601737  -2.392995
H    -2.666960  -0.748967  -1.118115
O    2.005369  1.300786  2.071199
H    1.097083  0.085938  -0.170920
Ca    2.677250  1.692831  4.115978
