25
Energy: -32069.7987478 eV PBE+vdW (tier 2 basis)
N    0.955879  0.169516  0.202177
C    1.337810  -0.737336  1.343182
C    2.416638  -1.689740  0.843470
O    2.999664  -1.483236  -0.247626
H    0.058322  -0.172397  -0.168527
H    0.711580  1.082065  0.603860
H    1.835743  -0.107176  2.102790
C    0.133653  -1.440252  2.004567
C    -0.921637  -0.483148  2.575357
C    -0.411453  0.496795  3.636096
C    -1.571214  1.105443  4.454724
N    -2.289975  0.061610  5.170981
H    0.506998  -2.059592  2.839473
H    -0.321298  -2.137328  1.280777
H    -1.700559  -1.104657  3.042664
H    -1.432867  0.060942  1.762661
H    0.170364  1.326257  3.194678
H    0.266232  -0.024786  4.334001
H    -2.273057  1.606425  3.772323
H    -1.160403  1.889091  5.114293
H    -1.874979  -0.161130  6.074247
H    -3.273248  0.279044  5.315171
O    2.795525  -2.718690  1.541793
H    2.272797  -2.842153  2.362287
Ca    2.633828  0.132049  -1.585258
