25
Energy: -32070.425393 eV PBE+vdW (tier 2 basis)
N    -1.211038  -0.022626  0.309150
C    -0.019413  0.202031  1.184025
C    1.248425  0.114574  0.344676
O    1.186310  0.104595  -0.907753
H    -1.572017  -0.961946  0.523662
H    -1.971918  0.649351  0.755425
H    -0.066305  1.260090  1.506979
C    0.015925  -0.678979  2.451553
C    -1.282255  -0.681138  3.276936
C    -1.796473  0.686560  3.783341
C    -3.073980  1.198843  3.115742
N    -2.863634  1.686406  1.715655
H    0.832208  -0.321132  3.102856
H    0.269767  -1.713859  2.170607
H    -1.087272  -1.338720  4.134136
H    -2.081495  -1.193935  2.717262
H    -1.008902  1.458212  3.730762
H    -2.019458  0.597688  4.854796
H    -3.511230  1.998296  3.730845
H    -3.816508  0.390292  3.071816
H    -2.429376  2.613482  1.760197
H    -3.781486  1.855280  1.294244
O    2.432575  0.083303  0.885537
H    2.408136  0.058477  1.864840
Ca    -0.658648  0.106584  -1.984321
