25
Energy: -32068.9224775 eV PBE+vdW (tier 2 basis)
N    -0.404248  0.403025  0.047967
C    -0.093029  -0.098569  1.389138
C    1.430457  -0.135936  1.297146
O    2.147817  0.904163  1.411357
H    -0.661650  -0.341453  -0.598896
H    -1.133182  1.112655  0.049407
H    -0.338168  0.678930  2.127015
C    -0.738597  -1.424367  1.798980
C    -0.442627  -1.866585  3.240836
C    -1.156376  -3.161157  3.669352
C    -2.664585  -3.029893  3.918990
N    -3.428348  -2.790418  2.697028
H    -0.467489  -2.225703  1.078787
H    -1.827181  -1.316610  1.670639
H    -0.732155  -1.053718  3.927426
H    0.642020  -2.009755  3.389013
H    -0.698573  -3.511540  4.604842
H    -0.970505  -3.959226  2.931135
H    -2.856249  -2.193440  4.607071
H    -3.003409  -3.943735  4.443158
H    -3.472302  -3.607927  2.088350
H    -4.378144  -2.468869  2.877893
O    2.061784  -1.235559  0.995238
H    1.436790  -1.995437  0.974817
Ca    3.473520  2.418412  1.031784
