25
Energy: -32070.3727955 eV PBE+vdW (tier 2 basis)
N    -0.315800  0.823207  0.522148
C    -0.181882  0.149956  1.879943
C    1.294956  0.126465  2.252933
O    1.629823  -0.182267  3.440377
H    -1.170227  0.479482  0.053384
H    -0.376674  1.847768  0.588950
H    -0.730635  0.765153  2.606341
C    -0.777789  -1.269978  1.833191
C    -2.263231  -1.301441  1.439002
C    -2.867032  -2.713738  1.516361
C    -3.144299  -3.201791  2.945132
N    -3.599405  -4.581093  2.914463
H    -0.642247  -1.688518  2.839641
H    -0.185085  -1.897734  1.147393
H    -2.398311  -0.946217  0.399123
H    -2.835591  -0.612236  2.082298
H    -2.212538  -3.439785  1.010479
H    -3.811487  -2.711054  0.952541
H    -3.853705  -2.499903  3.430950
H    -2.222324  -3.177593  3.548331
H    -3.641101  -5.004231  3.839109
H    -4.512042  -4.689101  2.472731
O    2.180643  0.376052  1.356786
H    0.512548  0.598736  -0.054363
Ca    3.755534  -0.008086  2.911184
