25
Energy: -32070.3720397 eV PBE+vdW (tier 2 basis)
N    0.542355  -0.230273  0.354149
C    -0.025123  0.282117  1.669928
C    1.083190  1.063459  2.377162
O    0.881977  1.496298  3.554851
H    0.865162  -1.204223  0.476491
H    -0.155582  -0.218479  -0.401158
H    -0.801023  1.020744  1.414113
C    -0.639156  -0.855996  2.495464
C    0.311227  -2.017526  2.809012
C    -0.336941  -3.047280  3.743640
C    0.553533  -4.268786  4.006535
N    -0.069954  -5.142143  4.984164
H    -1.536355  -1.218463  1.970954
H    -1.002319  -0.398282  3.426567
H    1.239678  -1.638077  3.271692
H    0.619108  -2.546194  1.884346
H    -1.294241  -3.380333  3.310716
H    -0.579476  -2.574413  4.707054
H    1.517179  -3.936347  4.422428
H    0.783652  -4.765228  3.039989
H    -0.887161  -5.633633  4.625030
H    0.574578  -5.826880  5.373107
O    2.178527  1.317264  1.755600
H    1.359901  0.344438  0.083287
Ca    2.824783  2.523103  3.539193
