25
Energy: -32071.2002829 eV PBE+vdW (tier 2 basis)
N    -0.942244  0.833649  1.016364
C    -0.052488  -0.161597  1.688842
C    0.931239  -0.658757  0.632135
O    0.551854  -0.765060  -0.549368
H    -1.728068  1.022101  1.648510
H    -0.447038  1.730761  0.950006
H    0.470445  0.296360  2.543019
C    -0.849331  -1.407499  2.168076
C    -2.154846  -1.112873  2.947155
C    -3.450900  -1.642707  2.311215
C    -3.987588  -0.994323  1.031073
N    -3.323292  -1.466136  -0.257035
H    -0.167415  -2.003638  2.789079
H    -1.066776  -2.047301  1.298601
H    -2.264978  -0.037525  3.168877
H    -2.068027  -1.572697  3.939880
H    -4.247538  -1.523116  3.059772
H    -3.374008  -2.733111  2.161200
H    -3.909732  0.103289  1.074568
H    -5.058919  -1.220695  0.957022
H    -3.094340  -2.459784  -0.127605
H    -4.067436  -1.500553  -0.965745
O    2.137720  -1.051704  0.940326
H    2.377428  -0.904689  1.877722
Ca    -1.486162  -0.158090  -1.158445
