25
Energy: -32071.3437031 eV PBE+vdW (tier 2 basis)
N    -0.640880  -3.072939  1.518426
C    -0.497958  -1.910004  0.639436
C    0.863511  -1.966135  -0.041647
O    1.934870  -1.479329  0.497596
H    0.157168  -3.217834  2.135473
H    -0.818506  -3.932266  1.001112
H    -1.225648  -2.035912  -0.173196
C    -0.837513  -0.589118  1.358880
C    -0.243137  -0.388488  2.759284
C    -0.895656  0.811935  3.468461
C    -0.402283  0.959928  4.900912
N    -1.115445  2.106374  5.612380
H    -1.934582  -0.582527  1.443939
H    -0.572164  0.255916  0.704798
H    0.846485  -0.248384  2.705168
H    -0.429464  -1.292518  3.358879
H    -1.989560  0.671268  3.470656
H    -0.692320  1.737681  2.905200
H    0.669235  1.188305  4.957936
H    -0.600512  0.064211  5.502849
H    -0.789895  2.215799  6.583255
H    -0.959468  3.002092  5.128701
O    0.970501  -2.593851  -1.167545
H    -2.133046  1.949097  5.641840
Ca    3.072266  -2.238303  -1.190792
