25
Energy: -32071.3619507 eV PBE+vdW (tier 2 basis)
N    -0.575853  -0.375825  3.539678
C    -0.001679  -0.751087  2.249527
C    1.220136  0.159807  2.152987
O    2.387121  -0.297932  2.446264
H    -3.604255  -2.272110  -3.268362
H    -0.945019  -1.159436  4.069722
H    0.393833  -1.771820  2.342606
C    -0.930860  -0.659491  1.020112
C    -2.088457  -1.662673  1.117631
C    -3.181826  -1.538058  0.039873
C    -2.721842  -1.973543  -1.346149
N    -3.892249  -1.976116  -2.325021
H    -0.327951  -0.836590  0.114287
H    -1.318213  0.369422  0.944046
H    -2.589761  -1.533524  2.087324
H    -1.694717  -2.691970  1.119532
H    -3.551146  -0.500062  0.002042
H    -4.032372  -2.168260  0.346850
H    -2.326566  -2.997316  -1.347841
H    -1.968153  -1.306317  -1.781005
H    -4.635242  -2.617406  -2.011420
H    -4.314153  -1.040078  -2.406913
O    1.083032  1.418469  1.902585
H    -1.264243  0.371395  3.479439
Ca    3.093435  1.717522  2.633206
