25
Energy: -32069.7344424 eV PBE+vdW (tier 2 basis)
N    0.613051  -0.074535  0.152609
C    0.330577  0.037286  1.626398
C    1.634575  0.410659  2.313654
O    2.732679  0.130484  1.781214
H    -0.065806  -0.736024  -0.242539
H    0.377947  0.820383  -0.294935
H    -0.421702  0.820777  1.810371
C    -0.211576  -1.311264  2.172567
C    -0.615711  -1.323149  3.651976
C    -1.338853  -2.624868  4.026801
C    -1.726623  -2.683748  5.513296
N    -2.364311  -3.946824  5.821398
H    0.532898  -2.102683  1.979036
H    -1.097172  -1.548411  1.560258
H    -1.279913  -0.466237  3.861690
H    0.272599  -1.216540  4.295726
H    -0.701228  -3.493078  3.801685
H    -2.245911  -2.731369  3.410265
H    -2.357548  -1.804806  5.759272
H    -0.821402  -2.602468  6.132465
H    -2.317634  -4.212389  6.801501
H    -3.319646  -4.035905  5.482123
O    1.654456  0.984356  3.483123
H    0.763428  1.169045  3.845207
Ca    2.996935  -0.579099  -0.226073
