25
Energy: -32071.3733337 eV PBE+vdW (tier 2 basis)
N    -0.071316  -3.066477  2.174396
C    -0.255804  -2.149131  1.059388
C    0.951034  -2.151428  0.142509
O    1.762448  -3.153915  0.144059
H    0.544118  -3.839323  1.921957
H    -0.960763  -3.469406  2.465606
H    -1.058949  -2.471568  0.357661
C    -0.662074  -0.739033  1.549015
C    0.363400  -0.098274  2.492170
C    -0.155059  1.129329  3.266964
C    -1.085770  0.745713  4.411590
N    -1.533247  1.980477  5.187502
H    -1.630912  -0.872644  2.054794
H    -0.853423  -0.091678  0.682060
H    1.236944  0.230253  1.910928
H    0.724178  -0.860563  3.199234
H    -0.670898  1.819591  2.578645
H    0.708933  1.675015  3.678713
H    -0.592577  0.091638  5.141435
H    -2.006909  0.256547  4.073283
H    -2.041058  2.640061  4.581017
H    -2.155169  1.735882  5.971044
O    1.141030  -1.199456  -0.707084
H    -0.725466  2.486352  5.578262
Ca    2.757309  -2.334961  -1.581148
