25
Energy: -32071.1985999 eV PBE+vdW (tier 2 basis)
N    0.933580  -3.123341  2.515548
C    0.290606  -2.185985  1.629683
C    0.886796  -2.094179  0.217892
O    0.418732  -1.260058  -0.650833
H    1.947126  -3.020131  2.539491
H    0.719698  -4.093472  2.296364
H    -0.740537  -2.541663  1.446865
C    0.161842  -0.789828  2.308150
C    -0.719020  -0.901738  3.564645
C    -0.622867  0.216771  4.613780
C    -1.351313  1.521781  4.325683
N    -0.621006  2.384101  3.295674
H    -0.244236  -0.084737  1.562246
H    1.175519  -0.448000  2.579001
H    -0.423187  -1.833995  4.065320
H    -1.771924  -1.036397  3.267751
H    0.428489  0.422034  4.879763
H    -1.076727  -0.156165  5.544170
H    -1.434004  2.148724  5.221573
H    -2.358437  1.357905  3.921452
H    -1.136489  3.252046  3.093986
H    0.312521  2.648218  3.639580
O    1.825273  -2.899826  -0.136627
H    -0.492858  1.873886  2.411235
Ca    1.658421  -2.203953  -2.163391
