25
Energy: -32070.1874396 eV PBE+vdW (tier 2 basis)
N    1.740061  0.706627  1.568776
C    1.174800  -0.391789  2.431701
C    2.302568  -1.222045  2.948181
O    3.494950  -0.797604  2.913804
H    1.572338  0.454583  0.585214
H    1.145836  1.532621  1.712930
H    0.688962  0.136625  3.319745
C    -0.011242  -1.121716  1.771868
C    -0.828419  -2.077330  2.670151
C    -1.241108  -1.586835  4.073782
C    -1.873065  -0.191185  4.139636
N    -0.840075  0.880781  4.198248
H    0.321449  -1.662996  0.871862
H    -0.685320  -0.323763  1.427329
H    -0.339028  -3.069531  2.749976
H    -1.737305  -2.317827  2.099105
H    -0.395362  -1.618167  4.783912
H    -1.960764  -2.317357  4.467204
H    -2.541395  -0.138698  5.011194
H    -2.500727  -0.012654  3.255313
H    -1.266567  1.780112  3.964406
H    -0.520147  0.981283  5.165034
O    2.102554  -2.374441  3.519241
H    1.158766  -2.653202  3.460814
Ca    4.123457  0.977947  1.991379
