25
Energy: -32071.6561363 eV PBE+vdW (tier 2 basis)
N    0.851685  0.096524  0.375466
C    -0.073292  -0.293680  1.522061
C    0.783318  -0.977179  2.580004
O    0.333195  -1.057828  3.759622
H    0.368853  0.093327  -0.533405
H    1.258956  1.031817  0.512520
H    -0.500583  0.628762  1.933354
C    -1.208003  -1.221579  1.041560
C    -0.815811  -2.539392  0.321206
C    -1.040759  -3.886229  1.047199
C    0.084102  -4.469847  1.916625
N    0.028130  -4.112541  3.391732
H    -1.847207  -0.616135  0.381832
H    -1.831636  -1.417212  1.925404
H    0.225600  -2.513151  -0.041284
H    -1.422849  -2.582197  -0.591698
H    -1.215186  -4.630180  0.257607
H    -1.985139  -3.864356  1.615832
H    1.062409  -4.165475  1.514586
H    0.049807  -5.563096  1.848706
H    -0.842993  -3.598243  3.564263
H    -0.103307  -4.984570  3.914028
O    1.876077  -1.536730  2.213886
H    1.633346  -0.585555  0.357384
Ca    1.797288  -2.686254  4.188507
