25
Energy: -32069.7246511 eV PBE+vdW (tier 2 basis)
N    -0.187557  0.700204  0.720470
C    0.272398  0.029885  1.987986
C    1.762139  -0.271592  1.835589
O    2.428161  0.251527  0.913458
H    -0.649119  -0.017486  0.144670
H    -0.951513  1.340000  0.963673
H    0.215148  0.788976  2.789875
C    -0.582130  -1.184847  2.403774
C    -2.054314  -0.850717  2.686166
C    -2.813890  -2.057887  3.248516
C    -4.292269  -1.750920  3.540209
N    -4.943095  -2.898997  4.133205
H    -0.157031  -1.614233  3.328121
H    -0.498226  -1.972425  1.635951
H    -2.554177  -0.506523  1.764736
H    -2.105859  -0.014014  3.403613
H    -2.342924  -2.399040  4.182632
H    -2.751260  -2.900004  2.540187
H    -4.782553  -1.405437  2.606274
H    -4.360016  -0.917854  4.255040
H    -5.773194  -2.681887  4.677440
H    -5.131670  -3.667529  3.493543
O    2.393390  -1.039907  2.675772
H    1.807558  -1.438682  3.352305
Ca    1.707816  1.623856  -0.560997
