25
Energy: -32069.7052231 eV PBE+vdW (tier 2 basis)
N    0.337524  0.609536  0.355619
C    0.165630  0.338101  1.828207
C    1.547906  0.417297  2.475787
O    2.509604  0.935241  1.860839
H    -0.523130  1.052668  0.015356
H    0.346780  -0.300836  -0.124526
H    -0.385737  1.198195  2.250398
C    -0.642608  -0.945600  2.119392
C    -1.068832  -1.144333  3.590387
C    -2.271383  -2.090714  3.755617
C    -1.996952  -3.551823  3.375083
N    -3.192179  -4.345457  3.572037
H    -0.082829  -1.819611  1.750877
H    -1.558147  -0.876542  1.511668
H    -1.335688  -0.172816  4.037616
H    -0.244781  -1.581889  4.192786
H    -3.120601  -1.714239  3.165493
H    -2.587912  -2.048277  4.808239
H    -1.118505  -3.915806  3.951054
H    -1.725030  -3.630484  2.310739
H    -3.156063  -5.264704  3.138106
H    -3.474737  -4.439544  4.546140
O    1.746028  0.002223  3.687954
H    0.940059  -0.426034  4.071289
Ca    2.463792  1.765715  -0.106893
