25
Energy: -32069.1351962 eV PBE+vdW (tier 2 basis)
N    0.009307  -0.823616  0.654825
C    0.001027  -0.227067  1.989060
C    1.504103  -0.117039  2.063693
O    2.142296  0.911375  1.612287
H    -0.389374  -1.807506  0.580308
H    -0.336943  -0.208076  -0.076219
H    -0.417835  0.788844  1.986850
C    -0.676319  -1.050106  3.090166
C    -0.305051  -2.556554  3.161989
C    -1.497176  -3.517961  2.991798
C    -2.268241  -3.356357  1.679710
N    -1.360913  -3.332742  0.509500
H    -1.756410  -0.942497  2.917398
H    -0.487157  -0.560061  4.056163
H    0.174569  -2.779866  4.126373
H    0.415030  -2.835227  2.368121
H    -2.199760  -3.387824  3.827695
H    -1.119640  -4.548447  3.073559
H    -2.830847  -2.410602  1.672320
H    -3.019089  -4.158773  1.613519
H    -1.911440  -3.289236  -0.350880
H    -0.834329  -4.208585  0.451294
O    2.272331  -1.069179  2.529667
H    1.724672  -1.819202  2.868408
Ca    3.648536  2.112189  1.063170
