25
Energy: -32069.8403099 eV PBE+vdW (tier 2 basis)
N    0.238338  0.278044  0.173874
C    -0.313884  -0.037026  1.533756
C    0.723466  0.350253  2.566647
O    1.936938  0.411786  2.250853
H    -0.083579  1.212281  -0.107652
H    -0.232307  -0.358301  -0.484576
H    -1.250581  0.515452  1.706805
C    -0.593814  -1.562220  1.657894
C    -1.671399  -2.077033  0.700529
C    -3.065675  -1.471609  0.887187
C    -4.141960  -2.332737  0.198363
N    -4.120057  -3.690834  0.731265
H    -0.897816  -1.771350  2.694524
H    0.356772  -2.105529  1.505502
H    -1.764836  -3.163459  0.870045
H    -1.352307  -1.987136  -0.355724
H    -3.132577  -0.443406  0.494408
H    -3.299591  -1.415125  1.964302
H    -3.932351  -2.383375  -0.880089
H    -5.117968  -1.828435  0.304157
H    -4.643867  -3.778602  1.601401
H    -4.493634  -4.373152  0.075162
O    0.413205  0.555012  3.814625
H    -0.547289  0.508821  4.000032
Ca    2.682433  0.199156  0.265600
