25
Energy: -32071.7082988 eV PBE+vdW (tier 2 basis)
N    -0.077906  -1.253543  -0.219529
C    -0.073815  -0.455404  1.019383
C    1.323941  0.031975  1.406611
O    1.450711  0.940571  2.306618
H    -1.516723  -2.000744  -0.585469
H    0.206056  -0.676439  -1.015966
H    -0.664204  0.457984  0.845596
C    -0.701750  -1.214824  2.216450
C    -2.238278  -1.161904  2.357671
C    -3.128854  -2.208370  1.660887
C    -3.525123  -1.985936  0.202380
N    -2.484126  -2.485717  -0.770985
H    -0.290382  -0.764058  3.129007
H    -0.341089  -2.256705  2.204992
H    -2.595610  -0.149009  2.110793
H    -2.438435  -1.274823  3.431847
H    -4.078616  -2.229662  2.213966
H    -2.713230  -3.222388  1.789317
H    -3.680983  -0.922373  -0.021005
H    -4.456328  -2.515515  -0.030731
H    -2.364371  -3.501475  -0.676971
H    -2.768858  -2.306581  -1.741333
O    2.373804  -0.462534  0.852201
H    0.635304  -1.986857  -0.152651
Ca    3.598865  0.866331  2.085919
