25
Energy: -32070.1514251 eV PBE+vdW (tier 2 basis)
N    -0.200333  0.675539  1.083490
C    -0.374012  -0.552010  1.935869
C    0.586691  -0.479357  3.073642
O    1.143520  0.611352  3.392912
H    0.341912  0.407481  0.250875
H    -1.122705  0.913451  0.699141
H    -1.423347  -0.523511  2.415400
C    -0.395640  -1.883957  1.163026
C    -1.389951  -1.938784  -0.014068
C    -2.837021  -1.467481  0.229722
C    -3.521943  -1.978795  1.501765
N    -3.173648  -1.138265  2.680587
H    -0.679884  -2.671489  1.882634
H    0.611413  -2.142806  0.798954
H    -1.408163  -2.986797  -0.345990
H    -0.979179  -1.386221  -0.874308
H    -3.426646  -1.779972  -0.643243
H    -2.906545  -0.363403  0.223242
H    -3.213679  -3.012216  1.714933
H    -4.610046  -2.006631  1.346457
H    -3.806474  -0.335910  2.722242
H    -3.344190  -1.655404  3.546018
O    0.834523  -1.506913  3.839045
H    0.408639  -2.327405  3.515648
Ca    0.975768  2.410450  2.327266
