25
Energy: -32071.4835636 eV PBE+vdW (tier 2 basis)
N    -0.504901  -1.297965  0.816750
C    0.502640  -0.447457  1.410570
C    1.865009  -0.435807  0.709281
O    2.693483  0.531828  0.917898
H    -2.125196  -1.092395  6.071757
H    -0.775954  -0.984157  -0.113932
H    0.154842  0.597075  1.356727
C    0.734656  -0.809964  2.904353
C    -0.564606  -0.940287  3.717124
C    -1.385731  0.351826  3.819361
C    -2.744016  0.191024  4.488425
N    -2.623617  -0.198738  5.961012
H    1.401419  -0.059443  3.352284
H    1.261926  -1.775029  2.956769
H    -0.268579  -1.297882  4.718530
H    -1.187419  -1.724528  3.262798
H    -1.616405  0.725533  2.810637
H    -0.812315  1.153444  4.314047
H    -3.342886  -0.599751  4.019059
H    -3.321781  1.122592  4.475212
H    -3.549622  -0.302346  6.398783
H    -2.105567  0.513688  6.494091
O    2.197490  -1.382285  -0.097817
H    -0.190371  -2.265349  0.731936
Ca    4.054499  -0.356629  -0.498655
