25
Energy: -32070.3606415 eV PBE+vdW (tier 2 basis)
N    0.544078  -0.162036  0.308495
C    -0.144713  -0.128938  1.642472
C    0.858329  0.282018  2.711069
O    2.090032  0.272424  2.475621
H    0.250510  -1.058796  -0.252080
H    0.157318  0.598625  -0.262099
H    -0.946125  0.628456  1.625163
C    -0.773261  -1.495971  2.006311
C    -1.966979  -1.853223  1.088457
C    -1.899176  -3.253990  0.462203
C    -0.612896  -3.571236  -0.302531
N    -0.202115  -2.448320  -1.195553
H    -1.095566  -1.479827  3.056696
H    0.017787  -2.261093  1.957500
H    -2.059500  -1.101228  0.290107
H    -2.897445  -1.770863  1.664121
H    -2.761959  -3.362154  -0.212196
H    -2.030788  -4.024521  1.235464
H    -0.753824  -4.503465  -0.867730
H    0.221494  -3.758351  0.391436
H    0.509383  -2.792032  -1.846241
H    -0.992814  -2.197280  -1.798481
O    0.484132  0.628875  3.910334
H    -0.486344  0.628047  4.040129
Ca    2.902565  0.034623  0.520624
