25
Energy: -32070.4989163 eV PBE+vdW (tier 2 basis)
N    0.199219  0.755975  0.179371
C    -0.123479  0.454574  1.635045
C    1.060251  -0.286431  2.247437
O    0.972638  -0.707075  3.447003
H    -0.261873  1.619101  -0.135801
H    -0.148766  -0.027193  -0.411990
H    -0.176773  1.424209  2.155523
C    -1.466063  -0.280974  1.766330
C    -1.561390  -1.660506  1.103463
C    -1.535331  -1.711617  -0.434570
C    -2.217837  -2.994027  -0.974884
N    -3.599077  -3.046727  -0.517191
H    -2.252403  0.386474  1.378971
H    -1.658339  -0.366513  2.845020
H    -2.536948  -2.082027  1.393380
H    -0.800056  -2.342341  1.519218
H    -0.506355  -1.705650  -0.852452
H    -2.082521  -0.847219  -0.854418
H    -1.681902  -3.869505  -0.580132
H    -2.098092  -3.020568  -2.070987
H    -4.236270  -2.582483  -1.163084
H    -3.927581  -4.003280  -0.405875
O    2.145080  -0.444770  1.576294
H    1.218077  0.838658  0.036827
Ca    3.035163  -1.406423  3.380535
