25
Energy: -32071.2873454 eV PBE+vdW (tier 2 basis)
N    1.339063  0.669896  -0.386454
C    0.315849  0.064215  0.475066
C    0.985264  0.189421  1.844139
O    1.942148  -0.612428  2.169088
H    -5.154085  -2.105712  -0.784789
H    1.969105  -0.026696  -0.782316
H    -0.551208  0.738590  0.491008
C    -0.085724  -1.372009  0.103256
C    -1.319072  -1.944458  0.825919
C    -2.659332  -1.492956  0.213594
C    -3.833454  -2.198235  0.880516
N    -5.156528  -1.839614  0.210376
H    0.775299  -2.028092  0.295825
H    -0.250898  -1.395546  -0.984793
H    -1.293334  -1.688313  1.897753
H    -1.265350  -3.042098  0.778918
H    -2.652576  -1.729654  -0.863326
H    -2.780266  -0.401154  0.303477
H    -3.945482  -1.924839  1.937048
H    -3.750193  -3.290219  0.811910
H    -5.950974  -2.319767  0.656892
H    -5.340355  -0.827415  0.255794
O    0.718160  1.189063  2.610589
H    0.938734  1.225065  -1.138832
Ca    2.626209  0.880953  3.559342
