25
Energy: -32071.3529911 eV PBE+vdW (tier 2 basis)
N    0.115014  1.759780  1.417201
C    1.154216  0.747783  1.555912
C    1.184679  -0.173584  0.352723
O    1.773060  -1.319880  0.409620
H    -2.421151  0.282000  6.015493
H    0.376588  2.611537  1.913007
H    2.183700  1.174099  1.513309
C    1.069629  0.014249  2.912494
C    -0.319420  -0.539222  3.252926
C    -0.382970  -1.056661  4.697232
C    -1.750955  -1.542963  5.155700
N    -2.737945  -0.386140  5.298826
H    1.365013  0.743266  3.682691
H    1.825124  -0.782871  2.938938
H    -0.585648  -1.356003  2.562128
H    -1.046033  0.271269  3.070533
H    -0.012777  -0.290125  5.399424
H    0.299866  -1.910596  4.821759
H    -1.709387  -2.021982  6.140930
H    -2.209620  -2.242770  4.445765
H    -3.673844  -0.715415  5.572883
H    -2.831498  0.132408  4.414145
O    0.710988  0.225572  -0.778856
H    -0.021906  2.012396  0.438432
Ca    1.613276  -1.481146  -1.738215
