25
Energy: -32071.3620878 eV PBE+vdW (tier 2 basis)
N    -0.670601  0.285890  -0.368589
C    -0.497310  -0.083414  1.085629
C    0.924443  0.365311  1.533189
O    1.296496  1.518287  0.997417
H    -0.234519  -0.451196  -0.936616
H    -1.666208  0.225177  -0.606726
H    -1.209819  0.550353  1.640218
C    -0.769334  -1.556770  1.411490
C    -1.082588  -1.778326  2.910427
C    -0.543441  -3.092881  3.503317
C    0.950276  -3.020391  3.801211
N    1.430667  -4.307427  4.465652
H    0.109779  -2.141544  1.100873
H    -1.616764  -1.917361  0.810281
H    -2.170794  -1.763680  3.053762
H    -0.685768  -0.944757  3.506723
H    -0.759329  -3.933028  2.822783
H    -1.087269  -3.296875  4.439446
H    1.191879  -2.209628  4.498646
H    1.568862  -2.881839  2.907742
H    1.275392  -5.126009  3.860753
H    2.436044  -4.267557  4.683868
O    1.589606  -0.301160  2.301041
H    0.928413  -4.481674  5.347967
Ca    0.539886  2.403496  -0.650506
