25
Energy: -32069.697707 eV PBE+vdW (tier 2 basis)
N    0.281393  0.210712  0.234605
C    0.330151  -0.162241  1.689463
C    1.646274  -0.878155  1.944929
O    2.263716  -1.425558  1.003584
H    -0.710604  0.231331  -0.035261
H    0.581599  1.188511  0.136634
H    0.273005  0.743597  2.314531
C    -0.841197  -1.106358  2.065903
C    -2.220349  -0.432990  1.983055
C    -3.377569  -1.385945  2.322112
C    -3.471957  -1.784923  3.802658
N    -4.587503  -2.688318  4.000553
H    -0.668738  -1.474667  3.087664
H    -0.805498  -1.998917  1.416476
H    -2.399417  -0.039491  0.966863
H    -2.239317  0.440759  2.654662
H    -3.319054  -2.299449  1.710353
H    -4.314384  -0.887404  2.031316
H    -3.529061  -0.863658  4.420216
H    -2.562572  -2.318456  4.121507
H    -4.569269  -3.180207  4.890758
H    -5.500445  -2.255980  3.870372
O    2.140823  -0.998201  3.144853
H    1.628891  -0.532241  3.837301
Ca    1.775689  -1.242816  -1.076224
