25
Energy: -32070.4702387 eV PBE+vdW (tier 2 basis)
N    -0.349401  0.762045  0.969738
C    -0.623924  0.021228  2.269987
C    0.708173  -0.244481  2.965046
O    0.721879  -0.939200  4.033105
H    -0.137222  0.070235  0.221401
H    -1.167293  1.311684  0.675493
H    -1.166990  0.726810  2.919603
C    -1.497277  -1.224477  2.038404
C    -0.854499  -2.397212  1.282155
C    -0.338223  -2.096034  -0.131429
C    0.034674  -3.348030  -0.946005
N    0.650206  -2.951728  -2.207297
H    -2.412810  -0.889032  1.524927
H    -1.825343  -1.556028  3.033166
H    -1.622692  -3.181705  1.219594
H    -0.045955  -2.835461  1.889073
H    0.593969  -1.493324  -0.116536
H    -1.098303  -1.534966  -0.707386
H    -0.866500  -3.981463  -1.048185
H    0.766119  -3.937055  -0.372961
H    1.234191  -3.696821  -2.583632
H    -0.049882  -2.747128  -2.920393
O    1.792035  0.267718  2.502810
H    0.466195  1.386779  1.062014
Ca    2.869758  -0.600369  4.246525
