25
Energy: -32071.298196 eV PBE+vdW (tier 2 basis)
N    -0.776786  0.630957  3.661922
C    -0.660766  -0.333043  2.559535
C    0.811275  -0.158830  2.189302
O    1.698834  -0.937141  2.702199
H    -3.631542  -3.962480  -2.090351
H    -1.370104  0.292001  4.415616
H    -0.758237  -1.342961  2.980764
C    -1.653561  -0.125168  1.406585
C    -1.689159  -1.247734  0.357580
C    -2.709159  -0.943538  -0.751570
C    -2.845428  -1.995761  -1.844169
N    -3.546663  -3.257896  -1.344214
H    -1.432848  0.835161  0.914362
H    -2.650147  -0.022134  1.862861
H    -1.928325  -2.197260  0.869960
H    -0.693740  -1.383426  -0.095966
H    -2.418830  -0.015594  -1.267039
H    -3.701178  -0.730535  -0.318211
H    -1.875208  -2.326361  -2.236132
H    -3.454204  -1.634737  -2.681464
H    -3.034858  -3.691450  -0.563791
H    -4.497435  -3.044707  -1.010351
O    1.194604  0.870597  1.512506
H    -1.117775  1.538332  3.347420
Ca    3.133242  0.637706  2.436645
