25
Energy: -32071.2627255 eV PBE+vdW (tier 2 basis)
N    2.486212  -2.062810  2.219313
C    1.089432  -1.989343  1.817824
C    1.019735  -1.900629  0.304190
O    0.056414  -1.302503  -0.309802
H    3.013128  -2.702745  1.625589
H    2.572075  -2.394034  3.179545
H    0.508812  -2.922380  2.025889
C    0.390721  -0.838591  2.575820
C    -1.144715  -0.879404  2.591913
C    -1.785122  -0.143955  3.785629
C    -1.527707  1.357573  3.786910
N    -2.227261  2.020587  4.969971
H    0.774243  0.117199  2.190157
H    0.762448  -0.917607  3.610004
H    -1.481568  -1.924729  2.656913
H    -1.554390  -0.490763  1.649102
H    -1.406889  -0.581709  4.724617
H    -2.871916  -0.324584  3.763527
H    -1.920870  1.849393  2.888222
H    -0.465417  1.610370  3.888811
H    -2.070570  3.038160  4.989325
H    -3.244665  1.862241  4.937159
O    1.932674  -2.484042  -0.396446
H    -1.889385  1.636922  5.864312
Ca    0.954578  -1.891615  -2.201492
