25
Energy: -32068.8561086 eV PBE+vdW (tier 2 basis)
N    -0.119941  0.567438  0.168653
C    0.169191  0.042517  1.502105
C    1.675263  -0.173883  1.362581
O    2.511857  0.766206  1.500453
H    -0.497136  -0.131841  -0.469011
H    -0.718207  1.389502  0.174475
H    0.040482  0.845683  2.241300
C    -0.616708  -1.197386  1.941572
C    -0.311100  -1.671692  3.371518
C    -1.001424  -2.987246  3.760993
C    -2.529866  -2.895103  3.885848
N    -3.087809  -4.162211  4.291509
H    -0.468416  -2.025005  1.216684
H    -1.679428  -0.935341  1.835973
H    -0.597109  -0.876620  4.079063
H    0.775836  -1.810018  3.501110
H    -0.589127  -3.315580  4.727013
H    -0.752953  -3.780631  3.038848
H    -2.991194  -2.626150  2.923954
H    -2.782363  -2.075504  4.593154
H    -2.787578  -4.519606  5.195365
H    -4.086970  -4.280949  4.151103
O    2.164173  -1.326382  0.988698
H    1.461335  -2.012375  0.953502
Ca    4.112305  2.035251  1.206267
