25
Energy: -32069.7564461 eV PBE+vdW (tier 2 basis)
N    1.037046  0.167252  0.510499
C    0.627264  -0.353061  1.864503
C    1.859694  -0.966027  2.518584
O    3.005965  -0.744595  2.058290
H    0.735598  -0.527144  -0.187092
H    0.456658  0.986631  0.299653
H    0.387944  0.524659  2.492127
C    -0.622557  -1.262689  1.801084
C    -1.280364  -1.640029  3.144798
C    -1.602413  -0.465963  4.074478
C    -2.401132  -0.887599  5.321257
N    -2.593563  0.249554  6.203713
H    -0.377400  -2.173745  1.231520
H    -1.367602  -0.709052  1.209626
H    -0.707618  -2.428273  3.680189
H    -2.207717  -2.175551  2.889730
H    -2.177908  0.292198  3.517871
H    -0.691298  0.042910  4.435721
H    -1.836941  -1.654987  5.872021
H    -3.345324  -1.366448  4.996678
H    -3.355322  0.861603  5.915737
H    -2.744790  -0.019606  7.173222
O    1.759781  -1.684432  3.593057
H    0.817155  -1.847488  3.843143
Ca    3.475272  0.442024  0.352945
