25
Energy: -32069.8223181 eV PBE+vdW (tier 2 basis)
N    0.402398  0.357009  0.141021
C    0.145000  -0.131993  1.543229
C    1.497699  -0.286703  2.233172
O    2.530570  0.220899  1.737159
H    0.341878  -0.460732  -0.481288
H    -0.403392  0.926918  -0.139831
H    -0.358686  0.691807  2.081527
C    -0.757541  -1.379979  1.617444
C    -2.146350  -1.169201  1.001700
C    -3.093798  -2.346531  1.264792
C    -4.524714  -2.056081  0.786894
N    -5.088106  -0.904380  1.485901
H    -0.901622  -1.642859  2.680806
H    -0.239733  -2.238050  1.155955
H    -2.065102  -1.021094  -0.088984
H    -2.610953  -0.258269  1.414833
H    -3.115499  -2.564016  2.345730
H    -2.727443  -3.258874  0.770505
H    -5.123105  -2.976439  0.909115
H    -4.517077  -1.832376  -0.289908
H    -5.873162  -0.491495  0.986308
H    -5.405257  -1.137533  2.426570
O    1.616755  -0.911146  3.367020
H    0.777289  -1.313555  3.675175
Ca    2.636017  1.351228  -0.070717
