25
Energy: -32070.3726371 eV PBE+vdW (tier 2 basis)
N    0.126712  -0.419216  -0.027124
C    -0.117765  -0.118643  1.450290
C    1.238724  0.200979  2.074446
O    1.300621  0.525842  3.300510
H    -0.146517  -1.385458  -0.255453
H    -0.400736  0.204630  -0.650357
H    -0.732515  0.792339  1.498821
C    -0.846296  -1.276783  2.147136
C    -2.239269  -1.562534  1.563787
C    -2.966940  -2.710560  2.279645
C    -3.460218  -2.370207  3.692372
N    -4.082565  -3.536231  4.292653
H    -0.922227  -0.996891  3.206628
H    -0.215225  -2.181419  2.109639
H    -2.162198  -1.830407  0.495045
H    -2.848717  -0.644426  1.606652
H    -2.323125  -3.602113  2.330634
H    -3.831666  -2.997300  1.662828
H    -4.124868  -1.482561  3.635711
H    -2.615591  -2.084484  4.339673
H    -4.947064  -3.815197  3.830834
H    -4.264811  -3.427143  5.287702
O    2.299739  0.136663  1.350837
H    1.143302  -0.303954  -0.209243
Ca    3.483300  0.763984  3.162333
