25
Energy: -32069.7506636 eV PBE+vdW (tier 2 basis)
N    -0.096020  0.388381  0.666344
C    0.173118  -0.008243  2.091654
C    1.647872  -0.343837  2.213529
O    2.308416  -0.677654  1.200459
H    -1.075084  0.146113  0.468121
H    -0.079393  1.413663  0.602846
H    -0.077501  0.822931  2.770454
C    -0.666819  -1.251302  2.492174
C    -2.176187  -0.982550  2.564682
C    -2.951911  -2.233544  2.994362
C    -4.467430  -1.984338  3.119575
N    -5.151262  -3.211613  3.463700
H    -0.316135  -1.601534  3.474605
H    -0.447159  -2.072485  1.787135
H    -2.568360  -0.644601  1.587650
H    -2.364497  -0.158240  3.271595
H    -2.564340  -2.589456  3.962352
H    -2.795633  -3.051941  2.275858
H    -4.863179  -1.633203  2.155334
H    -4.639336  -1.166683  3.847671
H    -5.073842  -3.484563  4.440734
H    -6.122053  -3.251402  3.166692
O    2.257101  -0.364811  3.367100
H    1.699740  -0.077515  4.118608
Ca    1.628726  -0.558959  -0.817878
