25
Energy: -32071.2000689 eV PBE+vdW (tier 2 basis)
N    -1.270977  0.351746  2.730657
C    -0.372222  -0.701368  2.273168
C    1.020211  -0.087158  2.413456
O    1.795474  -0.459684  3.369951
H    -3.561101  -2.401521  -2.989870
H    -2.098301  0.014163  3.212649
H    -0.409032  -1.509149  3.017041
C    -0.608290  -1.304324  0.870445
C    -1.926773  -2.105151  0.776738
C    -3.146521  -1.335077  0.235378
C    -3.201991  -1.174730  -1.279653
N    -3.558908  -2.492551  -1.964386
H    0.235480  -1.972312  0.640968
H    -0.568190  -0.498903  0.119240
H    -2.185673  -2.495516  1.771651
H    -1.748862  -3.012769  0.174366
H    -3.170908  -0.320709  0.656681
H    -4.081424  -1.806694  0.580101
H    -2.243414  -0.860984  -1.712190
H    -3.974516  -0.462151  -1.591245
H    -2.890513  -3.236126  -1.717646
H    -4.494798  -2.814564  -1.678917
O    1.396640  0.869098  1.633048
H    -1.510924  1.037223  2.019001
Ca    3.090531  1.197211  2.939367
