25
Energy: -32071.4456295 eV PBE+vdW (tier 2 basis)
N    0.466257  -0.513444  -0.161196
C    0.033049  -0.030851  1.165905
C    1.206393  0.462826  1.992049
O    0.968327  0.959342  3.154651
H    1.433961  -1.876332  -0.137348
H    -0.367394  -0.714426  -0.721085
H    -0.585078  0.882982  1.075238
C    -0.857618  -1.066036  1.908954
C    -0.505655  -2.544892  1.711092
C    0.909247  -3.006569  2.140817
C    1.687652  -3.705384  1.031456
N    2.140597  -2.718232  -0.027999
H    -1.889323  -0.915447  1.563318
H    -0.861562  -0.800480  2.974490
H    -0.682631  -2.825779  0.661179
H    -1.253518  -3.119930  2.272345
H    0.834018  -3.719917  2.972035
H    1.509673  -2.172677  2.540897
H    1.060418  -4.449676  0.525995
H    2.580107  -4.219658  1.406811
H    3.038958  -2.297314  0.232086
H    2.277860  -3.176566  -0.935992
O    2.411802  0.492375  1.533506
H    0.964830  0.226493  -0.662413
Ca    2.959625  1.747581  3.269563
