25
Energy: -32071.6822017 eV PBE+vdW (tier 2 basis)
N    0.319219  0.991238  0.766587
C    0.257756  0.254717  2.096686
C    1.145422  -0.979038  1.961663
O    1.644494  -1.499286  3.000651
H    -0.520440  1.565989  0.607473
H    1.140832  1.608667  0.700146
H    0.633618  0.928997  2.875374
C    -1.195104  -0.181853  2.381446
C    -1.409466  -0.840612  3.771877
C    -1.946544  -2.287002  3.802951
C    -0.954510  -3.453251  3.734154
N    -0.486816  -3.842829  2.337967
H    -1.528678  -0.844870  1.567278
H    -1.822593  0.719940  2.314673
H    -2.135781  -0.219304  4.309160
H    -0.487567  -0.783576  4.368268
H    -2.743320  -2.426302  3.052821
H    -2.456805  -2.405636  4.769788
H    -1.425356  -4.338558  4.177555
H    -0.072222  -3.223066  4.349805
H    -0.770658  -4.815986  2.183445
H    -1.052298  -3.327720  1.655090
O    1.238251  -1.518749  0.802972
H    0.398946  0.279432  0.015937
Ca    1.851421  -3.426417  1.890220
