25
Energy: -32071.3379139 eV PBE+vdW (tier 2 basis)
N    2.166377  -2.629695  1.845913
C    0.787582  -2.155502  1.702515
C    0.629399  -2.137270  0.182430
O    0.100083  -3.145459  -0.417599
H    2.284143  -3.271798  2.625497
H    2.838127  -1.868183  1.924273
H    0.117296  -2.945444  2.067824
C    0.468942  -0.822934  2.401231
C    -1.004439  -0.403241  2.300473
C    -1.357098  0.919684  3.010248
C    -1.298957  0.816999  4.530440
N    -1.755600  2.118748  5.180617
H    1.114208  -0.035212  1.980317
H    0.771677  -0.955582  3.451637
H    -1.653861  -1.205865  2.685581
H    -1.279396  -0.276950  1.242879
H    -2.376471  1.211226  2.710250
H    -0.679973  1.717650  2.663674
H    -0.287577  0.632683  4.911562
H    -1.966043  0.036573  4.917979
H    -1.160241  2.909381  4.895293
H    -2.721851  2.351680  4.909466
O    1.158093  -1.193283  -0.521367
H    -1.726673  2.063159  6.208719
Ca    1.076254  -2.526365  -2.221852
