25
Energy: -32071.6201078 eV PBE+vdW (tier 2 basis)
N    0.349635  0.472955  0.261295
C    0.066783  0.076827  1.692772
C    1.203120  -0.851301  2.202036
O    2.326028  -0.760150  1.535337
H    -0.130368  -0.205626  -0.344430
H    -0.141965  1.352804  0.070707
H    0.164061  1.000372  2.288614
C    -1.354765  -0.483053  1.870083
C    -1.809673  -0.639878  3.342361
C    -2.170649  -2.086658  3.749807
C    -1.801048  -2.426886  5.188854
N    -0.307672  -2.707462  5.292382
H    -1.419858  -1.451131  1.348092
H    -2.044694  0.192890  1.345242
H    -2.680385  0.002747  3.522077
H    -1.024648  -0.248108  4.004344
H    -1.689689  -2.813742  3.077024
H    -3.249319  -2.254155  3.635148
H    -2.320046  -3.318901  5.556498
H    -2.020007  -1.599580  5.874668
H    0.056698  -2.535506  6.236742
H    -0.108102  -3.689075  5.063965
O    1.054134  -1.575327  3.181328
H    0.231108  -2.132939  4.593750
Ca    2.748493  0.327471  -0.134691
