25
Energy: -32071.6629207 eV PBE+vdW (tier 2 basis)
N    -0.463179  -0.790143  0.265459
C    0.024736  -0.243303  1.557301
C    1.541824  -0.125404  1.575735
O    2.132729  0.284336  2.639643
H    -1.325669  -2.302188  0.278631
H    -1.097625  -0.116685  -0.168365
H    -0.316551  0.800014  1.677728
C    -0.505518  -1.033500  2.773556
C    -0.179590  -2.543549  2.730189
C    -1.395148  -3.484246  2.818335
C    -2.497640  -3.258472  1.787503
N    -1.943405  -3.195106  0.381533
H    -1.589855  -0.859915  2.812401
H    -0.106724  -0.572497  3.685195
H    0.491431  -2.800614  3.559503
H    0.394165  -2.779025  1.817405
H    -1.871084  -3.391713  3.805737
H    -1.046166  -4.526445  2.756432
H    -3.027654  -2.309594  1.938838
H    -3.240074  -4.063800  1.823512
H    -1.379836  -4.026477  0.166381
H    -2.700192  -3.153538  -0.311582
O    2.241037  -0.389989  0.526990
H    0.329472  -0.876754  -0.378981
Ca    4.021560  0.316498  1.596256
