25
Energy: -32069.7425566 eV PBE+vdW (tier 2 basis)
N    0.768564  -0.614488  0.536951
C    0.674813  -0.789402  2.032082
C    1.771963  -1.768464  2.449436
O    2.678175  -2.092265  1.645730
H    0.469615  0.343965  0.321882
H    0.012071  -1.180847  0.127587
H    0.967787  0.172462  2.491868
C    -0.738854  -1.159662  2.529734
C    -1.785143  -0.038853  2.468346
C    -2.244283  0.436430  1.084089
C    -3.591965  1.188937  1.171070
N    -4.629717  0.317983  1.703321
H    -0.668760  -1.476196  3.585057
H    -1.084364  -2.052605  1.980065
H    -1.438191  0.818808  3.067338
H    -2.685088  -0.423066  2.973813
H    -2.378329  -0.427084  0.407529
H    -1.514934  1.117822  0.609965
H    -3.829399  1.602469  0.175962
H    -3.475547  2.048131  1.846638
H    -5.103233  -0.225184  0.983824
H    -5.334887  0.820945  2.236349
O    1.832796  -2.258649  3.650753
H    1.077755  -1.992326  4.217266
Ca    2.915370  -1.377885  -0.346376
