25
Energy: -32071.4403283 eV PBE+vdW (tier 2 basis)
N    -0.977510  0.858452  0.103499
C    -0.648543  -0.087395  1.242102
C    0.771734  0.242153  1.768591
O    1.188960  1.458688  1.514806
H    -0.704784  0.386410  -0.768891
H    -1.998491  0.924157  0.028905
H    -1.330468  0.184591  2.066072
C    -0.899474  -1.556853  0.843182
C    -1.227524  -2.598204  1.936984
C    -0.043781  -3.280416  2.658515
C    0.258788  -2.737074  4.063239
N    1.747683  -2.540888  4.258093
H    -0.055879  -1.914298  0.231115
H    -1.773900  -1.540687  0.174366
H    -1.799607  -3.387246  1.432860
H    -1.929092  -2.168217  2.669488
H    0.851651  -3.194497  2.026182
H    -0.250970  -4.354623  2.741546
H    -0.088592  -3.409044  4.855811
H    -0.183787  -1.749425  4.230582
H    2.276166  -3.400284  4.061832
H    2.037750  -1.793601  3.591577
O    1.411780  -0.582517  2.408068
H    1.978666  -2.244416  5.214737
Ca    0.339224  2.889235  0.340739
