25
Energy: -32071.3067831 eV PBE+vdW (tier 2 basis)
N    -0.101053  0.870070  0.186806
C    0.146517  0.051811  1.369477
C    1.647610  0.203689  1.626682
O    2.505256  -0.345480  0.834288
H    -4.393363  -2.604360  -1.706958
H    -0.013485  0.373283  -0.695334
H    -0.345745  0.537655  2.223235
C    -0.255605  -1.435062  1.319757
C    -1.765628  -1.722531  1.413920
C    -2.563651  -1.592820  0.101651
C    -3.996268  -2.068536  0.313775
N    -4.810993  -2.012731  -0.974689
H    0.223415  -1.940443  2.172725
H    0.176256  -1.900536  0.419597
H    -2.216713  -1.077060  2.184558
H    -1.882405  -2.753316  1.781298
H    -2.081271  -2.203872  -0.679257
H    -2.562317  -0.550952  -0.253672
H    -4.538474  -1.450559  1.040414
H    -4.038057  -3.112494  0.649240
H    -5.776538  -2.339579  -0.826029
H    -4.862692  -1.054120  -1.346825
O    2.068347  0.939953  2.595018
H    -0.950760  1.421730  0.226564
Ca    4.074618  0.722261  1.857759
