25
Energy: -32069.983637 eV PBE+vdW (tier 2 basis)
N    0.131224  -0.116273  0.229160
C    0.059003  -0.107825  1.735547
C    1.468569  0.007041  2.267269
O    2.448776  -0.351425  1.558720
H    -0.692631  -0.633447  -0.101389
H    -0.021748  0.841584  -0.110412
H    -0.552342  0.740220  2.082363
C    -0.584853  -1.421502  2.242432
C    -0.907113  -1.464020  3.744479
C    -1.883403  -2.599451  4.107078
C    -3.315066  -2.405598  3.597614
N    -3.402627  -2.474612  2.122792
H    0.055867  -2.278356  1.967501
H    -1.555224  -1.547969  1.710225
H    -1.368381  -0.505775  4.045448
H    0.009684  -1.588346  4.342132
H    -1.918235  -2.679254  5.202235
H    -1.483624  -3.563491  3.751786
H    -3.683463  -1.416638  3.907862
H    -3.965175  -3.147399  4.090151
H    -3.368398  -3.448680  1.814638
H    -4.303911  -2.113418  1.806673
O    1.719657  0.389861  3.486511
H    0.918603  0.643991  3.989847
Ca    2.322196  -0.921673  -0.470586
