25
Energy: -32069.798129 eV PBE+vdW (tier 2 basis)
N    -0.119618  1.002034  -0.600548
C    -0.478719  0.849726  0.851489
C    0.287152  1.900693  1.631974
O    1.360877  2.364072  1.175034
H    -0.297119  0.086328  -1.041196
H    -0.802779  1.629317  -1.044026
H    -1.562642  0.982777  0.996840
C    -0.063644  -0.551861  1.381458
C    -0.956927  -1.714540  0.934477
C    -1.009549  -2.052328  -0.560536
C    -1.575151  -3.477803  -0.784217
N    -0.746292  -4.465273  -0.104121
H    -0.058122  -0.514176  2.481460
H    0.987399  -0.733771  1.086707
H    -1.976708  -1.558062  1.319737
H    -0.570509  -2.615804  1.438779
H    0.009007  -2.029849  -0.995520
H    -1.646423  -1.351616  -1.131449
H    -1.672151  -3.654161  -1.867316
H    -2.592647  -3.514994  -0.370084
H    -1.294437  -5.210120  0.319347
H    -0.063818  -4.897998  -0.723253
O    -0.087126  2.298611  2.813026
H    -0.937205  1.917071  3.114771
Ca    2.123646  1.925540  -0.766103
