25
Energy: -32071.2702412 eV PBE+vdW (tier 2 basis)
N    1.554365  -2.260674  2.523033
C    0.479152  -1.962477  1.583238
C    1.168412  -1.963111  0.219549
O    1.981100  -1.015359  -0.106132
H    1.270617  -2.843034  3.304634
H    2.063336  -1.440468  2.843896
H    -0.198197  -2.827465  1.567917
C    -0.339497  -0.676542  1.825964
C    -1.238338  -0.780186  3.066800
C    -2.166852  0.431667  3.274715
C    -1.541962  1.661779  3.921945
N    -1.369543  1.467231  5.427600
H    -0.976303  -0.490132  0.945673
H    0.353477  0.178150  1.892026
H    -0.619421  -0.969085  3.962918
H    -1.874683  -1.671839  2.969082
H    -3.055938  0.135469  3.855195
H    -2.565686  0.759701  2.303434
H    -2.175069  2.549931  3.812277
H    -0.544164  1.896303  3.530782
H    -0.918761  2.280510  5.869624
H    -2.282123  1.331058  5.885792
O    1.010737  -2.958467  -0.580232
H    -0.796059  0.638369  5.636533
Ca    2.611400  -2.208329  -1.797262
