25
Energy: -32071.4887298 eV PBE+vdW (tier 2 basis)
N    1.411166  0.277641  1.450905
C    0.867731  -1.058543  1.301472
C    1.105343  -1.712451  -0.067784
O    1.536127  -1.018782  -1.062761
H    2.430551  0.277957  1.440399
H    1.105338  0.894225  0.696676
H    1.381847  -1.724737  2.015079
C    -0.645690  -1.113996  1.632783
C    -0.985802  -0.837599  3.111464
C    -0.942435  0.644077  3.519586
C    -1.122241  0.913922  5.004171
N    -2.525835  0.555828  5.500655
H    -1.014230  -2.115794  1.375500
H    -1.181819  -0.403349  0.982649
H    -0.298209  -1.415849  3.750672
H    -1.991589  -1.257777  3.285628
H    -1.677382  1.228689  2.940837
H    0.041738  1.054526  3.248615
H    -0.989160  1.975272  5.244328
H    -0.431714  0.327203  5.623495
H    -2.631667  0.750129  6.506014
H    -3.243762  1.099052  5.001301
O    0.890906  -2.974905  -0.228885
H    -2.733439  -0.441003  5.352870
Ca    1.603227  -2.820735  -2.255670
