25
Energy: -32069.6871933 eV PBE+vdW (tier 2 basis)
N    3.015466  0.450122  1.735118
C    1.843387  0.238430  2.656334
C    2.393880  -0.192149  4.016504
O    3.608002  -0.054074  4.287734
H    2.756798  1.178457  1.060155
H    3.098717  -0.400551  1.160189
H    1.395863  1.231525  2.842692
C    0.759424  -0.694500  2.085215
C    1.235258  -2.126300  1.790718
C    0.088457  -3.104078  1.489078
C    -0.688189  -2.815978  0.194522
N    -1.738468  -3.796574  0.021671
H    0.351062  -0.213692  1.184430
H    -0.095917  -0.714220  2.784479
H    1.801351  -2.518198  2.653568
H    1.932832  -2.129465  0.933062
H    -0.620610  -3.122887  2.331062
H    0.514056  -4.116602  1.428920
H    0.028550  -2.775177  -0.654144
H    -1.170972  -1.827860  0.242696
H    -2.455344  -3.530434  -0.648317
H    -1.408316  -4.738343  -0.180577
O    1.612100  -0.653728  4.948461
H    0.681508  -0.752571  4.657965
Ca    5.106298  0.756073  2.991259
