25
Energy: -32069.718127 eV PBE+vdW (tier 2 basis)
N    -0.287980  0.366866  0.633841
C    0.026781  0.134140  2.089259
C    1.542416  0.256952  2.251627
O    2.237172  0.765627  1.340953
H    -0.406381  -0.562755  0.206653
H    -1.240852  0.753388  0.591331
H    -0.375861  1.000718  2.647190
C    -0.604650  -1.152682  2.663905
C    -2.095392  -1.039458  3.025550
C    -3.048173  -0.672227  1.884478
C    -4.533467  -0.769104  2.279823
N    -5.379010  -0.329606  1.179949
H    -0.065874  -1.453910  3.578563
H    -0.431052  -1.974793  1.948122
H    -2.208537  -0.318346  3.851141
H    -2.391077  -2.014274  3.441222
H    -2.875282  -1.326070  1.011254
H    -2.901375  0.371747  1.548568
H    -4.717144  -0.113706  3.143021
H    -4.743557  -1.801513  2.617782
H    -5.575127  -1.071160  0.509401
H    -6.269924  0.044570  1.499109
O    2.149334  -0.095382  3.344969
H    1.553296  -0.507840  4.005260
Ca    1.517421  1.535898  -0.515270
