25
Energy: -32071.827413 eV PBE+vdW (tier 2 basis)
N    -0.233181  -1.000789  -0.746691
C    -0.365361  -0.355957  0.627929
C    1.022730  -0.358442  1.262186
O    1.902428  -1.169715  0.802931
H    -0.055119  -0.303944  -1.483003
H    0.587900  -1.636090  -0.714251
H    -0.722238  0.670807  0.483513
C    -1.330660  -1.135523  1.542326
C    -0.887803  -2.571058  1.927115
C    -0.912731  -2.864239  3.439516
C    0.111605  -2.147818  4.319209
N    1.550709  -2.571598  4.050204
H    -2.324399  -1.140674  1.070807
H    -1.444948  -0.504707  2.434901
H    0.114326  -2.796630  1.526669
H    -1.554178  -3.296599  1.442861
H    -0.812004  -3.950977  3.589414
H    -1.907306  -2.613009  3.838117
H    -0.121497  -2.366241  5.368648
H    0.049405  -1.056670  4.202894
H    1.974532  -2.769978  4.964007
H    1.522082  -3.498310  3.607461
O    1.210771  0.329914  2.306466
H    -1.074569  -1.530220  -1.011457
Ca    2.934508  -0.980533  2.830229
