25
Energy: -32068.8125196 eV PBE+vdW (tier 2 basis)
N    -0.081329  -0.036894  -0.136224
C    -0.118948  -0.041422  1.324982
C    1.328734  0.326680  1.637243
O    1.732516  1.528905  1.625428
H    -0.903304  0.388437  -0.557441
H    0.079480  -0.955831  -0.543834
H    -0.713056  0.823553  1.650521
C    -0.674015  -1.293645  2.034791
C    -0.031431  -2.659292  1.725334
C    -0.871934  -3.850648  2.224971
C    -2.109179  -4.150513  1.364213
N    -2.855802  -5.253081  1.920454
H    -1.736190  -1.328263  1.751708
H    -0.663898  -1.119740  3.122496
H    0.948969  -2.774024  2.235954
H    0.156966  -2.784973  0.645548
H    -1.189346  -3.678247  3.263658
H    -0.231122  -4.744356  2.241526
H    -1.781468  -4.340034  0.319355
H    -2.784338  -3.282761  1.324386
H    -3.807270  -5.362224  1.581678
H    -2.369627  -6.145885  1.961467
O    2.237001  -0.581780  1.850319
H    1.827587  -1.484118  1.890408
Ca    2.838481  3.242020  1.364242
