25
Energy: -32071.8177814 eV PBE+vdW (tier 2 basis)
N    0.313662  0.023173  -0.088050
C    -0.195545  0.071989  1.349294
C    0.427314  -1.129994  2.069974
O    0.406086  -2.256917  1.464315
H    -0.252054  0.622760  -0.706535
H    1.295286  0.325457  -0.168272
H    0.157878  1.009440  1.795436
C    -1.736501  -0.010156  1.306672
C    -2.502614  0.138239  2.638305
C    -2.296433  -0.922057  3.736441
C    -2.537170  -2.377189  3.312662
N    -1.705740  -3.328019  4.142530
H    -2.015605  -0.947232  0.798795
H    -2.082004  0.809285  0.655615
H    -3.566580  0.173841  2.363029
H    -2.281141  1.122851  3.074143
H    -2.978208  -0.672562  4.561643
H    -1.287577  -0.814489  4.157464
H    -2.261821  -2.553363  2.263708
H    -3.600932  -2.635351  3.404036
H    -2.098877  -4.270134  4.025062
H    -1.886838  -3.116852  5.132073
O    0.846079  -1.004080  3.257420
H    0.252903  -0.952971  -0.426499
Ca    0.656432  -3.224670  3.518736
