25
Energy: -32071.6256029 eV PBE+vdW (tier 2 basis)
N    1.506488  -1.689809  0.130601
C    0.435028  -0.869833  0.811312
C    1.025570  -0.121857  2.023141
O    2.127821  -0.624663  2.514720
H    1.059572  -2.504697  -0.305717
H    1.862847  -1.151546  -0.667420
H    0.063924  -0.111089  0.108486
C    -0.730055  -1.793470  1.235276
C    -1.837561  -1.140609  2.073464
C    -2.657942  -0.041257  1.359479
C    -3.138700  1.059102  2.301115
N    -2.015986  2.040180  2.607062
H    -0.316211  -2.636507  1.813773
H    -1.163189  -2.225315  0.318247
H    -1.396269  -0.751436  3.002446
H    -2.522902  -1.936373  2.395009
H    -3.546179  -0.484904  0.890696
H    -2.098187  0.420088  0.530175
H    -3.474736  0.649105  3.261048
H    -3.963521  1.640073  1.874174
H    -1.974457  2.776831  1.892895
H    -2.150950  2.507283  3.511525
O    0.451751  0.860504  2.489811
H    -1.068416  1.562901  2.603394
Ca    3.321364  -2.078556  1.728402
