25
Energy: -32070.4129563 eV PBE+vdW (tier 2 basis)
N    0.266738  -1.008661  0.481692
C    0.323599  -0.186591  1.722093
C    1.786950  0.116136  2.037222
O    2.687897  -0.648307  1.628430
H    -0.635297  -1.609305  0.505707
H    0.165365  -0.383916  -0.325787
H    -0.218072  0.763388  1.587795
C    -0.315171  -0.925024  2.931893
C    0.183887  -2.361604  3.228803
C    -0.758651  -3.533402  2.910534
C    -1.008862  -3.893420  1.446475
N    -1.777423  -2.871153  0.710786
H    -1.400135  -0.928517  2.765409
H    -0.163536  -0.294930  3.819071
H    0.427402  -2.420277  4.298096
H    1.181233  -2.550761  2.761766
H    -1.728185  -3.352578  3.402866
H    -0.356215  -4.430358  3.402621
H    -1.477292  -4.888439  1.394442
H    -0.028861  -4.028578  0.919459
H    -2.106542  -3.245577  -0.182819
H    -2.627350  -2.638167  1.230938
O    2.137653  1.127190  2.783600
H    1.393097  1.707065  3.043932
Ca    2.191425  -2.380954  0.438343
