25
Energy: -32071.2698207 eV PBE+vdW (tier 2 basis)
N    1.498344  -2.991494  2.881334
C    0.842851  -2.179210  1.882025
C    1.489399  -2.179127  0.491514
O    0.853949  -1.696999  -0.526332
H    1.495576  -3.982151  2.641739
H    2.469857  -2.717018  3.030976
H    -0.166372  -2.593571  1.717869
C    0.679297  -0.715827  2.395662
C    -0.669953  -0.071680  2.057065
C    -0.847304  1.353011  2.612296
C    -0.961402  1.488184  4.126985
N    -2.283943  0.929233  4.647179
H    1.499204  -0.079922  2.026867
H    0.815344  -0.796992  3.483897
H    -1.484617  -0.735100  2.402020
H    -0.796253  -0.021604  0.966473
H    -1.718447  1.835667  2.140423
H    0.013822  1.973003  2.320002
H    -0.940655  2.538211  4.441050
H    -0.174976  0.950097  4.670052
H    -2.356006  1.019451  5.670298
H    -3.084636  1.428304  4.234014
O    2.660346  -2.682160  0.312649
H    -2.388955  -0.067885  4.414508
Ca    2.466531  -2.361419  -1.806563
