25
Energy: -32071.8185044 eV PBE+vdW (tier 2 basis)
N    0.606333  -0.165693  0.031570
C    0.039936  -0.098458  1.441398
C    1.185385  -0.381206  2.411576
O    1.144439  0.152350  3.560313
H    1.278504  -0.953210  -0.008572
H    -0.132736  -0.318080  -0.669915
H    -0.331398  0.919826  1.604125
C    -1.102911  -1.140093  1.583468
C    -1.398218  -1.598727  3.029235
C    -0.615906  -2.870547  3.426792
C    -0.459426  -3.134982  4.922306
N    0.498578  -2.179142  5.593755
H    -0.850366  -2.026122  0.977882
H    -2.002125  -0.694074  1.137518
H    -2.472012  -1.809957  3.106586
H    -1.212760  -0.765556  3.722277
H    0.380144  -2.886312  2.947554
H    -1.128050  -3.742592  2.993842
H    -0.056578  -4.144641  5.070886
H    -1.434460  -3.100411  5.429500
H    0.000023  -1.296020  5.759003
H    0.667268  -2.539823  6.539965
O    2.072913  -1.237746  2.079197
H    1.113985  0.692294  -0.228578
Ca    2.473438  -1.455080  4.345320
