25
Energy: -32071.52274 eV PBE+vdW (tier 2 basis)
N    0.859075  1.476364  1.962213
C    1.277742  0.092008  2.040433
C    2.127837  -0.410447  0.869175
O    2.784397  -1.516859  0.974374
H    -3.620205  0.354311  6.174666
H    1.632161  2.121750  2.115934
H    1.923043  -0.030370  2.926362
C    0.052957  -0.842292  2.223902
C    -0.677144  -0.556682  3.543164
C    -1.999347  -1.325517  3.667722
C    -2.700260  -1.177896  5.011693
N    -3.168187  0.255509  5.255144
H    0.380327  -1.891114  2.192433
H    -0.632648  -0.688788  1.374357
H    -0.834962  0.534193  3.593838
H    -0.017026  -0.823300  4.384885
H    -1.821896  -2.405115  3.545801
H    -2.691739  -1.049486  2.854797
H    -2.041408  -1.423492  5.854248
H    -3.599676  -1.801165  5.078190
H    -3.848036  0.550573  4.540422
H    -2.378235  0.914935  5.220240
O    2.211828  0.265310  -0.223388
H    0.453890  1.699372  1.052408
Ca    3.630512  -1.180800  -0.977012
