25
Energy: -32071.6917497 eV PBE+vdW (tier 2 basis)
N    -0.834790  0.682303  0.035956
C    -0.557383  0.103958  1.403641
C    0.948516  0.316905  1.723931
O    1.457357  1.404499  1.204865
H    -0.621743  -0.042299  -0.661555
H    -1.847472  0.818220  -0.056289
H    -1.104537  0.745149  2.116029
C    -1.017267  -1.349109  1.581129
C    -1.208644  -1.731492  3.066078
C    -0.932353  -3.203969  3.409812
C    0.490327  -3.702594  3.165482
N    1.524545  -2.819231  3.832939
H    -0.282682  -2.004806  1.088452
H    -1.967365  -1.498018  1.047893
H    -2.241874  -1.506548  3.363140
H    -0.585288  -1.083732  3.700895
H    -1.595925  -3.865151  2.832734
H    -1.197749  -3.373228  4.464739
H    0.759542  -3.717365  2.102257
H    0.619238  -4.717817  3.557998
H    1.327018  -2.697155  4.834359
H    2.465779  -3.223977  3.754773
O    1.586076  -0.467729  2.420334
H    1.539111  -1.870760  3.365303
Ca    0.668520  2.592985  -0.252197
