25
Energy: -32071.6273214 eV PBE+vdW (tier 2 basis)
N    0.208427  -0.908435  0.066204
C    0.006167  -0.323515  1.409574
C    1.314567  -0.055744  2.146886
O    1.292965  0.587477  3.258736
H    -0.983342  -2.040000  -0.363200
H    0.298967  -0.164990  -0.629920
H    -0.457655  0.667651  1.287875
C    -0.968661  -1.143231  2.289357
C    -0.579274  -2.580334  2.669432
C    -0.554435  -3.676054  1.581724
C    -1.795607  -3.748747  0.688007
N    -1.631642  -2.901236  -0.561575
H    -1.946803  -1.121145  1.784272
H    -1.120155  -0.573939  3.216573
H    -1.298825  -2.898259  3.438389
H    0.397460  -2.584228  3.178939
H    -0.465525  -4.643817  2.093364
H    0.346752  -3.611274  0.951444
H    -2.693159  -3.389815  1.206386
H    -1.996611  -4.772275  0.354453
H    -1.181771  -3.446763  -1.305839
H    -2.535869  -2.586529  -0.931533
O    2.440151  -0.457073  1.669090
H    1.104220  -1.406286  0.044316
Ca    3.449694  0.547610  3.337973
