25
Energy: -32071.4376195 eV PBE+vdW (tier 2 basis)
N    0.411027  -2.860904  2.641009
C    0.048005  -2.066411  1.487441
C    0.995152  -2.165710  0.288594
O    2.142007  -2.741430  0.397234
H    1.399202  -2.766740  2.875809
H    0.221689  -3.852422  2.506410
H    -0.916849  -2.434130  1.098196
C    -0.165102  -0.582287  1.894330
C    -1.431622  -0.451189  2.752088
C    -1.656815  0.918775  3.418891
C    -0.791267  1.122201  4.656230
N    -1.163432  2.418951  5.369398
H    -0.248205  0.046778  0.996521
H    0.733616  -0.255452  2.442875
H    -1.423804  -1.239529  3.519761
H    -2.304661  -0.651293  2.114781
H    -2.716498  0.980751  3.714963
H    -1.481128  1.732235  2.695674
H    0.278947  1.199674  4.430352
H    -0.934805  0.321711  5.392749
H    -2.152213  2.409077  5.658707
H    -0.594178  2.570727  6.213892
O    0.635204  -1.701365  -0.861628
H    -1.035358  3.235354  4.754989
Ca    2.418088  -2.531370  -1.734266
