25
Energy: -32071.4341185 eV PBE+vdW (tier 2 basis)
N    0.078645  0.673574  0.388641
C    -0.330519  0.321641  1.782271
C    0.904219  0.467049  2.667525
O    2.046220  0.372204  2.184306
H    -0.676314  0.391338  -0.246529
H    0.112331  1.696448  0.303333
H    -1.115724  1.003062  2.148232
C    -0.901017  -1.124112  1.829268
C    -0.020394  -2.231057  1.224846
C    1.050150  -2.859133  2.138831
C    2.179192  -3.532695  1.361614
N    3.163203  -2.521321  0.808512
H    -1.862093  -1.084530  1.296219
H    -1.157054  -1.374942  2.868918
H    0.424132  -1.876928  0.266724
H    -0.684541  -3.033259  0.873888
H    0.565083  -3.616257  2.770167
H    1.481016  -2.133739  2.846250
H    1.778343  -4.100604  0.511376
H    2.715735  -4.244949  2.001563
H    3.827582  -2.317024  1.566978
H    3.741051  -3.010509  0.114139
O    0.788557  0.638624  3.959398
H    -0.133851  0.756127  4.264429
Ca    2.362261  -0.323389  0.114603
