25
Energy: -32071.7117045 eV PBE+vdW (tier 2 basis)
N    -0.313938  -0.415752  -0.166555
C    -0.412126  -0.269017  1.294350
C    0.844715  0.283339  1.959947
O    0.791534  0.668191  3.185551
H    -1.915974  -0.608727  -0.807690
H    0.120557  0.411622  -0.583223
H    -1.204379  0.466179  1.513779
C    -0.776226  -1.609428  1.983956
C    -1.903543  -2.410912  1.317738
C    -3.272451  -1.702011  1.168292
C    -3.771128  -1.621263  -0.269039
N    -2.972074  -0.618182  -1.084145
H    -1.031641  -1.385194  3.028481
H    0.120928  -2.248225  2.012106
H    -2.034784  -3.320072  1.918622
H    -1.564058  -2.777627  0.336498
H    -3.268384  -0.696874  1.620458
H    -4.038153  -2.253054  1.729841
H    -4.823166  -1.318368  -0.325428
H    -3.670108  -2.588992  -0.775426
H    -3.056292  -0.803403  -2.090702
H    -3.330069  0.331171  -0.927428
O    1.957850  0.351498  1.320393
H    0.304126  -1.196051  -0.406715
Ca    2.901443  1.138524  3.127507
