25
Energy: -32071.5044409 eV PBE+vdW (tier 2 basis)
N    0.050992  1.126270  1.668202
C    0.710529  -0.161843  1.761102
C    1.671768  -0.502403  0.618992
O    1.603750  0.116787  -0.507749
H    -2.246384  1.231878  5.373076
H    0.717512  1.896267  1.717051
H    1.336838  -0.169944  2.667721
C    -0.322807  -1.316733  1.869676
C    -1.412442  -1.085356  2.927949
C    -0.887515  -0.943388  4.362385
C    -1.974486  -0.877532  5.427105
N    -2.824312  0.383911  5.288627
H    0.214580  -2.253131  2.075783
H    -0.819328  -1.443050  0.895088
H    -2.108812  -1.936806  2.875268
H    -1.976740  -0.185633  2.633954
H    -0.233004  -0.061745  4.456468
H    -0.264419  -1.812122  4.624978
H    -1.557998  -0.847622  6.440728
H    -2.675991  -1.719006  5.361773
H    -3.555162  0.428292  6.012086
H    -3.288450  0.420253  4.370619
O    2.559950  -1.424707  0.777177
H    -0.452383  1.227085  0.785153
Ca    3.275316  -1.055725  -1.222213
