25
Energy: -32071.2908131 eV PBE+vdW (tier 2 basis)
N    2.485304  0.272515  1.196569
C    1.436465  -0.713402  1.460125
C    1.256144  -1.553051  0.197565
O    1.992018  -2.600822  0.020552
H    3.402122  -0.146276  1.048036
H    2.263013  0.897870  0.421972
H    1.815529  -1.392220  2.237956
C    0.163888  -0.004399  1.940270
C    -0.869118  -0.922742  2.604450
C    -2.163996  -0.206193  3.030211
C    -2.045640  0.825084  4.146892
N    -1.773301  0.170678  5.500031
H    -0.300081  0.523851  1.092872
H    0.515441  0.770306  2.637910
H    -0.407036  -1.449738  3.459364
H    -1.164035  -1.724123  1.910552
H    -2.934715  -0.945575  3.302148
H    -2.580007  0.335845  2.167463
H    -2.977918  1.387498  4.274419
H    -1.230047  1.541270  3.989958
H    -2.534313  -0.473245  5.759149
H    -0.900025  -0.373619  5.488212
O    0.471125  -1.176806  -0.758917
H    -1.692395  0.872551  6.249113
Ca    1.274580  -2.760257  -1.995872
