25
Energy: -32071.3855241 eV PBE+vdW (tier 2 basis)
N    0.320360  0.312737  -0.010233
C    -0.192182  0.422592  1.352784
C    0.961055  1.083083  2.107979
O    0.921007  2.339799  2.381591
H    -4.734417  -2.000491  1.029771
H    -0.376468  0.480738  -0.729045
H    -1.005992  1.160866  1.347643
C    -0.659335  -0.880422  2.030894
C    -1.888957  -1.506319  1.356505
C    -2.268182  -2.854501  1.988667
C    -3.378580  -3.626262  1.288023
N    -4.739667  -2.947129  1.433147
H    -0.881878  -0.675226  3.090585
H    0.174699  -1.600012  2.024535
H    -1.683286  -1.654739  0.284171
H    -2.727130  -0.788849  1.419509
H    -2.514647  -2.733530  3.056887
H    -1.393872  -3.523137  1.969852
H    -3.504516  -4.630122  1.710443
H    -3.205867  -3.721653  0.208460
H    -5.479297  -3.483325  0.957961
H    -5.007261  -2.860733  2.423817
O    2.026936  0.411121  2.385583
H    0.822370  -0.553853  -0.191055
Ca    3.012105  2.267368  2.872526
