25
Energy: -32071.3148217 eV PBE+vdW (tier 2 basis)
N    2.355672  -2.419648  2.371251
C    1.010840  -2.120446  1.881043
C    1.104842  -1.883373  0.377673
O    1.025078  -2.893806  -0.425959
H    3.030284  -1.678598  2.183615
H    2.717688  -3.311672  2.038674
H    0.403911  -3.027235  2.016368
C    0.406934  -0.970655  2.695499
C    -1.067398  -0.668420  2.384780
C    -1.841194  -0.023032  3.551293
C    -1.304199  1.343393  3.958541
N    -2.132400  1.925821  5.099601
H    1.029586  -0.072077  2.564413
H    0.520503  -1.284594  3.744425
H    -1.595086  -1.604513  2.148658
H    -1.153575  -0.034165  1.489080
H    -1.808668  -0.703006  4.418743
H    -2.899285  0.074429  3.259814
H    -1.355996  2.074602  3.141980
H    -0.272755  1.304080  4.328945
H    -1.788630  2.851864  5.390766
H    -3.120360  2.031655  4.827528
O    1.381845  -0.719289  -0.115590
H    -2.109633  1.311811  5.926592
Ca    1.600997  -1.646126  -2.062731
