25
Energy: -32069.7477229 eV PBE+vdW (tier 2 basis)
N    0.907645  0.322677  0.429922
C    0.326555  0.118910  1.806471
C    1.486165  -0.167027  2.758067
O    2.669605  0.048466  2.405825
H    0.771398  -0.554108  -0.091429
H    0.311790  0.994365  -0.066610
H    -0.071636  1.095782  2.135982
C    -0.828207  -0.910689  1.821703
C    -1.666689  -0.990960  3.111172
C    -2.962890  -1.787814  2.892928
C    -3.792827  -1.950594  4.177672
N    -4.980167  -2.735270  3.912802
H    -0.433590  -1.906441  1.562216
H    -1.504722  -0.618312  1.004179
H    -1.908863  0.021226  3.475972
H    -1.122121  -1.515770  3.924962
H    -2.732560  -2.788447  2.498435
H    -3.569177  -1.277387  2.127292
H    -4.013770  -0.948417  4.599007
H    -3.197158  -2.483887  4.933198
H    -5.358967  -3.211311  4.726969
H    -5.721818  -2.235849  3.426602
O    1.273699  -0.589009  3.966703
H    0.316187  -0.773623  4.131515
Ca    3.322051  0.811246  0.520403
