25
Energy: -32068.9314839 eV PBE+vdW (tier 2 basis)
N    1.120514  0.544909  0.636993
C    0.559059  -0.033705  1.859442
C    1.830755  -0.514978  2.548613
O    2.590012  0.281108  3.184548
H    1.134204  -0.112332  -0.141815
H    0.636506  1.393023  0.350462
H    0.184701  0.791958  2.481310
C    -0.567549  -1.077193  1.714803
C    -0.281542  -2.341827  0.886823
C    -1.570249  -3.062223  0.455059
C    -1.308463  -4.284834  -0.432597
N    -0.643685  -3.911400  -1.673329
H    -1.398247  -0.532785  1.240306
H    -0.930383  -1.352723  2.717618
H    0.296650  -3.098853  1.465561
H    0.297610  -2.124710  -0.025909
H    -2.205716  -2.344620  -0.088910
H    -2.144094  -3.376001  1.339011
H    -2.272308  -4.798685  -0.605493
H    -0.666875  -5.005529  0.095039
H    -0.182588  -4.689268  -2.140409
H    -1.256017  -3.439810  -2.337917
O    2.240425  -1.743202  2.448331
H    1.565729  -2.297156  1.970809
Ca    4.166539  1.407593  3.831057
