25
Energy: -32070.3846974 eV PBE+vdW (tier 2 basis)
N    -0.650818  -0.079929  -0.034599
C    -0.117095  -0.309067  1.343672
C    1.392664  -0.456419  1.269196
O    1.950831  -0.770145  0.190481
H    -1.676827  -0.487110  -0.093095
H    -0.793252  0.930661  -0.155443
H    -0.354126  0.547833  1.995619
C    -0.708274  -1.604528  1.984801
C    -1.901155  -1.369524  2.925439
C    -3.163530  -0.707839  2.355260
C    -3.815628  -1.432810  1.172882
N    -3.291319  -0.944700  -0.141321
H    0.074433  -2.121888  2.559056
H    -0.969186  -2.293462  1.164505
H    -1.553160  -0.784503  3.791302
H    -2.174202  -2.354629  3.333191
H    -2.979992  0.346778  2.085198
H    -3.892130  -0.657246  3.175808
H    -4.906406  -1.309627  1.211819
H    -3.621850  -2.513029  1.230465
H    -3.578782  -1.601282  -0.872280
H    -3.782438  -0.075661  -0.374037
O    2.153507  -0.318648  2.319384
H    1.667640  -0.058821  3.128679
Ca    0.894476  -0.858285  -1.662258
