25
Energy: -32071.6204825 eV PBE+vdW (tier 2 basis)
N    1.805063  -0.252367  0.763837
C    0.464154  -0.170852  1.452793
C    0.639881  -0.551922  2.945531
O    1.818455  -0.280240  3.440227
H    1.948029  -1.222394  0.455507
H    1.749693  0.278589  -0.112311
H    0.200452  0.900395  1.467438
C    -0.675070  -0.928480  0.765846
C    -0.530094  -2.467482  0.726873
C    -1.860157  -3.236512  0.875083
C    -2.264869  -3.621504  2.296094
N    -2.566344  -2.438033  3.194925
H    -0.804431  -0.537135  -0.253821
H    -1.593327  -0.629451  1.290311
H    0.162543  -2.815493  1.511616
H    -0.075024  -2.763119  -0.227815
H    -1.786179  -4.192281  0.337059
H    -2.677907  -2.690969  0.377331
H    -1.467365  -4.182608  2.799868
H    -3.164675  -4.248158  2.283601
H    -3.343637  -1.877378  2.825077
H    -2.845366  -2.755890  4.132150
O    -0.283826  -1.029612  3.599866
H    -1.713247  -1.812921  3.311497
Ca    3.487939  0.342038  2.443051
