25
Energy: -32071.3991595 eV PBE+vdW (tier 2 basis)
N    -0.601042  -3.141893  1.704865
C    -0.498979  -2.048017  0.751622
C    0.871275  -2.021667  0.106298
O    1.573821  -3.102633  0.047431
H    -0.079794  -3.959761  1.390422
H    -1.572284  -3.426583  1.826596
H    -1.146509  -2.184432  -0.147334
C    -0.940985  -0.704931  1.373749
C    -0.217761  -0.342260  2.677143
C    -0.966424  0.751910  3.456778
C    -0.289384  1.059880  4.784944
N    -1.077992  2.099313  5.577013
H    -2.019472  -0.803149  1.572727
H    -0.837534  0.092679  0.625627
H    0.808417  -0.005193  2.459713
H    -0.136718  -1.250586  3.292671
H    -1.999145  0.412547  3.642990
H    -1.035221  1.670165  2.850086
H    0.717334  1.477160  4.658769
H    -0.222116  0.176020  5.431497
H    -0.628155  2.316829  6.477450
H    -1.167131  2.980852  5.052081
O    1.314654  -0.961299  -0.480318
H    -2.031866  1.767093  5.778675
Ca    2.940011  -2.129044  -1.294495
