25
Energy: -32070.1275191 eV PBE+vdW (tier 2 basis)
N    0.597622  -0.078009  0.155381
C    -0.085932  -0.222035  1.491374
C    0.811323  0.351156  2.540104
O    1.788479  1.094229  2.233881
H    0.986697  -0.995854  -0.098929
H    -0.133759  0.078391  -0.547364
H    -1.018354  0.453899  1.473715
C    -0.618005  -1.646011  1.794009
C    -1.874326  -1.663572  2.693334
C    -3.227449  -1.545705  1.961006
C    -3.360813  -0.454363  0.896282
N    -2.840894  0.858218  1.349102
H    0.183525  -2.258447  2.234610
H    -0.868202  -2.122890  0.834554
H    -1.828967  -0.862891  3.457507
H    -1.879337  -2.599621  3.266277
H    -4.009103  -1.412055  2.723268
H    -3.451618  -2.507301  1.476532
H    -4.417189  -0.398075  0.591554
H    -2.801533  -0.734460  -0.011599
H    -3.115165  1.587311  0.686950
H    -3.277951  1.124588  2.235844
O    0.591678  0.164679  3.810960
H    -0.182295  -0.420389  3.972057
Ca    2.390091  1.570285  0.281929
