25
Energy: -32069.6714019 eV PBE+vdW (tier 2 basis)
N    -0.118108  0.419024  0.328974
C    -0.137044  0.035204  1.783303
C    1.299454  -0.012105  2.278454
O    2.248775  -0.120730  1.469425
H    -0.924493  -0.041984  -0.111848
H    -0.340082  1.419575  0.254215
H    -0.698068  0.788220  2.361031
C    -0.802700  -1.348183  1.996474
C    -2.295521  -1.362171  1.624862
C    -3.018027  -2.642660  2.070171
C    -2.593689  -3.921057  1.335342
N    -3.358981  -5.050461  1.819619
H    -0.697471  -1.619376  3.058265
H    -0.237497  -2.110228  1.434306
H    -2.431255  -1.242408  0.534095
H    -2.787607  -0.496919  2.095726
H    -4.095553  -2.484531  1.912841
H    -2.889053  -2.790969  3.152976
H    -1.531887  -4.144324  1.526323
H    -2.689255  -3.752694  0.239278
H    -3.000274  -5.955512  1.525284
H    -4.356078  -4.995263  1.619424
O    1.586843  0.004869  3.548892
H    0.809702  0.108113  4.135755
Ca    2.094855  -0.000637  -0.662645
