25
Energy: -32071.1808345 eV PBE+vdW (tier 2 basis)
N    0.799832  0.486730  -0.502615
C    0.003631  0.150410  0.673131
C    1.067472  0.051222  1.769199
O    1.283916  1.057724  2.539435
H    -2.698418  -2.445057  -0.972401
H    0.345781  1.148717  -1.125733
H    -0.609865  1.024972  0.928444
C    -0.894211  -1.098173  0.551789
C    -1.749454  -1.366052  1.798427
C    -2.602561  -2.646187  1.793037
C    -3.793977  -2.683933  0.839465
N    -3.402981  -3.086357  -0.582074
H    -0.259815  -1.970760  0.322980
H    -1.525612  -0.901219  -0.334672
H    -2.403370  -0.500874  1.991954
H    -1.085669  -1.437100  2.673477
H    -3.032510  -2.772128  2.797291
H    -1.972807  -3.539728  1.642021
H    -4.294225  -1.710909  0.752792
H    -4.537227  -3.426198  1.152936
H    -3.001154  -4.034120  -0.598042
H    -4.217955  -3.085086  -1.211914
O    1.842787  -0.977341  1.840610
H    1.124090  -0.326093  -1.022129
Ca    3.188303  0.213541  3.056590
