25
Energy: -32071.2846157 eV PBE+vdW (tier 2 basis)
N    -1.217015  -0.238400  2.996020
C    -0.199740  -0.360001  1.957809
C    0.818537  0.722937  2.326079
O    0.551709  1.968681  2.121306
H    -4.268268  -1.864244  -2.108664
H    -1.544672  -1.116459  3.382239
H    0.321817  -1.315410  2.107858
C    -0.643058  -0.236465  0.486484
C    -1.408731  -1.449730  -0.079307
C    -2.900550  -1.519837  0.285896
C    -3.641979  -2.731196  -0.267599
N    -3.754257  -2.698102  -1.791017
H    0.262092  -0.099899  -0.124929
H    -1.230288  0.686558  0.358195
H    -0.908536  -2.380014  0.236609
H    -1.294880  -1.405459  -1.176523
H    -3.418774  -0.594855  -0.018147
H    -3.024007  -1.577407  1.376154
H    -4.672406  -2.783423  0.103011
H    -3.136664  -3.675356  -0.027344
H    -2.826462  -2.678401  -2.236403
H    -4.253070  -3.524899  -2.148492
O    1.910871  0.404269  2.927486
H    -1.982033  0.392086  2.774497
Ca    2.285364  2.487023  3.297785
