25
Energy: -32071.5092625 eV PBE+vdW (tier 2 basis)
N    -0.815880  0.125607  0.688423
C    0.449801  -0.173968  1.323319
C    1.639444  -0.365728  0.378476
O    2.845856  -0.222562  0.814904
H    -3.221892  0.354922  6.647649
H    -0.788986  1.005760  0.175282
H    0.730191  0.676695  1.965477
C    0.352577  -1.448322  2.208575
C    -0.888963  -1.506998  3.109736
C    -1.010299  -0.368086  4.135429
C    -2.223777  -0.602283  5.025222
N    -2.401748  0.517352  6.046144
H    1.271594  -1.531174  2.806099
H    0.321477  -2.333150  1.553726
H    -0.861881  -2.472548  3.637599
H    -1.790503  -1.512980  2.481912
H    -1.120815  0.592661  3.607106
H    -0.097316  -0.311939  4.751326
H    -2.141666  -1.528732  5.607265
H    -3.157085  -0.635181  4.449257
H    -2.531814  1.427739  5.583008
H    -1.578502  0.598972  6.659239
O    1.453589  -0.681262  -0.856605
H    -1.093479  -0.600805  0.026927
Ca    3.589075  -0.665991  -1.159499
