25
Energy: -32070.4981315 eV PBE+vdW (tier 2 basis)
N    0.921875  -1.022399  0.320233
C    0.415945  -0.719526  1.719434
C    1.545545  -0.948867  2.713849
O    1.405562  -0.543279  3.914807
H    0.097722  -1.089566  -0.317025
H    1.554552  -0.296427  -0.042006
H    0.140405  0.345214  1.740304
C    -0.817023  -1.588615  2.046240
C    -2.101005  -1.209396  1.288098
C    -2.053752  -1.322999  -0.241062
C    -3.433229  -1.201598  -0.921571
N    -3.273311  -1.221856  -2.369234
H    -0.992730  -1.481659  3.125761
H    -0.558834  -2.647709  1.874920
H    -2.407103  -0.192500  1.578707
H    -2.888545  -1.877594  1.667431
H    -1.612004  -2.290087  -0.548164
H    -1.461176  -0.507037  -0.705569
H    -3.885312  -0.244080  -0.626782
H    -4.091300  -1.996290  -0.524512
H    -3.326055  -2.165862  -2.749231
H    -3.992478  -0.672572  -2.835330
O    2.608091  -1.573052  2.352051
H    1.437219  -1.914946  0.305839
Ca    3.359199  -1.363784  4.441195
