25
Energy: -32069.8061742 eV PBE+vdW (tier 2 basis)
N    0.499698  -0.927496  -0.371655
C    0.007765  -0.439980  0.966576
C    1.167265  -0.500571  1.947974
O    2.174548  -1.209868  1.703805
H    0.671242  -0.110261  -0.970609
H    -0.282485  -1.408801  -0.831506
H    -0.322923  0.606529  0.881082
C    -1.190775  -1.302481  1.449500
C    -1.770565  -0.959777  2.831305
C    -2.154931  0.509561  3.037960
C    -2.858975  0.771871  4.379228
N    -2.983486  2.201886  4.608644
H    -0.890369  -2.363801  1.432246
H    -1.973959  -1.173895  0.685241
H    -1.088102  -1.297156  3.627846
H    -2.670119  -1.580806  2.952284
H    -2.793026  0.856158  2.208052
H    -1.286199  1.207416  3.016084
H    -2.255077  0.347146  5.195158
H    -3.820890  0.223580  4.383719
H    -3.745895  2.626314  4.081881
H    -3.118666  2.427324  5.591899
O    1.131549  0.149989  3.068522
H    0.289211  0.658727  3.185351
Ca    2.567875  -2.230382  -0.120492
