25
Energy: -32069.6853844 eV PBE+vdW (tier 2 basis)
N    1.076013  -0.664225  0.383213
C    0.433163  -0.296071  1.693612
C    1.502175  -0.407947  2.771636
O    2.487160  -1.163246  2.606549
H    0.338532  -1.031866  -0.229694
H    1.382276  0.197900  -0.085468
H    0.056939  0.738528  1.654598
C    -0.752522  -1.247905  1.996610
C    -1.522459  -0.960944  3.295194
C    -2.795216  -1.814172  3.433066
C    -3.962810  -1.372797  2.540245
N    -5.068664  -2.300320  2.672554
H    -0.385147  -2.288732  2.007126
H    -1.435659  -1.157542  1.137007
H    -1.797771  0.108278  3.335815
H    -0.880282  -1.167106  4.164768
H    -3.117255  -1.770344  4.483765
H    -2.568231  -2.872376  3.230631
H    -3.666275  -1.370274  1.478500
H    -4.228497  -0.324003  2.790531
H    -5.470767  -2.333570  3.607993
H    -5.810831  -2.159306  1.990843
O    1.410794  0.233127  3.900806
H    0.612645  0.796748  3.970089
Ca    3.019192  -2.130099  0.767980
