25
Energy: -32071.3437063 eV PBE+vdW (tier 2 basis)
N    -0.390583  -1.388807  1.025065
C    -0.155094  -0.005732  0.621912
C    1.145829  0.218134  -0.143265
O    2.015734  -0.724048  -0.269889
H    -1.328649  -1.168090  6.357844
H    -0.929036  -1.887176  0.317688
H    -0.938765  0.302313  -0.088470
C    -0.264017  0.974396  1.821842
C    0.580327  0.597834  3.061263
C    -0.246004  0.309945  4.329674
C    -1.000062  -1.011573  4.258895
N    -1.884240  -1.190455  5.490778
H    -1.330702  1.007657  2.084633
H    -0.013150  1.986318  1.478827
H    1.260168  1.423785  3.304864
H    1.227001  -0.269060  2.855788
H    -0.955616  1.139943  4.485980
H    0.426769  0.299764  5.201739
H    -0.323650  -1.874568  4.244390
H    -1.653842  -1.088525  3.381924
H    -2.391155  -2.086129  5.469403
H    -2.584429  -0.438581  5.559753
O    1.379487  1.361748  -0.691641
H    0.490518  -1.896083  1.118274
Ca    3.168165  0.570994  -1.580272
