25
Energy: -32071.2611234 eV PBE+vdW (tier 2 basis)
N    2.229935  -2.732772  2.309444
C    1.013660  -2.050109  1.861603
C    1.275367  -1.924194  0.359952
O    2.086374  -1.026056  -0.087904
H    2.949538  -2.086944  2.629469
H    2.052733  -3.431741  3.026178
H    0.172707  -2.749117  1.967900
C    0.705841  -0.719495  2.568302
C    -0.632444  -0.079834  2.170051
C    -0.874733  1.311130  2.785480
C    -1.146442  1.362081  4.284812
N    -2.546641  0.853728  4.623855
H    1.525632  -0.012973  2.362358
H    0.737446  -0.930112  3.648903
H    -1.463229  -0.771252  2.401860
H    -0.671965  0.045058  1.077501
H    -1.692669  1.825134  2.254566
H    0.011795  1.940949  2.617405
H    -1.106779  2.388527  4.667603
H    -0.452409  0.748656  4.872221
H    -2.722993  0.877666  5.638097
H    -3.268225  1.432183  4.170216
O    0.811204  -2.810504  -0.449099
H    -2.685512  -0.115221  4.306038
Ca    2.316810  -2.232788  -1.866810
