25
Energy: -32071.7147479 eV PBE+vdW (tier 2 basis)
N    0.457785  1.007414  2.177652
C    0.794967  -0.429192  2.133014
C    1.569313  -0.825883  0.879624
O    1.630893  -0.039726  -0.136552
H    -0.758771  1.417433  3.299019
H    1.298345  1.566115  2.348656
H    1.464671  -0.656986  2.976442
C    -0.482179  -1.305901  2.262743
C    -0.812715  -1.783228  3.686592
C    -1.003502  -0.744363  4.804646
C    -2.099116  0.302495  4.570274
N    -1.514411  1.605154  4.067051
H    -0.370703  -2.207507  1.646211
H    -1.318705  -0.743538  1.816851
H    -0.026249  -2.480577  4.010897
H    -1.728946  -2.389051  3.618236
H    -0.054327  -0.237429  5.047520
H    -1.259651  -1.296535  5.718423
H    -2.647579  0.534076  5.489750
H    -2.831040  -0.027494  3.822580
H    -1.054011  2.107892  4.835338
H    -2.241195  2.228743  3.696319
O    2.154561  -1.969365  0.833152
H    0.124677  1.301431  1.253449
Ca    2.859889  -1.531978  -1.161887
