25
Energy: -32069.6807303 eV PBE+vdW (tier 2 basis)
N    0.870164  1.623883  0.299009
C    0.755248  0.916648  1.624062
C    1.413077  1.808432  2.677429
O    1.663130  3.009273  2.429868
H    1.665492  1.206073  -0.203740
H    0.059840  1.356221  -0.270487
H    -0.317898  0.912001  1.890416
C    1.263093  -0.537941  1.608347
C    0.503152  -1.449046  0.629287
C    0.999088  -2.903014  0.641773
C    0.623545  -3.701681  1.898095
N    1.171886  -5.039560  1.820118
H    1.154665  -0.958883  2.622961
H    2.343725  -0.547520  1.386758
H    0.612805  -1.064507  -0.397278
H    -0.574830  -1.416913  0.862350
H    2.091516  -2.937194  0.509663
H    0.572619  -3.409718  -0.236721
H    -0.480266  -3.680556  2.021224
H    1.045323  -3.232779  2.802080
H    0.794317  -5.604617  1.061552
H    1.129550  -5.561988  2.691689
O    1.688180  1.366717  3.869681
H    1.495893  0.411963  3.980403
Ca    1.299713  4.033639  0.584527
