25
Energy: -32071.289433 eV PBE+vdW (tier 2 basis)
N    0.220837  1.686238  1.375838
C    1.259331  0.683412  1.637791
C    1.464347  -0.170551  0.392233
O    2.327360  0.209459  -0.491153
H    -2.223334  0.224323  6.285470
H    0.566668  2.454503  0.802562
H    2.202987  1.230026  1.764007
C    1.000170  -0.108054  2.937244
C    -0.453488  -0.504429  3.227395
C    -0.570841  -1.213098  4.586085
C    -1.990701  -1.495839  5.058100
N    -2.705040  -0.216174  5.488889
H    1.352698  0.533921  3.758236
H    1.643016  -1.001670  2.950205
H    -0.847480  -1.161914  2.437550
H    -1.059204  0.418689  3.208813
H    -0.031699  -0.647874  5.365815
H    -0.065014  -2.189096  4.541381
H    -2.009443  -2.153549  5.934974
H    -2.616189  -1.940939  4.273988
H    -3.676037  -0.400966  5.776528
H    -2.729100  0.473403  4.724903
O    0.760948  -1.230080  0.154512
H    -0.606815  1.295788  0.925994
Ca    1.847022  -1.474530  -1.714359
