25
Energy: -32069.7189735 eV PBE+vdW (tier 2 basis)
N    0.401556  0.280230  0.079264
C    0.187954  0.005283  1.543880
C    1.560553  -0.186317  2.186349
O    2.603757  0.141687  1.578056
H    0.245614  -0.609451  -0.416029
H    -0.367527  0.878290  -0.242268
H    -0.199418  0.937222  1.993490
C    -0.819639  -1.126677  1.831065
C    -0.431063  -2.512809  1.300759
C    -1.445582  -3.584810  1.720615
C    -1.098709  -4.986476  1.195691
N    -2.050017  -5.959841  1.688891
H    -1.792560  -0.813439  1.422492
H    -0.995589  -1.172194  2.920704
H    0.571931  -2.797015  1.665338
H    -0.367576  -2.502877  0.196798
H    -2.448788  -3.299876  1.364746
H    -1.507754  -3.632764  2.818281
H    -0.101341  -5.278161  1.557404
H    -1.035055  -4.955197  0.087340
H    -2.975585  -5.904685  1.268774
H    -1.716326  -6.919822  1.671716
O    1.682720  -0.641447  3.399845
H    0.827276  -0.895802  3.804585
Ca    2.697676  1.037320  -0.367913
