25
Energy: -32071.3732966 eV PBE+vdW (tier 2 basis)
N    -1.038269  -2.105959  1.273724
C    -0.438981  -1.130391  0.367024
C    0.916365  -1.602276  -0.123877
O    1.734753  -0.779907  -0.686789
H    -0.740211  -3.051786  1.031923
H    -2.054389  -2.086487  1.186336
H    -0.989556  -1.047475  -0.598466
C    -0.407586  0.297525  0.952485
C    0.175211  0.427085  2.372879
C    -0.873753  0.256399  3.486654
C    -0.273194  0.505291  4.862463
N    -1.335219  0.389744  5.951989
H    -1.436488  0.686115  0.936948
H    0.159312  0.932808  0.260560
H    0.636105  1.421528  2.466191
H    0.984511  -0.305411  2.522096
H    -1.290066  -0.760951  3.427757
H    -1.697330  0.968991  3.312216
H    0.149864  1.513152  4.961478
H    0.503436  -0.225539  5.120614
H    -2.089647  1.075966  5.808086
H    -1.768359  -0.544443  5.951003
O    1.230110  -2.852761  -0.073217
H    -0.942509  0.551765  6.889965
Ca    2.969891  -2.436985  -1.287043
