25
Energy: -32071.4843992 eV PBE+vdW (tier 2 basis)
N    -0.788784  0.557082  0.110053
C    -0.335555  0.015192  1.386854
C    1.097147  0.389297  1.774985
O    1.915070  0.873311  0.906538
H    -4.400435  -0.587741  -1.259075
H    -0.913528  1.568812  0.164710
H    -0.960694  0.435638  2.191901
C    -0.488047  -1.527965  1.421296
C    -1.896277  -2.032360  1.783291
C    -3.088885  -1.561281  0.930009
C    -3.001806  -2.002418  -0.522223
N    -4.268446  -1.608888  -1.273831
H    0.196368  -1.946835  2.171604
H    -0.153727  -1.921622  0.448230
H    -2.112891  -1.745698  2.822499
H    -1.869003  -3.132837  1.783192
H    -3.172975  -0.464673  0.967125
H    -4.002581  -1.976000  1.386225
H    -2.909526  -3.090462  -0.630304
H    -2.176657  -1.508426  -1.048295
H    -4.240005  -1.906564  -2.258800
H    -5.103559  -2.031997  -0.844247
O    1.498407  0.217920  2.988653
H    -0.080816  0.400011  -0.610573
Ca    3.417205  1.037505  2.464182
