25
Energy: -32070.4545018 eV PBE+vdW (tier 2 basis)
N    -0.073708  -0.577604  0.055512
C    -0.104718  -0.313513  1.556317
C    1.256818  -0.673955  2.123004
O    1.598334  -0.237206  3.270957
H    -1.034463  -0.706120  -0.295428
H    0.365597  0.184065  -0.479835
H    -0.296662  0.757084  1.701591
C    -1.229734  -1.161616  2.186919
C    -1.622060  -0.777442  3.618803
C    -2.165685  0.652625  3.791127
C    -3.170036  1.115037  2.721850
N    -4.107684  0.045628  2.357171
H    -0.953209  -2.226501  2.131339
H    -2.145080  -1.020562  1.578954
H    -0.790572  -0.941247  4.319647
H    -2.398388  -1.500875  3.901456
H    -1.342986  1.383984  3.838720
H    -2.642466  0.700039  4.780923
H    -2.639282  1.407787  1.797481
H    -3.652730  2.040213  3.081651
H    -4.773765  0.377708  1.658877
H    -4.670282  -0.233358  3.163365
O    2.030306  -1.470995  1.470384
H    0.465599  -1.439492  -0.130870
Ca    3.447450  -1.395884  3.181407
