25
Energy: -32070.4481074 eV PBE+vdW (tier 2 basis)
N    -0.153958  0.992642  0.846843
C    0.373802  0.270950  2.075790
C    1.858288  0.011642  1.881806
O    2.554210  -0.385292  2.871229
H    -1.146609  0.741599  0.705521
H    -0.093227  2.016005  0.930561
H    0.229915  0.939237  2.935323
C    -0.407365  -1.042524  2.295473
C    -1.928551  -0.841432  2.399152
C    -2.378647  0.170188  3.454940
C    -3.905573  0.228340  3.626551
N    -4.266898  1.327066  4.510149
H    -0.019207  -1.473074  3.228974
H    -0.165555  -1.753304  1.489179
H    -2.359243  -1.831210  2.612930
H    -2.361686  -0.583995  1.410994
H    -2.052014  1.197154  3.210347
H    -1.912194  -0.075173  4.423646
H    -4.265564  -0.763962  3.961400
H    -4.373144  0.413741  2.647587
H    -5.241713  1.600400  4.400740
H    -4.121068  1.100878  5.493621
O    2.387237  0.158403  0.719323
H    0.396929  0.710233  0.018605
Ca    4.333981  -0.509854  1.601823
