25
Energy: -32071.3627772 eV PBE+vdW (tier 2 basis)
N    0.862506  -1.976022  2.912530
C    0.494825  -1.147114  1.764482
C    1.437546  0.050518  1.708733
O    1.262178  1.075757  2.477260
H    -3.743340  -2.845727  -0.233277
H    1.751872  -2.457117  2.791162
H    0.688410  -1.737430  0.857587
C    -0.989428  -0.745268  1.831917
C    -1.909548  -1.974925  1.877538
C    -3.381440  -1.653780  2.192180
C    -4.238482  -1.196124  1.018336
N    -4.591101  -2.371877  0.108789
H    -1.221819  -0.094047  0.974408
H    -1.149752  -0.135639  2.734988
H    -1.529647  -2.653174  2.652386
H    -1.814520  -2.545140  0.934158
H    -3.433020  -0.855101  2.946871
H    -3.867230  -2.520690  2.669486
H    -3.736883  -0.459204  0.378806
H    -5.198202  -0.778400  1.344426
H    -5.148581  -3.072841  0.617708
H    -5.138338  -2.074081  -0.710572
O    2.489872  0.006730  0.961519
H    0.869705  -1.459215  3.791913
Ca    3.148418  1.875911  1.794668
