25
Energy: -32071.2620924 eV PBE+vdW (tier 2 basis)
N    -0.548320  -0.169775  3.533694
C    0.146835  -0.687041  2.359398
C    1.463676  0.095764  2.347887
O    1.481098  1.334913  1.989093
H    -3.472744  -3.764585  0.443424
H    -0.987385  -0.873607  4.115979
H    0.426463  -1.730445  2.561768
C    -0.567039  -0.586254  0.998863
C    -1.740422  -1.557130  0.764494
C    -3.043253  -1.233827  1.518731
C    -4.297623  -1.857611  0.918242
N    -4.273287  -3.384628  0.967191
H    0.177783  -0.778558  0.210961
H    -0.902774  0.451200  0.842733
H    -1.400552  -2.582370  0.994317
H    -1.951747  -1.538680  -0.317424
H    -3.226647  -0.148683  1.491019
H    -2.971723  -1.491457  2.586410
H    -4.419447  -1.598450  -0.141328
H    -5.203901  -1.557424  1.457358
H    -4.202975  -3.727627  1.935415
H    -5.129290  -3.785353  0.558338
O    2.546553  -0.449960  2.778672
H    -1.172590  0.609952  3.348186
Ca    3.514312  1.469635  2.693578
