25
Energy: -32071.3519938 eV PBE+vdW (tier 2 basis)
N    2.053263  0.431383  1.489099
C    1.165002  -0.705865  1.443436
C    1.230121  -1.541809  0.160780
O    1.737435  -1.048782  -0.915168
H    3.032928  0.162360  1.556042
H    1.950293  1.041005  0.677577
H    1.451504  -1.403897  2.247336
C    -0.311882  -0.268435  1.675064
C    -0.481453  0.561356  2.958968
C    -0.438610  -0.239241  4.274249
C    -1.771589  -0.818227  4.732160
N    -2.689671  0.280741  5.263363
H    -0.955977  -1.160887  1.674316
H    -0.626299  0.347808  0.818834
H    -1.421945  1.134018  2.874619
H    0.317493  1.313449  2.978911
H    -0.016868  0.375752  5.085420
H    0.254672  -1.088558  4.186435
H    -1.655991  -1.530591  5.557459
H    -2.326160  -1.308417  3.921932
H    -2.276616  0.736665  6.089512
H    -2.842485  1.012281  4.554512
O    0.791209  -2.756232  0.147483
H    -3.610663  -0.087544  5.538485
Ca    1.475288  -2.950333  -1.892823
