25
Energy: -32071.49579 eV PBE+vdW (tier 2 basis)
N    0.579811  -2.804940  2.496435
C    0.053374  -2.001120  1.415459
C    0.645159  -2.287526  0.030604
O    1.748758  -2.939964  -0.090071
H    1.599907  -2.797129  2.520109
H    0.281191  -3.776936  2.438943
H    -1.023526  -2.214172  1.311600
C    0.205533  -0.488087  1.725817
C    -0.513525  -0.099549  3.025614
C    -0.252097  1.358559  3.429492
C    -0.691583  1.726111  4.840387
N    -2.206596  1.637270  5.016117
H    -0.176995  0.099089  0.878723
H    1.279077  -0.256583  1.823020
H    -0.174736  -0.782010  3.819879
H    -1.594500  -0.283266  2.889595
H    -0.693625  2.061447  2.703623
H    0.830348  1.559016  3.406613
H    -0.422757  2.757260  5.098284
H    -0.265716  1.053101  5.595277
H    -2.489543  1.894347  5.972034
H    -2.694405  2.269961  4.366574
O    0.032965  -1.888952  -1.033822
H    -2.547946  0.683185  4.836063
Ca    1.530428  -2.869110  -2.235369
