25
Energy: -32070.2813884 eV PBE+vdW (tier 2 basis)
N    1.272710  -0.586011  0.518659
C    1.141120  -0.666031  2.037041
C    1.845873  -1.948952  2.473177
O    2.182140  -2.104917  3.687658
H    0.485734  -0.062407  0.109498
H    2.146232  -0.131243  0.218647
H    1.663597  0.200574  2.463723
C    -0.352446  -0.637419  2.427754
C    -0.608889  -0.455649  3.931888
C    -2.105174  -0.415616  4.277253
C    -2.852124  0.833276  3.789431
N    -4.251658  0.752945  4.166413
H    -0.846920  -1.551081  2.058700
H    -0.800852  0.210766  1.883973
H    -0.118142  0.470094  4.273611
H    -0.138459  -1.276274  4.490844
H    -2.192872  -0.470823  5.372755
H    -2.616221  -1.309982  3.887503
H    -2.819574  0.900543  2.689717
H    -2.332442  1.736425  4.174091
H    -4.403127  0.809097  5.172513
H    -4.833709  1.451044  3.708760
O    2.055724  -2.871977  1.602625
H    1.277004  -1.549600  0.137884
Ca    2.943913  -4.125145  3.243893
