25
Energy: -32069.8344278 eV PBE+vdW (tier 2 basis)
N    0.379998  1.341936  0.787060
C    0.294577  0.437791  1.992500
C    1.715388  0.092101  2.417448
O    2.695452  0.738764  1.969090
H    0.181202  0.761567  -0.039741
H    -0.416949  1.987443  0.822299
H    -0.109099  1.041054  2.825007
C    -0.641658  -0.773611  1.766655
C    -0.973873  -1.637620  2.995591
C    -1.524790  -0.900573  4.222128
C    -2.220207  -1.879535  5.191162
N    -3.313463  -2.566323  4.513610
H    -0.225470  -1.402606  0.962683
H    -1.587897  -0.357587  1.388026
H    -0.140080  -2.320211  3.273213
H    -1.753809  -2.352636  2.682494
H    -2.265136  -0.152165  3.891272
H    -0.745877  -0.348697  4.776962
H    -2.532446  -1.322071  6.090093
H    -1.493723  -2.632515  5.529771
H    -3.492668  -3.490837  4.899157
H    -4.186122  -2.041465  4.545768
O    1.940665  -0.843769  3.282382
H    1.110210  -1.338931  3.508573
Ca    2.613155  2.329564  0.566275
