30
Energy: -113702.8452748  eV PBE+vdW (tier 2 basis)
C    1.442791  -2.847820  1.770343
C    0.819590  -1.656689  2.422393
O    1.546307  -0.740226  2.917968
H    2.148930  -3.322464  2.463545
H    2.027986  -2.503083  0.905576
H    0.713610  -3.590652  1.430976
N    -0.517063  -1.574872  2.457554
C    -1.315454  -0.409576  2.880547
C    -1.409758  -0.357876  4.425118
O    -0.381368  0.076804  5.055965
H    -1.034878  -2.347273  2.044297
H    -0.714583  0.478325  2.630027
C    -2.594318  -0.311526  2.021207
C    -3.568221  -1.504740  1.972575
S    -4.916492  -1.289719  3.187444
C    -5.693004  -2.926991  3.165652
H    -2.241629  -0.116675  0.998269
H    -3.133904  0.600672  2.316936
H    -3.077831  -2.474000  2.162176
H    -4.012405  -1.565891  0.971515
H    -6.532155  -2.873016  3.868378
H    -4.998166  -3.710753  3.487582
H    -6.084518  -3.140403  2.164782
N    -2.491897  -0.738863  5.055477
C    -2.642516  -0.692966  6.509016
H    -3.341085  -1.044064  4.502144
H    -3.684446  -0.923963  6.747822
H    -2.394790  0.304211  6.891134
H    -1.990561  -1.432879  6.990176
Sr    1.812829  0.559968  4.767405
