30
Energy: -113702.9929434  eV PBE+vdW (tier 2 basis)
C    0.298845  1.087459  1.168296
C    -0.277345  0.381705  2.348433
O    0.296544  0.404033  3.474581
H    1.293248  0.672393  0.953185
H    0.446405  2.145849  1.422084
H    -0.323553  1.013316  0.270617
N    -1.444957  -0.292227  2.197980
C    -2.035603  -0.950334  3.351647
C    -1.423597  -2.340538  3.625971
O    -0.635614  -2.429838  4.618328
H    -1.900786  -0.288944  1.289836
H    -1.648883  -0.348767  4.184061
C    -3.536010  -0.807606  3.606644
C    -3.816156  -1.035774  5.109150
S    -2.794243  -0.099826  6.317972
C    -3.328896  1.618636  6.058562
H    -4.158840  -1.508755  3.035337
H    -3.840282  0.206173  3.310210
H    -3.657639  -2.084997  5.395324
H    -4.861993  -0.800227  5.342704
H    -2.831232  2.221219  6.827054
H    -4.411406  1.678516  6.218166
H    -3.064685  1.996943  5.065638
N    -1.686152  -3.400847  2.876704
C    -2.517526  -3.516607  1.680211
H    -1.203127  -4.250432  3.174892
H    -1.902978  -3.853574  0.836492
H    -2.972819  -2.557595  1.424114
H    -3.315658  -4.249331  1.850725
Sr    0.276390  -0.527576  5.658566
