30
Energy: -113702.7159518  eV PBE+vdW (tier 2 basis)
C    -0.382733  0.004685  -0.006304
C    -0.276234  -0.202861  1.466717
O    0.797793  -0.665920  1.983116
H    -0.286993  -0.962679  -0.519007
H    0.456292  0.628447  -0.342749
H    -1.327059  0.474370  -0.298670
N    -1.321846  0.105175  2.234690
C    -1.260103  0.113422  3.701932
C    -1.113821  -1.318421  4.260830
O    0.027464  -1.664919  4.716856
H    -2.101107  0.686822  1.831755
H    -0.313516  0.600587  3.989606
C    -2.403832  0.937874  4.325052
C    -2.516685  2.368076  3.774960
S    -3.206296  2.511050  2.081710
C    -4.968878  2.193150  2.370261
H    -2.206120  0.985312  5.406836
H    -3.369853  0.431480  4.216699
H    -1.536182  2.863494  3.729023
H    -3.139471  2.973199  4.446307
H    -5.452252  2.268447  1.389535
H    -5.383054  2.964610  3.029151
H    -5.157898  1.195065  2.782452
N    -2.107523  -2.194412  4.268621
C    -3.470448  -2.095530  3.738361
H    -1.866465  -3.081198  4.712855
H    -3.767527  -3.088892  3.386097
H    -3.510861  -1.406581  2.891121
H    -4.172877  -1.778867  4.519535
Sr    2.051500  -1.573835  3.630382
