30
Energy: -113702.7861539  eV PBE+vdW (tier 2 basis)
C    0.575678  1.648701  -0.007820
C    0.442775  1.021603  1.337944
O    1.366360  1.085226  2.196680
H    0.505085  2.743292  0.079810
H    -0.166540  1.292874  -0.728733
H    1.583983  1.432876  -0.385078
N    -0.701611  0.365523  1.683086
C    -2.057020  0.836335  1.401618
C    -2.182107  2.315433  1.838515
O    -1.388684  2.769286  2.720356
H    -0.626197  -0.129336  2.574534
H    -2.267431  0.739017  0.328305
C    -3.060690  -0.045533  2.185758
C    -3.212993  0.220241  3.690255
S    -1.771894  0.021257  4.815953
C    -1.481796  -1.773979  4.855530
H    -2.798759  -1.095562  1.992013
H    -4.059040  0.093094  1.745829
H    -3.989133  -0.442844  4.095181
H    -3.551343  1.246416  3.890241
H    -2.385416  -2.262233  5.236931
H    -0.662990  -1.941944  5.564258
H    -1.208034  -2.179293  3.875674
N    -3.130917  3.084799  1.325729
C    -4.152180  2.762275  0.325500
H    -3.161042  4.028644  1.714087
H    -5.109446  2.533800  0.811406
H    -3.846723  1.913008  -0.291854
H    -4.287844  3.630573  -0.327651
Sr    0.379598  2.074192  4.119320
