30
Energy: -113703.2538231  eV PBE+vdW (tier 2 basis)
C    -2.389842  0.353733  0.431910
C    -1.798001  0.011833  1.762669
O    -0.590336  -0.334373  1.863090
H    -3.449042  0.626934  0.476445
H    -2.267478  -0.503480  -0.243830
H    -1.822598  1.186327  -0.006331
N    -2.597507  0.091655  2.844355
C    -2.259525  -0.213515  4.246668
C    -0.973923  0.504816  4.702280
O    0.152585  -0.069262  4.701428
H    -3.562297  0.358367  2.668764
H    -3.066595  0.265531  4.815573
C    -2.345727  -1.717227  4.640334
C    -1.984015  -2.826107  3.645985
S    -0.265808  -3.446912  3.515475
C    0.078171  -4.068841  5.187125
H    -3.403518  -1.891578  4.886152
H    -1.810722  -1.847727  5.591235
H    -2.259184  -2.571132  2.614257
H    -2.571903  -3.718791  3.898377
H    1.059293  -4.555855  5.143037
H    -0.672131  -4.825572  5.443555
H    0.093884  -3.269397  5.935136
N    -1.086155  1.753431  5.147616
C    -2.287684  2.587567  5.259372
H    -0.211828  2.159598  5.479463
H    -2.990483  2.179742  5.997679
H    -2.783438  2.704887  4.288776
H    -1.977935  3.578712  5.601956
Sr    1.316581  -1.061861  2.957603
