30
Energy: -113702.8449530  eV PBE+vdW (tier 2 basis)
C    1.368928  0.291745  0.904382
C    0.752644  -0.197478  2.175163
O    1.462631  -0.782697  3.051286
H    0.643392  0.711326  0.199942
H    1.918131  -0.524242  0.418100
H    2.107565  1.066778  1.156359
N    -0.556466  0.011138  2.367068
C    -1.328732  -0.187116  3.611808
C    -1.723716  -1.674876  3.746631
O    -0.785005  -2.523169  3.950255
H    -1.056353  0.474284  1.611151
H    -0.635824  0.001054  4.448414
C    -2.429525  0.890464  3.632406
C    -3.318113  0.960721  4.890014
S    -4.914733  0.078573  4.786192
C    -5.867019  1.169975  3.694047
H    -3.059109  0.793922  2.733075
H    -1.900536  1.849670  3.527600
H    -3.536302  2.009004  5.128247
H    -2.812236  0.546103  5.773457
H    -6.846603  0.692830  3.575957
H    -5.407490  1.282326  2.705455
H    -6.003180  2.147014  4.171098
N    -2.978459  -2.042595  3.655637
C    -3.428876  -3.427704  3.792847
H    -3.731889  -1.306955  3.703701
H    -3.027107  -3.880541  4.707216
H    -3.107415  -4.020526  2.928039
H    -4.521303  -3.423118  3.840542
Sr    1.453700  -2.727910  4.229915
