30
Energy: -113702.7223154  eV PBE+vdW (tier 2 basis)
C    0.148368  1.308072  0.600971
C    0.432708  0.613865  1.893611
O    1.429078  -0.172484  1.987960
H    -0.739997  1.946527  0.635360
H    0.020020  0.551156  -0.185107
H    1.016714  1.917563  0.316383
N    -0.378028  0.854643  2.928911
C    -0.461017  0.168983  4.235791
C    0.747370  0.418620  5.148134
O    1.884915  -0.096931  4.912030
H    -1.204300  1.416267  2.723480
H    -1.329925  0.645909  4.709311
C    -0.803822  -1.333107  4.128139
C    -2.038238  -1.598923  3.258445
S    -3.390496  -0.458243  3.709671
C    -4.704995  -1.036799  2.604587
H    -0.975688  -1.698389  5.151163
H    0.046027  -1.905418  3.724466
H    -2.365793  -2.635858  3.411261
H    -1.799006  -1.479893  2.190829
H    -5.566015  -0.387187  2.797437
H    -4.977998  -2.070839  2.842586
H    -4.412308  -0.943625  1.552710
N    0.531668  1.149523  6.230301
C    1.521610  1.446034  7.266023
H    -0.398802  1.541292  6.355306
H    1.029001  1.419803  8.243408
H    1.949657  2.444354  7.107600
H    2.316382  0.696797  7.234965
Sr    3.096932  -1.038897  3.225813
