30
Energy: -113702.5467217  eV PBE+vdW (tier 2 basis)
C    -0.367281  0.465947  -0.325829
C    -0.487409  0.345957  1.159941
O    0.282086  1.010742  1.912408
H    -0.496248  1.518552  -0.611909
H    -1.085508  -0.147231  -0.879373
H    0.651666  0.178780  -0.620339
N    -1.427908  -0.483183  1.643328
C    -1.783513  -0.873002  3.031523
C    -2.234515  0.320323  3.894666
O    -1.414968  1.191220  4.313334
H    -1.972210  -0.961878  0.930886
H    -2.672566  -1.500352  2.883340
C    -0.766306  -1.814029  3.732921
C    0.596526  -1.276067  4.192142
S    1.783793  -2.536975  4.746415
C    1.021413  -3.138692  6.278085
H    -0.583421  -2.650892  3.043578
H    -1.289233  -2.243969  4.599809
H    0.459151  -0.552142  5.024480
H    1.126233  -0.812948  3.343238
H    1.752018  -3.840155  6.698669
H    0.090312  -3.685302  6.093448
H    0.866582  -2.327159  7.000020
N    -3.520544  0.366261  4.216128
C    -4.144485  1.382681  5.064108
H    -4.131770  -0.353093  3.838274
H    -4.825281  0.891933  5.767933
H    -4.714565  2.089605  4.447780
H    -3.369034  1.919675  5.614799
Sr    0.762874  1.849308  3.967766
