30
Energy: -113702.1790079  eV PBE+vdW (tier 2 basis)
C    0.372421  0.773696  0.142345
C    0.000198  0.096670  1.417258
O    0.759778  0.155525  2.436544
H    1.355910  0.413825  -0.188449
H    0.474424  1.851988  0.330240
H    -0.357644  0.619301  -0.658650
N    -1.156638  -0.577150  1.488718
C    -1.658989  -1.148016  2.744382
C    -0.787443  -2.329897  3.220173
O    -0.082664  -2.126774  4.271508
H    -1.775316  -0.559958  0.680867
H    -1.456558  -0.393077  3.518791
C    -3.201799  -1.294389  2.763110
C    -3.932162  -2.102573  1.680770
S    -5.687051  -1.643994  1.545565
C    -6.382243  -2.392408  3.044084
H    -3.591198  -0.264548  2.733451
H    -3.466469  -1.683203  3.756622
H    -3.852941  -3.184418  1.848542
H    -3.544828  -1.899678  0.669585
H    -6.201765  -3.474074  3.066094
H    -7.463245  -2.223262  2.973978
H    -6.020350  -1.915596  3.962290
N    -0.696779  -3.503125  2.612159
C    -1.267020  -3.991742  1.357551
H    -0.098613  -4.165634  3.108134
H    -1.626103  -3.166575  0.741928
H    -2.091427  -4.687985  1.553066
H    -0.481834  -4.523560  0.808024
Sr    1.469471  -0.456511  4.523684
