30
Energy: -113702.5546218  eV PBE+vdW (tier 2 basis)
C    -0.592913  0.172070  -0.250447
C    -0.534295  0.080686  1.238482
O    0.572591  0.205061  1.851735
H    0.120117  -0.534398  -0.694219
H    -0.269852  1.180327  -0.548409
H    -1.591134  -0.015104  -0.659320
N    -1.672383  -0.118916  1.915375
C    -1.840232  -0.049362  3.377967
C    -1.364382  -1.363785  4.036093
O    -0.114822  -1.554902  4.193677
H    -2.525378  -0.208052  1.367445
H    -1.139106  0.719295  3.742299
C    -3.270034  0.393201  3.727242
C    -3.576550  1.847802  3.330966
S    -5.199034  2.422893  3.906747
C    -6.304251  1.688272  2.670588
H    -3.408148  0.303138  4.813984
H    -4.004510  -0.281010  3.252237
H    -3.498150  2.007490  2.244606
H    -2.851371  2.522966  3.808975
H    -6.315632  0.591892  2.706244
H    -6.062142  2.044230  1.661517
H    -7.308194  2.044621  2.929763
N    -2.265472  -2.245826  4.424232
C    -1.991481  -3.529067  5.071646
H    -3.243382  -1.996448  4.288760
H    -2.529808  -3.575446  6.025558
H    -0.918513  -3.622885  5.249832
H    -2.334214  -4.348332  4.427801
Sr    1.878736  -0.678483  3.483059
