30
Energy: -113702.9201209  eV PBE+vdW (tier 2 basis)
C    0.633858  2.561400  1.520630
C    0.448761  1.173174  2.031381
O    1.304303  0.270027  1.807467
H    0.699396  2.534072  0.424167
H    1.594718  2.949610  1.884907
H    -0.168652  3.244733  1.816711
N    -0.661784  0.887497  2.754250
C    -0.850565  -0.449446  3.294687
C    -1.450986  -1.439344  2.278329
O    -0.644275  -2.284285  1.778526
H    -1.337353  1.627100  2.926764
H    0.175701  -0.823645  3.364908
C    -1.291427  -0.575202  4.761193
C    -0.049678  -0.755939  5.661034
S    1.138265  -2.073428  5.175582
C    0.158658  -3.590286  5.393967
H    -1.968688  -1.431828  4.876218
H    -1.849385  0.306650  5.108567
H    -0.340505  -0.965567  6.698115
H    0.564495  0.155729  5.677526
H    0.849527  -4.431610  5.263879
H    -0.660864  -3.670365  4.671522
H    -0.227522  -3.620508  6.419210
N    -2.727936  -1.421139  1.930014
C    -3.786892  -0.522212  2.383901
H    -2.987544  -2.119435  1.231228
H    -3.446671  0.082757  3.228174
H    -4.651223  -1.111917  2.710592
H    -4.099028  0.138717  1.565452
Sr    1.708300  -2.045310  2.003099
