30
Energy: -113701.9639697  eV PBE+vdW (tier 2 basis)
C    -0.456355  1.540397  -1.275087
C    0.224677  1.217859  0.010884
O    1.479415  1.362808  0.141136
H    -0.337534  2.604757  -1.522255
H    -1.515674  1.270559  -1.288752
H    0.061706  0.982155  -2.069191
N    -0.489676  0.764918  1.069613
C    -1.737337  1.388272  1.540810
C    -1.450848  2.903056  1.678113
O    -0.253852  3.281933  1.943406
H    0.091385  0.402242  1.827116
H    -2.533387  1.231211  0.801244
C    -2.110178  0.657995  2.856095
C    -3.392477  1.057868  3.583147
S    -3.163405  2.600075  4.530387
C    -4.731295  2.670099  5.439582
H    -1.263293  0.751229  3.557545
H    -2.182331  -0.404884  2.581451
H    -3.635869  0.254303  4.291697
H    -4.242734  1.141315  2.889999
H    -5.588375  2.735706  4.759722
H    -4.688140  3.578237  6.051060
H    -4.829640  1.800614  6.099414
N    -2.383376  3.805232  1.433969
C    -3.817059  3.624865  1.217235
H    -2.080605  4.767021  1.593053
H    -4.330587  3.661095  2.189374
H    -4.026871  2.669362  0.728123
H    -4.175326  4.435029  0.574716
Sr    2.010150  3.037528  1.673964
