30
Energy: -113701.9428707  eV PBE+vdW (tier 2 basis)
C    0.144662  1.106030  0.395651
C    0.247310  0.918579  1.873202
O    1.161989  1.495722  2.543494
H    -0.409098  2.029183  0.161695
H    -0.351216  0.268335  -0.105294
H    1.156883  1.230780  -0.006986
N    -0.643897  0.140073  2.527043
C    -2.082875  0.184274  2.279445
C    -2.599113  1.557527  2.791499
O    -1.801983  2.388369  3.346422
H    -0.391303  -0.057054  3.496727
H    -2.254198  0.142529  1.192142
C    -2.791053  -1.017695  2.941962
C    -2.389372  -2.364552  2.321906
S    -3.364408  -3.753861  2.959616
C    -2.518757  -4.109667  4.523562
H    -3.878516  -0.899808  2.838548
H    -2.588958  -1.006142  4.025585
H    -1.317407  -2.571553  2.455077
H    -2.584708  -2.350604  1.239016
H    -3.028360  -4.987554  4.937746
H    -2.608361  -3.291359  5.248368
H    -1.466591  -4.368272  4.352483
N    -3.879555  1.839510  2.634478
C    -4.523518  3.081660  3.072739
H    -4.468842  1.138493  2.191836
H    -4.069889  3.945250  2.572262
H    -4.431558  3.196892  4.159154
H    -5.582466  3.031868  2.807252
Sr    0.301948  3.144765  3.922954
