30
Energy: -113702.4496840  eV PBE+vdW (tier 2 basis)
C    -1.619652  1.702243  -0.747680
C    -1.839052  0.978577  0.542788
O    -1.464080  -0.222786  0.664715
H    -1.965736  2.740728  -0.738090
H    -2.140938  1.158378  -1.547792
H    -0.549501  1.680931  -0.993586
N    -2.442649  1.652652  1.537313
C    -2.865494  1.245180  2.900195
C    -1.689542  0.808969  3.787463
O    -1.065544  -0.276155  3.574942
H    -2.699924  2.606377  1.298722
H    -3.245405  2.182502  3.321320
C    -4.081457  0.279719  2.961840
C    -3.928704  -1.188435  2.540047
S    -5.482111  -2.126969  2.424424
C    -5.990920  -2.246190  4.161090
H    -4.871589  0.729481  2.343484
H    -4.451689  0.314989  3.997313
H    -3.262185  -1.723080  3.250611
H    -3.541171  -1.246625  1.509599
H    -6.276351  -1.275051  4.579786
H    -5.222825  -2.731197  4.776328
H    -6.880125  -2.887991  4.149964
N    -1.353360  1.565937  4.824098
C    -1.918959  2.848284  5.264051
H    -0.592607  1.184495  5.387045
H    -2.966404  2.739164  5.570862
H    -1.827861  3.612512  4.483135
H    -1.345542  3.184514  6.132261
Sr    -0.916774  -1.961921  2.021468
