30
Energy: -113702.5395223  eV PBE+vdW (tier 2 basis)
C    -0.064462  -0.008466  -0.137587
C    0.005188  0.273375  1.326335
O    0.900882  1.043604  1.797032
H    -0.267359  0.935874  -0.663726
H    -0.838421  -0.735344  -0.404447
H    0.910237  -0.367425  -0.492167
N    -0.903968  -0.287706  2.134697
C    -1.104417  0.031668  3.560238
C    -0.041235  -0.690405  4.418258
O    1.107205  -0.156697  4.550732
H    -1.605221  -0.884023  1.700003
H    -0.886202  1.104754  3.681283
C    -2.572736  -0.208315  3.945510
C    -2.951253  0.350538  5.325092
S    -4.713642  0.163796  5.718531
C    -4.793611  -1.589396  6.173654
H    -2.825276  -1.281164  3.874679
H    -3.198703  0.287761  3.189476
H    -2.774073  1.435912  5.347503
H    -2.348248  -0.089693  6.134798
H    -5.831246  -1.764554  6.481573
H    -4.141170  -1.808716  7.028530
H    -4.578524  -2.259277  5.331081
N    -0.349576  -1.845352  4.976985
C    0.534172  -2.662443  5.808455
H    -1.300569  -2.182797  4.841399
H    0.759599  -3.606503  5.297038
H    0.034535  -2.882141  6.759021
H    1.459341  -2.114883  5.999138
Sr    2.401206  1.392518  3.461576
