30
Energy: -113702.3714054  eV PBE+vdW (tier 2 basis)
C    -0.494144  0.797600  -0.207766
C    -0.387904  0.563288  1.261762
O    0.716001  0.729986  1.869441
H    0.255788  0.190698  -0.731822
H    -0.252423  1.850387  -0.413328
H    -1.486723  0.575189  -0.612546
N    -1.480915  0.184575  1.939450
C    -1.555375  0.071311  3.404053
C    -0.814788  -1.190706  3.898187
O    0.391495  -1.040890  4.295488
H    -2.350443  0.092530  1.418906
H    -0.944703  0.893681  3.809468
C    -2.992705  0.285489  3.912995
C    -3.414003  1.763843  3.877069
S    -5.065161  2.052994  4.570703
C    -6.131176  1.559911  3.189037
H    -3.054394  -0.072535  4.950079
H    -3.702407  -0.321194  3.332999
H    -3.367496  2.179336  2.858206
H    -2.734701  2.362823  4.501836
H    -5.934491  2.170732  2.299286
H    -7.155313  1.759927  3.525434
H    -6.055806  0.490842  2.954279
N    -1.358704  -2.396537  3.930120
C    -2.687772  -2.854444  3.512438
H    -0.744774  -3.109893  4.325084
H    -2.623457  -3.929291  3.318800
H    -3.001793  -2.361771  2.587830
H    -3.430661  -2.683241  4.300836
Sr    2.163963  0.200939  3.547581
