30
Energy: -113701.9090719  eV PBE+vdW (tier 2 basis)
C    -0.905557  -1.495156  0.989932
C    -0.266057  -0.651786  2.042194
O    0.931196  -0.864440  2.413210
H    -0.612355  -1.144419  -0.012507
H    -1.998248  -1.498569  1.052500
H    -0.525948  -2.519131  1.090585
N    -0.948267  0.374237  2.601789
C    -1.750477  1.323513  1.828317
C    -0.811807  1.989988  0.788251
O    0.456107  1.913733  0.923392
H    -0.496587  0.779347  3.423108
H    -2.548602  0.784477  1.295536
C    -2.390505  2.342690  2.809432
C    -3.439761  3.289199  2.216638
S    -4.187945  4.372852  3.470407
C    -5.344093  3.243212  4.292952
H    -1.596856  2.939144  3.286689
H    -2.856848  1.737162  3.600350
H    -4.233537  2.731439  1.692611
H    -2.991072  3.994822  1.503097
H    -5.871603  3.860148  5.030089
H    -4.838175  2.431530  4.828979
H    -6.079105  2.845009  3.583272
N    -1.374017  2.637737  -0.215293
C    -0.679734  3.398141  -1.255900
H    -2.391959  2.632144  -0.256593
H    -1.158109  4.378222  -1.362043
H    -0.740361  2.866739  -2.213919
H    0.365903  3.533160  -0.972345
Sr    2.337063  0.856595  1.754706
