30
Energy: -113702.6836523  eV PBE+vdW (tier 2 basis)
C    0.836136  0.969603  0.366598
C    0.299040  -0.135677  1.208446
O    1.058907  -0.916998  1.844541
H    1.509302  1.607798  0.952712
H    0.063300  1.574710  -0.115836
H    1.453582  0.507101  -0.419132
N    -1.047844  -0.343345  1.299621
C    -2.045035  0.698920  1.514020
C    -1.548206  1.669772  2.614815
O    -0.656041  1.288801  3.432077
H    -1.278350  -1.241017  1.723577
H    -2.198572  1.267175  0.587104
C    -3.407274  0.052650  1.910483
C    -3.384845  -1.273238  2.682968
S    -2.524298  -1.266721  4.314291
C    -2.990572  -2.910382  4.936454
H    -3.964901  -0.151843  0.985784
H    -3.996295  0.792418  2.467330
H    -2.990578  -2.101718  2.075347
H    -4.426404  -1.535062  2.913155
H    -2.526011  -3.021150  5.922909
H    -2.647404  -3.707119  4.268265
H    -4.079047  -2.947871  5.056462
N    -2.060325  2.888909  2.699899
C    -3.096324  3.527522  1.884355
H    -1.697195  3.440123  3.478582
H    -4.067067  3.489925  2.395587
H    -3.185874  3.046099  0.906818
H    -2.821073  4.575865  1.728446
Sr    0.459686  -0.651752  4.133871
