30
Energy: -113702.7680019  eV PBE+vdW (tier 2 basis)
C    -0.402700  0.062139  -0.216862
C    -0.695017  0.745841  1.077660
O    -0.333788  1.948572  1.271816
H    -0.904487  0.614066  -1.024554
H    -0.731562  -0.981791  -0.241957
H    0.674835  0.107775  -0.421694
N    -1.361133  0.072402  2.026387
C    -1.849013  0.660412  3.287405
C    -0.678753  0.797071  4.286005
O    0.045782  1.846621  4.251606
H    -1.635240  -0.884096  1.814541
H    -2.146079  1.694162  3.054824
C    -3.092513  -0.084844  3.795009
C    -3.951507  0.804024  4.703822
S    -3.039275  1.675571  6.016456
C    -2.888456  0.394972  7.287541
H    -2.822101  -1.022747  4.305905
H    -3.699464  -0.384822  2.926395
H    -4.770321  0.225698  5.150646
H    -4.418621  1.602588  4.109982
H    -2.405029  0.872041  8.147789
H    -2.277219  -0.457997  6.965931
H    -3.881709  0.047031  7.593773
N    -0.324847  -0.246636  5.021645
C    0.795979  -0.239022  5.962003
H    -0.935534  -1.057214  5.020419
H    1.733683  -0.018661  5.439604
H    0.868581  -1.226800  6.424143
H    0.632912  0.516936  6.740926
Sr    0.540250  3.463943  2.736886
