30
Energy: -113702.7503184  eV PBE+vdW (tier 2 basis)
C    0.817739  -0.284012  1.381227
C    0.016774  0.132807  2.565831
O    0.553441  0.651886  3.582992
H    1.464385  0.534914  1.043098
H    0.216267  -0.664992  0.550948
H    1.488629  -1.091410  1.715594
N    -1.336156  -0.057550  2.585385
C    -2.244404  0.276159  1.494356
C    -1.845373  1.650619  0.892223
O    -1.207746  2.490799  1.590524
H    -1.735516  0.051638  3.516540
H    -2.181412  -0.479923  0.697794
C    -3.713788  0.289622  2.016546
C    -3.972636  0.681832  3.476876
S    -3.444678  2.372426  3.987880
C    -4.182095  2.458266  5.647801
H    -4.114770  -0.728168  1.909711
H    -4.310611  0.926324  1.350386
H    -3.557202  -0.050599  4.185575
H    -5.060253  0.666572  3.630060
H    -3.927272  3.441521  6.059420
H    -3.799812  1.666999  6.301104
H    -5.271717  2.390100  5.554481
N    -2.212499  1.884260  -0.357738
C    -1.995625  3.131777  -1.093095
H    -2.697166  1.138532  -0.853245
H    -1.398252  3.809561  -0.479954
H    -2.960322  3.598552  -1.326583
H    -1.465924  2.916156  -2.028141
Sr    -0.445249  2.804292  3.793690
