30
Energy: -113702.7906185  eV PBE+vdW (tier 2 basis)
C    1.149352  -2.931334  2.115805
C    0.519688  -1.632876  2.501403
O    1.237381  -0.612298  2.738155
H    1.891141  -3.221399  2.870988
H    1.694885  -2.787321  1.172086
H    0.427046  -3.743988  1.986702
N    -0.816623  -1.567847  2.578795
C    -1.611638  -0.347550  2.780113
C    -1.603973  0.081291  4.267850
O    -0.600003  0.763823  4.679861
H    -1.333080  -2.420224  2.376990
H    -1.055335  0.462596  2.284357
C    -2.973774  -0.436220  2.049688
C    -3.802214  -1.730321  2.075802
S    -4.556910  -2.237404  3.669381
C    -3.564360  -3.686491  4.135314
H    -2.766153  -0.224679  0.989325
H    -3.591402  0.403282  2.398431
H    -3.261704  -2.597209  1.666902
H    -4.645454  -1.577747  1.389433
H    -4.031225  -4.090238  5.041461
H    -2.520841  -3.433043  4.365565
H    -3.619004  -4.451965  3.352824
N    -2.600966  -0.234773  5.055007
C    -2.690310  0.149221  6.462268
H    -3.370054  -0.843190  4.658242
H    -3.706866  -0.058121  6.808167
H    -2.476662  1.217377  6.579924
H    -1.980272  -0.426702  7.070218
Sr    1.558329  1.173351  4.118941
