30
Energy: -113702.5613963  eV PBE+vdW (tier 2 basis)
C    -0.253403  0.112643  -0.212074
C    -0.219418  -0.019631  1.274435
O    0.886888  -0.059676  1.897094
H    0.331216  -0.698670  -0.665380
H    0.238585  1.055092  -0.491775
H    -1.266438  0.103180  -0.627040
N    -1.380263  -0.082102  1.943191
C    -1.505036  -0.063404  3.412708
C    -1.093506  -1.445147  3.979232
O    0.118298  -1.573834  4.370364
H    -2.237055  -0.018074  1.398140
H    -0.719108  0.610837  3.784793
C    -2.856390  0.555042  3.818850
C    -2.909492  1.019957  5.274200
S    -2.633534  -0.373509  6.413699
C    -2.636345  0.488271  8.007726
H    -3.691668  -0.122870  3.605512
H    -3.001335  1.439740  3.179525
H    -3.893235  1.467654  5.469674
H    -2.149163  1.794898  5.456223
H    -2.476167  -0.279984  8.772123
H    -3.608685  0.963767  8.179764
H    -1.830613  1.229066  8.063057
N    -1.871961  -2.516846  3.946383
C    -3.264424  -2.681069  3.520917
H    -1.436739  -3.339705  4.363009
H    -3.421620  -3.741844  3.303072
H    -3.468383  -2.117952  2.605372
H    -3.956849  -2.377951  4.316024
Sr    2.136663  -0.846952  3.638842
