30
Energy: -113702.9454563  eV PBE+vdW (tier 2 basis)
C    0.584739  0.953254  1.037861
C    -0.098607  0.363114  2.223657
O    0.414206  0.419469  3.377388
H    0.759245  2.021832  1.224346
H    0.019192  0.836561  0.107721
H    1.572304  0.486201  0.922587
N    -1.302345  -0.239958  2.050060
C    -2.000388  -0.755267  3.216523
C    -1.510648  -2.159934  3.633370
O    -0.786358  -2.227245  4.673490
H    -1.722818  -0.247314  1.125055
H    -1.596010  -0.115344  4.006983
C    -3.502506  -0.488250  3.367742
C    -3.872723  -0.559664  4.858987
S    -2.831906  0.572193  5.888551
C    -3.588581  0.340145  7.525129
H    -4.135528  -1.195204  2.815663
H    -3.713450  0.516952  2.975736
H    -3.777344  -1.579011  5.258034
H    -4.909896  -0.232698  5.000969
H    -3.039113  0.983816  8.221127
H    -3.530210  -0.703958  7.849574
H    -4.630582  0.675764  7.484595
N    -1.812266  -3.252784  2.947940
C    -2.588873  -3.401682  1.718743
H    -1.410934  -4.108943  3.334775
H    -3.461785  -4.039892  1.903090
H    -1.966191  -3.868915  0.946182
H    -2.934795  -2.433117  1.351869
Sr    0.189171  -0.310120  5.630251
