30
Energy: -113702.2860796  eV PBE+vdW (tier 2 basis)
C    -0.160339  -1.001487  0.053757
C    -0.196525  -0.626524  1.498559
O    0.804989  -0.068183  2.046658
H    -0.033334  -0.085008  -0.540488
H    -1.063269  -1.520606  -0.283559
H    0.716375  -1.632060  -0.142665
N    -1.311148  -0.880271  2.197500
C    -1.595635  -0.431155  3.568172
C    -0.885236  -1.346277  4.600453
O    0.342111  -1.063244  4.837879
H    -2.081528  -1.327359  1.704356
H    -1.052171  0.516475  3.696882
C    -3.093466  -0.109556  3.748013
C    -4.102295  -1.005255  3.009226
S    -5.632679  -1.015177  3.991673
C    -6.717442  -2.017844  2.944149
H    -3.243042  0.927001  3.419689
H    -3.305161  -0.102324  4.828018
H    -3.744820  -2.043754  2.895309
H    -4.312446  -0.609754  2.004350
H    -7.671354  -2.079325  3.480604
H    -6.323226  -3.031682  2.806369
H    -6.888985  -1.531449  1.977019
N    -1.427880  -2.361449  5.250866
C    -2.750107  -2.994962  5.193583
H    -0.765403  -2.802972  5.890324
H    -2.842377  -3.631479  6.077826
H    -2.834526  -3.628282  4.301491
H    -3.571181  -2.267590  5.210089
Sr    2.121288  0.009494  3.898330
