30
Energy: -113702.5463300  eV PBE+vdW (tier 2 basis)
C    0.322263  -0.752503  0.275233
C    0.138035  -0.538775  1.739022
O    1.143875  -0.345031  2.503944
H    1.009276  -1.592600  0.108431
H    0.798991  0.139751  -0.154995
H    -0.620576  -0.939962  -0.247862
N    -1.096751  -0.540422  2.243933
C    -1.368700  -0.237763  3.651465
C    -0.870186  -1.388285  4.557247
O    0.148081  -1.135867  5.289595
H    -1.925309  -0.733443  1.647770
H    -0.683132  0.577709  3.924649
C    -2.770365  0.366631  3.909613
C    -4.053150  -0.359342  3.498663
S    -4.142129  -0.562627  1.680709
C    -5.528074  -1.717593  1.510799
H    -2.755251  1.352868  3.420597
H    -2.823342  0.574307  4.989114
H    -4.904910  0.254638  3.820661
H    -4.157714  -1.334004  3.989884
H    -5.660212  -1.880143  0.435396
H    -6.439081  -1.263136  1.915768
H    -5.323781  -2.676073  2.001464
N    -1.386058  -2.607307  4.572292
C    -2.417933  -3.227216  3.740906
H    -0.932057  -3.227833  5.244714
H    -2.013616  -4.158347  3.325643
H    -2.709427  -2.571099  2.914664
H    -3.296692  -3.471618  4.349852
Sr    2.174392  -0.338604  4.529651
