30
Energy: -113702.6950257  eV PBE+vdW (tier 2 basis)
C    -0.550993  1.736420  0.286791
C    -0.801423  0.966121  1.536521
O    0.043157  0.919683  2.471946
H    -0.223999  2.757173  0.518491
H    -1.399511  1.751960  -0.403228
H    0.294032  1.247994  -0.224757
N    -1.964924  0.265651  1.695408
C    -3.299457  0.766969  1.395151
C    -3.425030  2.235411  1.884412
O    -2.690071  2.669708  2.816842
H    -1.921088  -0.414229  2.451903
H    -3.475890  0.756351  0.309027
C    -4.374447  -0.152261  2.051294
C    -4.032027  -0.901878  3.347530
S    -3.490085  -0.010586  4.858621
C    -4.886374  1.097203  5.208060
H    -4.635701  -0.933762  1.322788
H    -5.289170  0.437932  2.193717
H    -3.255068  -1.667538  3.198166
H    -4.922573  -1.469400  3.651930
H    -4.692859  1.547121  6.189045
H    -5.801435  0.498341  5.283288
H    -4.997902  1.883855  4.454769
N    -4.336056  2.984160  1.279876
C    -4.651906  4.376069  1.606637
H    -4.858140  2.563467  0.513668
H    -4.518157  5.000272  0.715395
H    -3.981521  4.719347  2.397359
H    -5.693093  4.453504  1.942594
Sr    -1.111226  1.821709  4.351965
