30
Energy: -113701.7609430  eV PBE+vdW (tier 2 basis)
C    0.178363  -0.665872  0.001710
C    0.125646  -0.045642  1.359425
O    1.177366  0.448016  1.879996
H    -0.656884  -0.337284  -0.626808
H    0.122726  -1.763593  0.071338
H    1.126475  -0.398948  -0.474041
N    -1.022816  0.000768  2.076665
C    -1.969561  -1.111540  2.230246
C    -1.198759  -2.287376  2.892069
O    0.006655  -2.139268  3.288317
H    -0.950294  0.605742  2.894482
H    -2.692005  -0.758037  2.984644
C    -2.794607  -1.469681  0.961271
C    -4.233161  -1.931076  1.254212
S    -5.268690  -2.011627  -0.231688
C    -4.736343  -3.580206  -0.969502
H    -2.270331  -2.214815  0.348320
H    -2.869951  -0.552356  0.363098
H    -4.734493  -1.205000  1.911683
H    -4.289931  -2.910606  1.762759
H    -3.690916  -3.561228  -1.300038
H    -5.370419  -3.714407  -1.853796
H    -4.916855  -4.420128  -0.286811
N    -1.836051  -3.430116  3.056670
C    -1.276333  -4.616128  3.710875
H    -2.797946  -3.479621  2.721538
H    -2.036512  -5.401302  3.707258
H    -1.002509  -4.388179  4.747851
H    -0.392274  -4.971170  3.168489
Sr    1.951117  -0.919372  3.573162
