30
Energy: -113702.7691961  eV PBE+vdW (tier 2 basis)
C    0.074413  0.175146  -0.020154
C    -0.030298  0.172632  1.469366
O    0.991747  0.397345  2.190669
H    0.399872  1.173980  -0.344682
H    -0.865561  -0.073234  -0.523463
H    0.852653  -0.531580  -0.336152
N    -1.226172  -0.055707  2.028885
C    -1.536623  0.064035  3.466742
C    -1.052475  -1.203863  4.205198
O    0.175277  -1.285812  4.538408
H    -2.007131  -0.230447  1.400159
H    -0.912247  0.881104  3.859154
C    -3.011646  0.458674  3.651478
C    -3.315339  1.119016  4.998507
S    -2.825122  0.073201  6.411821
C    -3.294376  1.158216  7.785631
H    -3.681836  -0.399659  3.477624
H    -3.259702  1.186853  2.864486
H    -4.392093  1.326394  5.058029
H    -2.787178  2.082069  5.067790
H    -2.740728  2.103435  7.752802
H    -3.036609  0.619134  8.703835
H    -4.374366  1.343892  7.772587
N    -1.888588  -2.207316  4.395467
C    -1.559070  -3.438783  5.111758
H    -2.870478  -2.046771  4.185522
H    -0.540157  -3.749965  4.866651
H    -2.263584  -4.218828  4.809869
H    -1.640529  -3.275165  6.195140
Sr    2.147233  -0.273361  4.034920
