30
Energy: -113702.2140747  eV PBE+vdW (tier 2 basis)
C    -0.257214  0.277277  0.100139
C    -0.260512  0.090976  1.580283
O    0.714138  0.495783  2.290062
H    -0.204905  1.353409  -0.118763
H    -1.140249  -0.143456  -0.391558
H    0.646543  -0.178621  -0.325356
N    -1.314822  -0.502193  2.155714
C    -1.509172  -0.607891  3.607964
C    -0.554380  -1.660679  4.212407
O    0.519069  -1.233687  4.759162
H    -2.093719  -0.773452  1.559189
H    -1.127534  0.332077  4.030352
C    -3.013832  -0.716985  4.022490
C    -4.049793  -0.945535  2.910017
S    -5.756063  -0.957113  3.535859
C    -5.837564  -2.575873  4.347420
H    -3.278271  0.219329  4.527979
H    -3.111804  -1.498874  4.785922
H    -3.878543  -1.874086  2.340721
H    -4.050450  -0.108014  2.195676
H    -6.875966  -2.676797  4.684953
H    -5.190426  -2.641498  5.231066
H    -5.626745  -3.388614  3.640555
N    -0.793439  -2.962771  4.189732
C    -1.902070  -3.707388  3.588772
H    -0.087740  -3.518643  4.673999
H    -2.226127  -3.241321  2.654806
H    -2.751653  -3.783901  4.278692
H    -1.544977  -4.715938  3.359136
Sr    2.038949  0.366408  4.137638
