30
Energy: -113702.1187686  eV PBE+vdW (tier 2 basis)
C    0.567161  0.124170  0.378376
C    -0.173996  1.033999  1.302490
O    -0.260644  2.277751  1.052109
H    0.070736  0.058715  -0.600336
H    0.720568  -0.881209  0.780132
H    1.549036  0.584378  0.194319
N    -0.745837  0.546168  2.429066
C    -1.607922  -0.646703  2.396493
C    -3.034638  -0.115411  2.061664
O    -3.131760  0.888223  1.262247
H    -1.042546  1.273483  3.081406
H    -1.320039  -1.208876  1.493986
C    -1.400578  -1.593395  3.589149
C    -2.003607  -1.191258  4.948538
S    -3.486469  -2.225276  5.221812
C    -4.276481  -1.405898  6.630840
H    -0.313222  -1.711046  3.685780
H    -1.768065  -2.590632  3.301621
H    -2.286134  -0.126785  4.989760
H    -1.289076  -1.370196  5.760262
H    -5.180739  -1.983943  6.852712
H    -4.552500  -0.370866  6.398342
H    -3.613179  -1.441693  7.502265
N    -4.089911  -0.714618  2.553537
C    -5.465166  -0.350757  2.215259
H    -3.974554  -1.392869  3.359480
H    -6.131643  -1.079314  2.685449
H    -5.610357  -0.377469  1.129544
H    -5.712606  0.651699  2.588985
Sr    -2.404492  2.876839  0.401690
