30
Energy: -113701.9524530  eV PBE+vdW (tier 2 basis)
C    0.346257  -0.074683  0.706690
C    0.155404  0.318127  2.134171
O    1.152458  0.609078  2.870536
H    0.454841  0.818468  0.071233
H    -0.477816  -0.680852  0.317333
H    1.285357  -0.635808  0.628258
N    -1.085310  0.385043  2.666921
C    -2.222610  0.991065  1.982338
C    -1.940333  2.520479  1.875129
O    -0.884564  3.024612  2.383778
H    -1.101654  0.487865  3.683051
H    -2.278545  0.585781  0.960105
C    -3.531592  0.681791  2.730342
C    -3.879423  -0.806602  2.750870
S    -5.401736  -1.000027  3.729534
C    -5.626652  -2.795248  3.635501
H    -4.357872  1.234320  2.259558
H    -3.460891  1.070784  3.760661
H    -3.067719  -1.396613  3.204963
H    -4.035532  -1.177207  1.725251
H    -6.538635  -3.007232  4.205240
H    -4.788745  -3.328735  4.099296
H    -5.773067  -3.123812  2.600099
N    -2.822752  3.270340  1.243857
C    -2.716081  4.722687  1.068717
H    -3.649104  2.813534  0.865084
H    -3.581777  5.064152  0.495812
H    -1.801218  4.974521  0.519844
H    -2.710064  5.224768  2.043332
Sr    1.186049  2.857238  3.408044
