30
Energy: -113702.1542372  eV PBE+vdW (tier 2 basis)
C    0.337984  -0.349105  0.533774
C    -0.271330  -0.005812  1.853761
O    0.055915  -0.676513  2.886168
H    0.453445  0.519099  -0.119501
H    -0.270544  -1.102120  0.009133
H    1.317310  -0.802648  0.725104
N    -1.138558  1.025449  2.018430
C    -2.362702  1.295964  1.248036
C    -3.417776  0.234495  1.680997
O    -3.055334  -0.840029  2.279785
H    -1.255600  1.248989  3.007772
H    -2.727242  2.266488  1.617926
C    -2.163094  1.452800  -0.278359
C    -3.407309  1.881900  -1.070337
S    -4.344367  3.202442  -0.220123
C    -5.644608  3.534097  -1.441033
H    -1.801883  0.519090  -0.726304
H    -1.375266  2.208723  -0.401181
H    -4.074257  1.027006  -1.253492
H    -3.078538  2.255076  -2.048758
H    -6.295087  4.292738  -0.992024
H    -6.229019  2.633486  -1.659264
H    -5.200537  3.939097  -2.356815
N    -4.676168  0.516468  1.437265
C    -5.806236  -0.347770  1.771560
H    -4.860834  1.451165  0.989399
H    -5.637643  -1.364192  1.398110
H    -6.703580  0.063927  1.301815
H    -5.962201  -0.380975  2.857741
Sr    -1.656390  -2.030093  3.647698
