30
Energy: -113702.1027252  eV PBE+vdW (tier 2 basis)
C    0.616811  -0.457802  0.207101
C    0.179956  0.239175  1.450072
O    0.998632  1.014206  2.082102
H    0.956231  0.281782  -0.530653
H    -0.178341  -1.066764  -0.233913
H    1.475018  -1.104081  0.438667
N    -1.041457  0.063031  1.904625
C    -1.614057  0.646204  3.113404
C    -2.934159  -0.167309  3.291535
O    -3.411431  -0.676359  2.275282
H    -1.748754  -0.516569  1.414598
H    -0.913380  0.491320  3.946789
C    -1.905042  2.160046  2.902083
C    -1.864422  3.045022  4.141689
S    -0.235678  2.994051  5.001395
C    -0.322101  4.439561  6.100375
H    -2.898804  2.270274  2.443120
H    -1.195807  2.549875  2.156826
H    -2.610740  2.755853  4.891502
H    -2.050209  4.088746  3.859402
H    0.605691  4.462197  6.682808
H    -1.164397  4.301162  6.787087
H    -0.436992  5.364757  5.526982
N    -3.520828  -0.244923  4.500039
C    -3.023800  0.125532  5.818402
H    -4.401414  -0.758327  4.473008
H    -3.634241  0.924153  6.261944
H    -1.982537  0.459384  5.767157
H    -3.060264  -0.744042  6.486346
Sr    2.048569  2.577794  3.209089
