30
Energy: -113702.7710397  eV PBE+vdW (tier 2 basis)
C    -0.605040  1.059982  0.178955
C    -0.432646  0.413212  1.516686
O    0.630355  0.609948  2.184976
H    -1.591791  0.895330  -0.265801
H    0.159972  0.653156  -0.498844
H    -0.417467  2.138027  0.258331
N    -1.424230  -0.367934  1.965079
C    -1.468324  -1.312038  3.097834
C    -1.473885  -0.656524  4.489542
O    -0.679026  0.287927  4.809124
H    -2.225762  -0.433873  1.343199
H    -2.449144  -1.792907  2.987781
C    -0.414904  -2.443000  2.984098
C    -0.639596  -3.589300  3.978944
S    -2.384563  -4.145273  3.948557
C    -2.321255  -5.530143  5.117092
H    0.602132  -2.043833  3.109689
H    -0.480231  -2.828840  1.957015
H    -0.370091  -3.292942  5.004547
H    0.005268  -4.432371  3.699394
H    -3.344234  -5.917367  5.180996
H    -1.994006  -5.203030  6.110328
H    -1.664603  -6.318050  4.732154
N    -2.319422  -1.180040  5.354977
C    -2.436518  -0.773429  6.753314
H    -2.802807  -2.047271  5.051565
H    -3.394596  -1.134111  7.137852
H    -2.404294  0.317798  6.829712
H    -1.624781  -1.202695  7.356460
Sr    1.233126  1.357977  4.232348
