30
Energy: -113702.8964168  eV PBE+vdW (tier 2 basis)
C    -0.270804  -1.289376  0.607933
C    -0.273964  -0.591991  1.926617
O    0.798751  -0.097373  2.406082
H    0.054307  -0.579285  -0.165686
H    -1.250753  -1.692269  0.333108
H    0.466022  -2.103182  0.624479
N    -1.424516  -0.479980  2.596385
C    -1.568084  0.276527  3.851643
C    -0.886781  -0.481991  5.014951
O    0.263795  -0.078336  5.401477
H    -2.266575  -0.912875  2.208804
H    -0.956147  1.182039  3.729332
C    -3.016728  0.782945  4.051231
C    -4.120737  -0.163608  4.539601
S    -4.078711  -1.783627  3.692092
C    -5.655866  -2.515326  4.205997
H    -3.310482  1.226754  3.088634
H    -2.964409  1.618915  4.763302
H    -5.088984  0.311974  4.336919
H    -4.056405  -0.325852  5.624596
H    -6.487644  -1.925057  3.807118
H    -5.713101  -2.585328  5.297450
H    -5.682265  -3.521068  3.772621
N    -1.479182  -1.530794  5.544055
C    -0.919569  -2.337863  6.627024
H    -2.361995  -1.856298  5.092918
H    -0.378898  -1.697156  7.329882
H    -0.237633  -3.102866  6.231315
H    -1.741750  -2.837792  7.147298
Sr    2.109808  0.479669  4.172696
