30
Energy: -113702.1214829  eV PBE+vdW (tier 2 basis)
C    0.616383  -1.007105  0.658870
C    -0.271846  0.200490  0.695191
O    0.027047  1.263587  0.126539
H    0.881180  -1.224535  -0.382898
H    0.177464  -1.898015  1.120627
H    1.552497  -0.762154  1.179938
N    -1.450723  0.083992  1.386986
C    -2.335688  1.192261  1.761126
C    -3.046975  1.864093  0.577524
O    -4.292115  2.174086  0.715351
H    -1.660748  -0.815826  1.805619
H    -3.142574  0.722787  2.339794
C    -1.625079  2.237643  2.677827
C    -2.439889  2.823046  3.832289
S    -3.685443  4.145778  3.535923
C    -2.721641  5.467420  2.741824
H    -1.148485  3.024118  2.079164
H    -0.793345  1.701910  3.158945
H    -1.756511  3.276394  4.563680
H    -3.002428  2.048994  4.374690
H    -3.381235  6.338791  2.655654
H    -2.346890  5.176134  1.755418
H    -1.889535  5.730746  3.405198
N    -2.366308  2.135684  -0.504684
C    -2.906580  2.748450  -1.712134
H    -1.333313  1.892043  -0.431038
H    -3.953369  2.460849  -1.853207
H    -2.319165  2.402951  -2.568223
H    -2.828318  3.843581  -1.661886
Sr    -5.862250  3.301719  1.763574
