30
Energy: -113702.3918038  eV PBE+vdW (tier 2 basis)
C    -0.004944  -0.077319  -0.060172
C    -0.145932  0.122043  1.411442
O    0.809506  0.603472  2.098420
H    0.872584  -0.705366  -0.263065
H    0.185986  0.898280  -0.529816
H    -0.887966  -0.528686  -0.523888
N    -1.303013  -0.205133  2.002929
C    -1.628259  0.077906  3.410185
C    -0.859711  -0.869793  4.354304
O    0.218002  -0.424191  4.880692
H    -2.052884  -0.558801  1.412293
H    -1.197445  1.065589  3.638170
C    -3.151309  0.184367  3.608474
C    -3.724712  1.494761  3.040684
S    -5.536004  1.518733  2.969397
C    -5.971988  1.771742  4.711584
H    -3.365746  0.120897  4.684643
H    -3.668479  -0.663459  3.137608
H    -3.412342  1.640870  1.995722
H    -3.356856  2.361760  3.611546
H    -5.534052  2.700783  5.096254
H    -5.698714  0.919781  5.345320
H    -7.063730  1.870784  4.725612
N    -1.255405  -2.100682  4.638545
C    -2.409620  -2.865912  4.155243
H    -0.654673  -2.576578  5.312479
H    -2.182638  -3.928140  4.285886
H    -2.585873  -2.685149  3.091181
H    -3.312373  -2.626794  4.730077
Sr    1.971008  0.791943  4.048557
