30
Energy: -113703.4006575  eV PBE+vdW (tier 2 basis)
C    -0.701572  0.339037  -0.758483
C    -0.392936  0.034349  0.672635
O    0.638377  -0.624424  0.983690
H    0.152246  0.861428  -1.209510
H    -1.605644  0.940846  -0.896525
H    -0.817734  -0.609624  -1.301208
N    -1.257315  0.476485  1.607534
C    -1.234348  0.210326  3.059065
C    -0.099706  0.996086  3.750398
O    1.113105  0.679514  3.605113
H    -2.056638  0.999875  1.262235
H    -2.176493  0.637594  3.425511
C    -1.276083  -1.317996  3.364077
C    -0.660600  -1.776868  4.696610
S    0.996204  -2.559034  4.599412
C    0.597149  -4.220275  3.974409
H    -0.814554  -1.864449  2.534095
H    -2.336191  -1.603310  3.344589
H    -1.301128  -2.521885  5.184599
H    -0.541739  -0.960439  5.421358
H    1.547666  -4.757582  3.876731
H    0.086082  -4.190871  3.005891
H    -0.019912  -4.736946  4.717946
N    -0.471647  2.016500  4.515855
C    0.440363  2.893076  5.251194
H    -1.464129  2.226528  4.581960
H    1.429183  2.430695  5.291135
H    0.057985  3.039220  6.267217
H    0.511725  3.867536  4.751355
Sr    2.358287  -0.940395  2.499112
