30
Energy: -113702.8580960  eV PBE+vdW (tier 2 basis)
C    -1.226097  0.206127  0.595122
C    -0.644352  0.294498  1.968902
O    0.404310  0.995021  2.177326
H    -1.506751  1.217403  0.268194
H    -2.103913  -0.446064  0.547914
H    -0.465403  -0.155896  -0.108657
N    -1.255163  -0.364984  2.948982
C    -0.981675  -0.264258  4.389859
C    0.254486  -1.104421  4.785960
O    1.407740  -0.716216  4.414014
H    -2.142552  -0.887579  2.724881
H    -0.661387  0.771200  4.597017
C    -2.286116  -0.503613  5.182139
C    -3.121131  -1.769246  4.902051
S    -3.903512  -1.911691  3.248899
C    -5.205240  -0.650533  3.343482
H    -2.921696  0.377407  5.014869
H    -2.039618  -0.468487  6.255132
H    -3.916453  -1.836510  5.656538
H    -2.549269  -2.705902  4.984525
H    -4.805604  0.363323  3.457890
H    -5.896716  -0.888484  4.159686
H    -5.748050  -0.713488  2.393272
N    0.117324  -2.183952  5.532836
C    1.230272  -3.021393  5.989433
H    -0.821495  -2.451698  5.812584
H    0.840998  -3.756672  6.698093
H    1.987207  -2.404411  6.486291
H    1.688985  -3.544409  5.141484
Sr    2.438280  0.876847  3.123884
