30
Energy: -113702.2891928  eV PBE+vdW (tier 2 basis)
C    0.271345  -0.621152  0.306886
C    -0.049920  0.444029  1.299183
O    0.585031  1.546878  1.306623
H    1.333388  -0.888459  0.390728
H    0.122837  -0.220507  -0.705790
H    -0.338517  -1.522320  0.426970
N    -1.028407  0.237674  2.193073
C    -1.468952  1.295231  3.111930
C    -0.347828  1.640233  4.119754
O    0.135595  2.826279  4.037085
H    -1.561818  -0.627378  2.142157
H    -1.513062  2.210324  2.502795
C    -2.926677  1.122264  3.591970
C    -3.344183  -0.005827  4.539712
S    -3.136041  0.514841  6.273214
C    -3.846673  -0.909583  7.141147
H    -3.515764  1.043701  2.664880
H    -3.222419  2.084009  4.038467
H    -2.812268  -0.951847  4.346174
H    -4.410583  -0.207374  4.369382
H    -3.780168  -0.676017  8.209713
H    -3.286930  -1.831060  6.940657
H    -4.901389  -1.035545  6.871095
N    0.208056  0.779035  4.956371
C    -0.113808  -0.612565  5.258291
H    0.922208  1.203879  5.548820
H    0.788757  -1.092423  5.648238
H    -0.429352  -1.144574  4.357049
H    -0.918025  -0.640080  6.012125
Sr    1.226406  3.576126  2.172922
