30
Energy: -113702.9328755  eV PBE+vdW (tier 2 basis)
C    -0.719435  0.467967  -0.720859
C    -0.972934  0.776849  0.715486
O    -0.913362  1.961035  1.154311
H    -1.399938  1.067886  -1.340028
H    -0.843984  -0.591597  -0.966674
H    0.301811  0.780582  -0.979122
N    -1.278412  -0.241158  1.556160
C    -1.560887  0.031851  2.957823
C    -0.285153  0.117366  3.819225
O    0.144280  1.279589  4.085001
H    -1.325694  -1.186799  1.185566
H    -1.889728  1.074687  2.920766
C    -2.791238  -0.654166  3.582943
C    -3.987297  0.310505  3.545590
S    -3.582257  1.926685  4.355740
C    -5.106231  2.862237  4.030955
H    -2.574286  -0.934921  4.622634
H    -3.063332  -1.579941  3.055679
H    -4.837545  -0.108589  4.097048
H    -4.307968  0.515156  2.514394
H    -4.978177  3.847337  4.493409
H    -5.945460  2.353809  4.517888
H    -5.290956  2.970566  2.957105
N    0.305753  -0.989789  4.239427
C    1.523872  -1.042041  5.052226
H    -0.125500  -1.878723  3.997225
H    1.862728  -0.022794  5.249666
H    2.303157  -1.593895  4.513540
H    1.311751  -1.550624  6.000047
Sr    -0.861082  3.213619  3.153696
