30
Energy: -113701.8196803  eV PBE+vdW (tier 2 basis)
C    -0.279632  0.354826  -0.295048
C    -0.141630  0.154524  1.176250
O    0.988980  -0.097949  1.698005
H    0.216559  1.285845  -0.607288
H    -1.318114  0.360702  -0.637419
H    0.259898  -0.462358  -0.794403
N    -1.223555  0.254368  1.984776
C    -2.200302  1.348567  1.900462
C    -1.410232  2.673964  1.932549
O    -0.263465  2.698218  2.506123
H    -1.061842  -0.078179  2.936691
H    -2.776733  1.265314  0.969946
C    -3.152336  1.202578  3.122150
C    -4.314181  2.192124  3.229536
S    -5.299005  1.924947  4.735172
C    -6.314306  0.496377  4.266570
H    -2.549636  1.270540  4.042596
H    -3.544863  0.176229  3.070678
H    -3.952882  3.225122  3.328654
H    -4.971394  2.145873  2.348467
H    -5.722513  -0.412154  4.105230
H    -6.978553  0.323315  5.121519
H    -6.930418  0.722653  3.388176
N    -1.889680  3.779992  1.389517
C    -3.120120  4.005119  0.625592
H    -1.300840  4.602635  1.529473
H    -3.833910  4.587527  1.220340
H    -3.585072  3.059504  0.339617
H    -2.869229  4.567690  -0.280795
Sr    1.716827  1.647169  3.049597
