30
Energy: -113701.9300853  eV PBE+vdW (tier 2 basis)
C    -0.092634  0.409204  -0.245905
C    -0.015110  0.084356  1.208837
O    1.104026  -0.113510  1.778017
H    0.057710  1.489196  -0.404274
H    -1.049600  0.122610  -0.693710
H    0.726767  -0.105631  -0.761104
N    -1.142447  0.020277  1.953316
C    -2.219497  1.009203  1.871740
C    -1.624945  2.381718  2.250665
O    -0.480270  2.441152  2.826507
H    -1.001208  -0.359468  2.890745
H    -2.602268  1.046141  0.841011
C    -3.360497  0.594514  2.831638
C    -4.066158  -0.700775  2.397436
S    -5.184321  -1.358518  3.660214
C    -6.616586  -0.257022  3.505566
H    -4.089063  1.412207  2.898607
H    -2.947105  0.473083  3.846276
H    -4.607634  -0.550525  1.450676
H    -3.336885  -1.505411  2.226074
H    -6.393792  0.772309  3.810670
H    -7.024679  -0.284706  2.488006
H    -7.369316  -0.660773  4.192780
N    -2.293149  3.497259  2.002548
C    -3.591582  3.671281  1.346561
H    -1.846295  4.346873  2.348245
H    -3.543287  4.562058  0.711310
H    -4.384004  3.812152  2.092779
H    -3.833597  2.810550  0.717431
Sr    1.602140  1.572370  3.295238
