30
Energy: -113702.3355568  eV PBE+vdW (tier 2 basis)
C    -2.828734  0.423083  -1.043707
C    -1.785774  -0.070478  -0.096394
O    -0.665626  -0.497379  -0.519481
H    -3.843755  0.325361  -0.645073
H    -2.741289  -0.140046  -1.980075
H    -2.653067  1.483123  -1.287757
N    -2.011846  -0.048020  1.237267
C    -2.613013  1.094821  1.920278
C    -1.637419  2.300426  1.765061
O    -0.456577  2.118624  1.297422
H    -1.309718  -0.547091  1.785518
H    -3.548434  1.364684  1.408197
C    -2.950654  0.685072  3.374735
C    -3.544573  1.767895  4.280798
S    -4.859461  2.704919  3.420366
C    -5.414758  3.813458  4.744479
H    -2.042140  0.293241  3.860485
H    -3.655837  -0.153274  3.289813
H    -2.771728  2.466774  4.632240
H    -3.975945  1.282849  5.165801
H    -6.183175  4.455948  4.300570
H    -4.592642  4.432156  5.120730
H    -5.861646  3.228518  5.555662
N    -2.089215  3.484918  2.101363
C    -1.316939  4.723840  2.029358
H    -3.081827  3.517775  2.453522
H    -0.384012  4.631653  2.597895
H    -1.920496  5.528827  2.456902
H    -1.081739  4.974549  0.987213
Sr    1.070105  0.929268  0.066158
