30
Energy: -113702.8779713  eV PBE+vdW (tier 2 basis)
C    -0.365982  0.041702  -0.369581
C    -0.199198  0.065269  1.111888
O    0.932856  -0.067870  1.651395
H    0.287029  0.784262  -0.845517
H    -1.399191  0.172495  -0.703472
H    -0.015177  -0.943688  -0.714355
N    -1.285450  0.231676  1.922998
C    -2.356058  1.200831  1.694533
C    -1.732075  2.547004  1.249223
O    -0.562984  2.852367  1.627310
H    -1.136112  -0.049253  2.894354
H    -3.046840  0.835857  0.919544
C    -3.159000  1.387431  3.005850
C    -2.509340  2.195148  4.137474
S    -0.992594  1.433156  4.858096
C    -0.920729  2.194378  6.507344
H    -3.451083  0.389032  3.363447
H    -4.097065  1.902659  2.754198
H    -3.223801  2.241215  4.969761
H    -2.283140  3.225585  3.834840
H    -0.865431  3.285497  6.439241
H    -0.023614  1.799593  6.997650
H    -1.802672  1.881398  7.076801
N    -2.485519  3.345912  0.509819
C    -2.114208  4.683849  0.045356
H    -3.401740  3.000511  0.230984
H    -2.136353  4.711411  -1.050522
H    -1.108065  4.919164  0.398392
H    -2.825357  5.421737  0.435487
Sr    1.226726  1.944011  2.887413
