30
Energy: -113702.5598519  eV PBE+vdW (tier 2 basis)
C    0.492231  -0.516149  0.122234
C    0.249567  0.027222  1.497225
O    0.997904  0.965584  1.940629
H    1.544856  -0.804009  0.008338
H    0.303511  0.290127  -0.601537
H    -0.152010  -1.366867  -0.122005
N    -0.743909  -0.516262  2.192278
C    -1.453996  -0.136773  3.420645
C    -0.665636  0.550150  4.529457
O    0.580216  0.370124  4.717844
H    -1.270078  -1.293392  1.707945
H    -2.261764  0.553080  3.122961
C    -2.110744  -1.421295  4.009420
C    -3.252615  -2.007208  3.162932
S    -2.811566  -2.718916  1.535013
C    -2.055264  -4.296745  2.019962
H    -2.522811  -1.180380  4.999666
H    -1.319459  -2.164967  4.182864
H    -4.005974  -1.238090  2.939336
H    -3.763429  -2.787820  3.742510
H    -1.155889  -4.163309  2.631788
H    -2.790809  -4.913854  2.548245
H    -1.780720  -4.799340  1.085530
N    -1.347826  1.319064  5.376688
C    -2.770203  1.678719  5.369765
H    -0.804120  1.639967  6.176535
H    -3.084493  2.026342  4.379063
H    -2.912631  2.499203  6.078561
H    -3.400901  0.837101  5.682793
Sr    2.441375  1.164172  3.648581
