30
Energy: -113701.8246927  eV PBE+vdW (tier 2 basis)
C    -1.760450  1.496499  0.247759
C    -0.514119  1.242520  1.029972
O    0.567039  1.841799  0.720766
H    -1.624818  2.406432  -0.344712
H    -2.635791  1.603682  0.898286
H    -1.963704  0.664914  -0.445133
N    -0.489180  0.384363  2.078840
C    -1.069687  -0.965788  2.095834
C    -0.355937  -1.796926  0.991909
O    0.594500  -1.292234  0.303994
H    0.367894  0.467887  2.625004
H    -0.750572  -1.393004  3.060319
C    -2.613752  -1.051641  2.064232
C    -3.281625  -0.241285  3.183482
S    -5.081357  -0.450171  3.224795
C    -5.600285  0.650893  1.881085
H    -2.900094  -2.104254  2.205480
H    -3.002974  -0.765622  1.078896
H    -3.033689  0.828898  3.116964
H    -2.927098  -0.587751  4.165506
H    -5.259663  0.309386  0.895352
H    -5.280709  1.683719  2.071975
H    -6.696287  0.625215  1.885551
N    -0.739556  -3.046145  0.806839
C    -0.133353  -3.974184  -0.152697
H    -1.509923  -3.393200  1.372889
H    -0.649072  -4.934491  -0.074220
H    0.929407  -4.118965  0.074655
H    -0.241376  -3.592156  -1.174583
Sr    2.064916  0.394538  -0.272458
