30
Energy: -113702.2056419  eV PBE+vdW (tier 2 basis)
C    -2.648209  -1.307008  0.260594
C    -1.233823  -1.041678  0.647964
O    -0.268508  -1.457917  -0.070731
H    -2.898456  -0.796480  -0.680546
H    -3.370516  -1.034028  1.036588
H    -2.730091  -2.384387  0.054300
N    -0.946772  -0.359515  1.781082
C    -1.627020  0.876879  2.156602
C    -1.071654  2.002140  1.258944
O    -0.273869  1.732272  0.295673
H    0.036925  -0.406469  2.052251
H    -2.708796  0.749449  1.933786
C    -1.559893  1.117698  3.670580
C    -2.363513  0.049347  4.433564
S    -4.068634  -0.182491  3.848256
C    -4.908326  1.272132  4.537058
H    -1.968374  2.111985  3.902469
H    -0.514115  1.131337  4.018736
H    -2.373031  0.285118  5.505630
H    -1.892647  -0.937602  4.330009
H    -5.963698  1.166446  4.261190
H    -4.534074  2.217316  4.126619
H    -4.828482  1.271928  5.630157
N    -1.468764  3.243742  1.477826
C    -1.062448  4.403096  0.678674
H    -2.103500  3.407699  2.254151
H    -1.384745  4.283636  -0.362534
H    0.026060  4.528766  0.713192
H    -1.536950  5.293586  1.098495
Sr    0.912677  0.275331  -1.040853
