30
Energy: -113702.4075163  eV PBE+vdW (tier 2 basis)
C    0.047655  -0.651339  0.070940
C    0.032349  -0.372931  1.536614
O    1.103445  -0.077348  2.153823
H    0.767347  -1.452440  -0.143026
H    0.405528  0.246958  -0.452446
H    -0.932789  -0.928883  -0.329211
N    -1.134633  -0.428277  2.193988
C    -1.332636  -0.024172  3.595594
C    -0.756017  -1.096596  4.553114
O    0.438795  -0.913613  4.971747
H    -1.969739  -0.641595  1.652418
H    -0.682625  0.847101  3.769440
C    -2.783322  0.417286  3.819931
C    -3.065501  0.860400  5.262011
S    -4.849549  0.649520  5.553083
C    -5.027197  1.404337  7.189604
H    -3.473580  -0.389738  3.534976
H    -2.987001  1.249158  3.130994
H    -2.776253  1.911191  5.407301
H    -2.498653  0.257796  5.991939
H    -6.088753  1.309808  7.445448
H    -4.764836  2.468256  7.162992
H    -4.433418  0.875164  7.944137
N    -1.409040  -2.183981  4.927459
C    -2.758318  -2.662412  4.593328
H    -0.878584  -2.768455  5.574386
H    -2.809722  -3.717832  4.875453
H    -2.944888  -2.590825  3.517218
H    -3.527390  -2.109812  5.148566
Sr    2.375157  -0.129788  4.040112
