30
Energy: -113701.8577958  eV PBE+vdW (tier 2 basis)
C    -0.006246  0.315446  -0.071271
C    -0.009864  0.009552  1.389941
O    1.072991  -0.238347  2.008789
H    0.204706  1.383826  -0.238737
H    -0.954530  0.068268  -0.559405
H    0.808791  -0.247794  -0.540785
N    -1.168701  0.012302  2.085848
C    -2.196955  1.038408  1.934715
C    -1.583275  2.385790  2.407700
O    -0.437947  2.397316  2.981981
H    -1.092787  -0.362908  3.032653
H    -2.454651  1.131810  0.869352
C    -3.467538  0.646447  2.716617
C    -3.289173  0.541826  4.234280
S    -4.953211  0.424335  4.959967
C    -4.558460  -0.014573  6.671240
H    -3.828671  -0.307355  2.308002
H    -4.251866  1.383003  2.498079
H    -2.764787  1.425770  4.639051
H    -2.717784  -0.359305  4.516844
H    -5.524825  -0.101826  7.181431
H    -3.972880  0.770273  7.164776
H    -4.045899  -0.982487  6.727797
N    -2.229067  3.521890  2.211661
C    -3.510218  3.764511  1.539093
H    -1.764504  4.344055  2.598437
H    -3.450057  4.732788  1.031742
H    -4.330018  3.796386  2.267718
H    -3.713189  2.994826  0.788991
Sr    1.598562  1.451013  3.505724
