30
Energy: -113702.1451308  eV PBE+vdW (tier 2 basis)
C    0.690083  -1.125319  0.325382
C    0.351106  -0.768565  1.731857
O    1.277741  -0.398115  2.551124
H    1.184600  -0.273150  -0.160432
H    -0.190034  -1.410921  -0.258936
H    1.406214  -1.958842  0.325706
N    -0.896390  -0.833129  2.144312
C    -1.380921  -0.559164  3.489512
C    -2.779546  -1.258260  3.500214
O    -3.328399  -1.443854  2.414486
H    -1.676910  -1.145473  1.536584
H    -0.695103  -1.020531  4.219508
C    -1.523775  0.966396  3.754195
C    -1.308903  1.381790  5.209257
S    0.418875  1.751168  5.730141
C    0.627919  3.466555  5.144435
H    -2.531944  1.279750  3.445764
H    -0.834271  1.516870  3.098893
H    -1.654529  0.624891  5.925491
H    -1.860571  2.300139  5.448790
H    0.463825  3.561803  4.065316
H    1.644628  3.784915  5.406726
H    -0.076384  4.104150  5.691042
N    -3.313083  -1.549425  4.698332
C    -4.641632  -2.150739  4.844056
H    -2.731765  -1.486427  5.526423
H    -5.118492  -1.758835  5.748165
H    -4.572336  -3.243949  4.912281
H    -5.242399  -1.887924  3.969107
Sr    2.526604  0.370441  4.182569
