30
Energy: -113702.3399487  eV PBE+vdW (tier 2 basis)
C    -0.709922  1.918149  1.228285
C    -0.121185  0.745618  1.942267
O    0.626471  0.911845  2.957341
H    -1.616851  2.269020  1.745248
H    -0.965353  1.701557  0.186255
H    0.015859  2.739479  1.265467
N    -0.380599  -0.513753  1.522491
C    -1.717991  -0.963157  1.141504
C    -2.560393  -1.054850  2.456718
O    -2.045592  -0.679993  3.572019
H    0.191111  -1.224058  1.982335
H    -2.176807  -0.170377  0.531361
C    -1.653178  -2.269207  0.305187
C    -2.592662  -2.310226  -0.908604
S    -4.387589  -2.403494  -0.581127
C    -4.592824  -4.166960  -0.193085
H    -1.810419  -3.146558  0.948919
H    -0.625775  -2.347313  -0.081085
H    -2.329689  -3.166281  -1.543631
H    -2.461093  -1.410985  -1.527128
H    -5.660194  -4.311981  0.009274
H    -4.014539  -4.474927  0.686139
H    -4.314668  -4.771646  -1.063394
N    -3.785367  -1.500995  2.359960
C    -4.717275  -1.625020  3.478336
H    -4.122841  -1.772640  1.387306
H    -4.340488  -2.339525  4.220712
H    -5.671868  -1.987365  3.086787
H    -4.877565  -0.653453  3.961564
Sr    -0.418742  0.217156  4.907095
