30
Energy: -113702.8350711  eV PBE+vdW (tier 2 basis)
C    -1.369887  -0.729867  0.401136
C    -0.866231  -0.944579  1.790778
O    0.249464  -1.534804  1.986720
H    -0.619877  -0.151680  -0.156606
H    -2.326941  -0.199427  0.374781
H    -1.473311  -1.695896  -0.110531
N    -1.607745  -0.497638  2.802822
C    -1.196796  -0.409269  4.212439
C    -1.339306  -1.780635  4.914296
O    -0.486269  -2.688588  4.653906
H    -2.471672  0.051556  2.567883
H    -0.110050  -0.223167  4.230848
C    -1.879555  0.798865  4.891790
C    -3.395797  0.985541  4.692587
S    -3.736753  1.701769  3.038859
C    -5.540755  1.555056  2.955095
H    -1.370495  1.705289  4.531789
H    -1.650805  0.755248  5.966918
H    -3.777113  1.674787  5.456989
H    -3.969155  0.047671  4.780770
H    -5.833381  1.980705  1.988558
H    -6.001300  2.146000  3.754798
H    -5.866244  0.509978  3.005074
N    -2.313834  -1.975142  5.783879
C    -2.552487  -3.205212  6.539481
H    -2.957299  -1.202907  5.940242
H    -3.429051  -3.729567  6.138138
H    -2.737059  -2.950864  7.588901
H    -1.674929  -3.850963  6.466499
Sr    1.241631  -3.137260  3.211161
