30
Energy: -113701.9178127  eV PBE+vdW (tier 2 basis)
C    -0.458522  -0.516893  -0.535032
C    -0.238305  -0.804888  0.913067
O    0.729899  -1.537550  1.292787
H    0.188547  0.310707  -0.866188
H    -1.497487  -0.261195  -0.766250
H    -0.160621  -1.402289  -1.109567
N    -1.058558  -0.278828  1.850112
C    -1.512486  1.107863  1.832545
C    -0.273274  2.006138  2.118513
O    0.874068  1.489563  2.332313
H    -0.931172  -0.669610  2.784453
H    -1.866239  1.348182  0.819043
C    -2.678402  1.325748  2.825359
C    -2.319562  1.089144  4.296294
S    -3.725340  1.274439  5.431367
C    -3.959370  3.071766  5.438716
H    -3.499837  0.661072  2.524575
H    -3.060812  2.348356  2.693879
H    -1.492735  1.744876  4.620430
H    -2.001797  0.048433  4.471274
H    -4.295111  3.460152  4.469585
H    -3.055495  3.591088  5.781121
H    -4.757607  3.253484  6.168246
N    -0.445084  3.315368  2.113898
C    0.612828  4.299079  2.364195
H    -1.382988  3.669040  1.942187
H    1.432235  4.168469  1.648128
H    0.998856  4.194661  3.385434
H    0.189171  5.299066  2.242220
Sr    2.321504  -0.313328  2.442356
