30
Energy: -113702.7383907  eV PBE+vdW (tier 2 basis)
C    -0.199170  0.384619  0.400694
C    -0.136835  -0.056488  1.827013
O    0.949088  -0.512721  2.306725
H    -1.179083  0.773188  0.105737
H    0.056184  -0.469964  -0.241819
H    0.562978  1.154729  0.222287
N    -1.245416  0.043798  2.568443
C    -1.518931  -0.472991  3.925818
C    -0.748161  0.267475  5.024084
O    0.504041  0.113667  5.183017
H    -2.078357  0.365527  2.078385
H    -2.593714  -0.268911  4.050168
C    -1.392132  -2.002427  4.050831
C    -2.251257  -2.755128  3.016763
S    -3.944738  -2.132626  2.789824
C    -4.759052  -2.701047  4.310145
H    -1.701113  -2.269050  5.072476
H    -0.346348  -2.335368  3.945951
H    -2.284293  -3.821305  3.278040
H    -1.798968  -2.692238  2.017428
H    -5.809881  -2.405141  4.213011
H    -4.347696  -2.238533  5.215267
H    -4.707855  -3.793597  4.382695
N    -1.458012  1.038646  5.832999
C    -0.932304  1.783380  6.977327
H    -2.451879  1.131619  5.637530
H    -0.800301  2.840537  6.713047
H    0.028179  1.357662  7.277030
H    -1.643278  1.708996  7.806835
Sr    2.335813  -0.680764  4.076353
