30
Energy: -113702.5722817  eV PBE+vdW (tier 2 basis)
C    0.552086  0.007891  0.233829
C    0.128323  0.597298  1.538315
O    0.884686  1.410910  2.158177
H    1.532769  -0.472393  0.344568
H    0.677684  0.825024  -0.491489
H    -0.162783  -0.716932  -0.168981
N    -1.069664  0.263693  2.033805
C    -1.735886  0.874867  3.198418
C    -1.160231  0.291371  4.509201
O    -0.039927  0.723434  4.933940
H    -1.629736  -0.388865  1.488811
H    -1.452931  1.939694  3.209619
C    -3.257504  0.764760  3.044270
C    -3.826771  1.603427  1.895353
S    -5.603170  1.224257  1.777964
C    -6.097695  2.351522  0.449204
H    -3.731147  1.091671  3.981629
H    -3.547049  -0.291352  2.889562
H    -3.333339  1.370727  0.937911
H    -3.679290  2.675236  2.100530
H    -7.171974  2.186078  0.308479
H    -5.579787  2.117486  -0.488300
H    -5.936650  3.397775  0.733838
N    -1.847216  -0.633547  5.151659
C    -1.454898  -1.284292  6.402106
H    -2.745687  -0.902249  4.754583
H    -2.257178  -1.163432  7.139288
H    -0.538119  -0.825449  6.777336
H    -1.290161  -2.354433  6.225995
Sr    1.757374  1.928775  4.185580
