30
Energy: -113702.0534401  eV PBE+vdW (tier 2 basis)
C    -2.017186  0.968732  -0.410165
C    -0.987704  1.137438  0.660374
O    -0.013442  1.940077  0.499680
H    -3.029029  1.080160  -0.000906
H    -1.958598  -0.031129  -0.866781
H    -1.854500  1.717336  -1.190440
N    -1.060216  0.433270  1.813423
C    -1.358701  -1.002215  1.902382
C    -0.383807  -1.752178  0.981008
O    0.670379  -1.170648  0.545498
H    -0.452272  0.783095  2.553470
H    -1.081103  -1.249445  2.953023
C    -2.847022  -1.379655  1.846929
C    -3.634998  -0.621824  2.930529
S    -2.880506  -0.658417  4.585693
C    -3.300863  -2.330311  5.156368
H    -2.937392  -2.459564  2.043474
H    -3.290663  -1.205239  0.857072
H    -4.660764  -1.008340  2.986626
H    -3.707472  0.445279  2.679901
H    -2.915187  -2.400936  6.179809
H    -2.835767  -3.118171  4.552917
H    -4.389259  -2.457351  5.181499
N    -0.615815  -3.022489  0.696971
C    0.290591  -3.884428  -0.066570
H    -1.476756  -3.433981  1.045937
H    0.408187  -3.507490  -1.089492
H    -0.140023  -4.888160  -0.104725
H    1.271959  -3.933328  0.419539
Sr    1.935852  0.725608  0.202236
