30
Energy: -113703.2928264  eV PBE+vdW (tier 2 basis)
C    -0.588970  0.706220  0.006061
C    -0.298161  0.364411  1.435664
O    0.814838  -0.135123  1.752712
H    -1.586750  1.125942  -0.157571
H    -0.478659  -0.202685  -0.601032
H    0.163297  1.421296  -0.352586
N    -1.272841  0.612346  2.332619
C    -1.381437  0.348914  3.782845
C    -0.362520  1.116678  4.640224
O    0.877781  1.100568  4.399575
H    -2.112186  1.018600  1.929820
H    -2.356395  0.785163  4.030275
C    -1.543316  -1.145126  4.183212
C    -0.524522  -2.215120  3.784390
S    1.039140  -2.202293  4.755283
C    1.653013  -3.886229  4.443739
H    -2.498314  -1.464848  3.739707
H    -1.699082  -1.173686  5.272514
H    -0.295504  -2.196662  2.713309
H    -0.978754  -3.189525  4.009932
H    2.614900  -3.973335  4.961671
H    1.782300  -4.081650  3.373987
H    0.951896  -4.605151  4.882013
N    -0.821405  1.789755  5.691589
C    -2.202038  1.963112  6.158468
H    -0.091505  2.242522  6.241194
H    -2.817450  2.471843  5.405880
H    -2.175424  2.594467  7.050807
H    -2.657997  1.004973  6.435738
Sr    2.518860  -0.102224  3.301418
