30
Energy: -113702.2205043  eV PBE+vdW (tier 2 basis)
C    0.853307  -1.146311  1.364252
C    -0.051661  0.041100  1.223170
O    0.268737  1.045015  0.567244
H    1.739888  -0.838018  1.936047
H    1.205207  -1.447231  0.370334
H    0.390456  -2.002991  1.866020
N    -1.269913  -0.029657  1.854180
C    -2.193603  1.088825  2.057161
C    -2.830948  1.661337  0.778703
O    -4.096346  1.921268  0.812592
H    -1.488439  -0.889589  2.345168
H    -3.041485  0.663541  2.611262
C    -1.547470  2.200540  2.927630
C    -2.333651  3.490863  3.139016
S    -3.978638  3.412087  3.958175
C    -3.676791  2.575874  5.541317
H    -0.596281  2.495614  2.459609
H    -1.283908  1.746294  3.892706
H    -2.540674  4.013817  2.193896
H    -1.742370  4.184904  3.751159
H    -3.367137  1.535488  5.405428
H    -4.615673  2.618031  6.104681
H    -2.914087  3.143177  6.086761
N    -2.074114  1.912434  -0.255051
C    -2.516931  2.451267  -1.535153
H    -1.048691  1.679781  -0.094761
H    -3.607380  2.426302  -1.604987
H    -2.083267  1.848096  -2.340765
H    -2.160919  3.483622  -1.648409
Sr    -5.892372  2.500449  1.959583
