30
Energy: -113702.3769974  eV PBE+vdW (tier 2 basis)
C    -0.267213  -0.065590  -0.192181
C    -0.266767  -0.084990  1.299303
O    0.816915  0.037596  1.952424
H    0.423103  -0.831520  -0.569396
H    0.119442  0.906610  -0.530530
H    -1.258599  -0.224605  -0.628468
N    -1.432889  -0.221571  1.947846
C    -1.593333  -0.083174  3.403419
C    -1.039909  -1.330848  4.131014
O    0.146833  -1.253709  4.598950
H    -2.280390  -0.275920  1.386964
H    -0.905852  0.716470  3.719759
C    -3.016608  0.380952  3.757279
C    -3.223647  0.575299  5.264025
S    -4.847720  1.263228  5.690502
C    -5.921297  -0.178715  5.457245
H    -3.766896  -0.311470  3.352919
H    -3.177255  1.343731  3.250388
H    -2.502207  1.307579  5.656228
H    -3.065838  -0.360528  5.825164
H    -6.922192  0.149319  5.761778
H    -5.620199  -1.007727  6.111348
H    -5.978779  -0.502757  4.410503
N    -1.711121  -2.464797  4.260206
C    -3.055760  -2.831876  3.806217
H    -1.205220  -3.179588  4.784263
H    -3.113610  -3.924083  3.786764
H    -3.244893  -2.465278  2.793108
H    -3.823376  -2.453197  4.493082
Sr    2.097306  -0.358748  3.793756
