30
Energy: -113701.9745248  eV PBE+vdW (tier 2 basis)
C    -0.813528  -0.739221  -0.256868
C    -0.509700  -0.344164  1.136760
O    0.669977  -0.010141  1.495424
H    -1.231398  -1.753748  -0.327200
H    0.081452  -0.666941  -0.879930
H    -1.616942  -0.055106  -0.612202
N    -1.497057  -0.283173  2.067653
C    -2.512995  -1.322039  2.286275
C    -1.768296  -2.678172  2.478770
O    -0.513562  -2.699806  2.700238
H    -1.207127  0.202297  2.915018
H    -2.927762  -1.088137  3.281005
C    -3.716486  -1.348160  1.320749
C    -4.424590  0.012904  1.179718
S    -3.732254  1.162385  -0.051004
C    -4.544333  0.579064  -1.565942
H    -4.452670  -2.052561  1.743224
H    -3.436717  -1.744487  0.335762
H    -4.423005  0.555393  2.135905
H    -5.478158  -0.153623  0.920983
H    -4.283020  -0.457796  -1.810343
H    -4.185516  1.231697  -2.370234
H    -5.631664  0.689209  -1.482312
N    -2.473583  -3.793350  2.456076
C    -1.928177  -5.130057  2.711842
H    -3.468243  -3.718465  2.259286
H    -2.750919  -5.848782  2.682209
H    -1.455178  -5.165372  3.700034
H    -1.191980  -5.396410  1.944077
Sr    1.579692  -1.692914  2.757366
