30
Energy: -113702.2797580  eV PBE+vdW (tier 2 basis)
C    -1.111234  -1.419556  0.221051
C    -0.399706  -0.770030  1.361674
O    0.847529  -0.533050  1.305145
H    -1.415573  -0.662665  -0.519755
H    -2.003744  -1.969211  0.536954
H    -0.414491  -2.099551  -0.282421
N    -1.084945  -0.397949  2.467609
C    -2.375405  0.288394  2.405701
C    -2.158413  1.627469  1.642499
O    -0.972542  2.075792  1.448852
H    -0.489323  -0.104730  3.243283
H    -3.080976  -0.309771  1.811811
C    -2.931808  0.418550  3.842681
C    -4.251372  1.179829  4.030400
S    -5.585306  0.864901  2.827495
C    -5.897843  -0.911375  3.023520
H    -2.172791  0.899451  4.482643
H    -3.039393  -0.611003  4.212235
H    -4.099193  2.266615  3.974688
H    -4.630594  0.974858  5.040484
H    -6.743567  -1.139679  2.365091
H    -6.190847  -1.123091  4.058214
H    -5.044561  -1.535864  2.733516
N    -3.235210  2.229953  1.197219
C    -3.273545  3.504814  0.484751
H    -4.138741  1.745002  1.413416
H    -4.216174  4.007581  0.722881
H    -3.229837  3.339713  -0.599994
H    -2.435481  4.136423  0.793266
Sr    1.280518  1.745982  1.168956
