30
Energy: -113702.5718864  eV PBE+vdW (tier 2 basis)
C    0.187158  0.058736  0.071222
C    -0.055608  0.082880  1.543867
O    0.878749  0.389886  2.350156
H    1.048796  -0.583156  -0.152545
H    0.454627  1.075337  -0.252332
H    -0.678310  -0.280445  -0.507204
N    -1.280169  -0.210980  1.997746
C    -1.754336  -0.064844  3.386480
C    -1.267831  -1.255174  4.241409
O    -0.076812  -1.242816  4.693716
H    -1.985886  -0.449299  1.303653
H    -1.246613  0.817513  3.808076
C    -3.271125  0.184389  3.389874
C    -3.671939  1.537294  2.775375
S    -5.459463  1.721613  2.526671
C    -6.039575  2.015691  4.219914
H    -3.624785  0.143382  4.429862
H    -3.795544  -0.616537  2.839325
H    -3.246454  1.658949  1.768443
H    -3.288260  2.367974  3.387843
H    -5.909123  1.143936  4.872184
H    -7.113971  2.213300  4.127150
H    -5.560190  2.902296  4.652349
N    -2.101145  -2.250011  4.481078
C    -1.806425  -3.448731  5.266495
H    -3.041494  -2.166879  4.098998
H    -2.582641  -3.579658  6.029031
H    -0.833290  -3.335700  5.748522
H    -1.796965  -4.329353  4.612105
Sr    1.908038  -0.171361  4.291616
