30
Energy: -113702.6210623  eV PBE+vdW (tier 2 basis)
C    0.530586  0.188959  0.109710
C    0.175050  0.065362  1.556197
O    1.033288  -0.362455  2.387670
H    -0.269900  0.612080  -0.505563
H    0.783426  -0.810238  -0.273062
H    1.432033  0.806990  0.006674
N    -1.063409  0.414926  1.932451
C    -1.733508  0.253932  3.243315
C    -1.127950  1.168060  4.319788
O    -0.012826  0.873182  4.865684
H    -1.668998  0.737079  1.182265
H    -2.759587  0.594881  3.063953
C    -1.829502  -1.216728  3.699872
C    -2.712166  -1.418153  4.934959
S    -4.374925  -0.727559  4.633409
C    -5.243464  -1.267364  6.129197
H    -0.829730  -1.636321  3.893685
H    -2.240661  -1.786947  2.854917
H    -2.268405  -0.955687  5.830773
H    -2.803505  -2.495789  5.127953
H    -6.267730  -0.889887  6.033927
H    -4.786842  -0.844416  7.031117
H    -5.271797  -2.361513  6.183086
N    -1.780225  2.252670  4.700769
C    -3.080547  2.756321  4.238692
H    -1.316685  2.783386  5.438750
H    -3.326108  3.638935  4.835071
H    -3.857010  1.993309  4.393838
H    -3.035209  3.057276  3.185151
Sr    1.895043  -0.300401  4.477670
