30
Energy: -113702.1811045  eV PBE+vdW (tier 2 basis)
C    0.256683  0.630488  1.048300
C    -0.291271  -0.459843  1.911750
O    0.481358  -1.354578  2.381351
H    -0.090480  0.523832  0.009120
H    1.349005  0.582206  1.059121
H    -0.067501  1.617990  1.397298
N    -1.611290  -0.529713  2.207665
C    -2.699168  -0.329283  1.236146
C    -2.497175  -1.382604  0.095636
O    -1.575390  -2.271011  0.210103
H    -1.813015  -1.228698  2.921585
H    -3.605784  -0.650134  1.772073
C    -2.920155  1.155703  0.832184
C    -4.384796  1.589707  0.671835
S    -5.046117  1.209168  -0.991207
C    -6.832834  1.194368  -0.682577
H    -2.347232  1.416061  -0.069014
H    -2.501033  1.753116  1.652922
H    -4.450110  2.674818  0.820228
H    -5.022023  1.113216  1.430757
H    -7.306407  0.983478  -1.647928
H    -7.156395  2.183014  -0.339134
H    -7.111960  0.420462  0.040608
N    -3.312416  -1.356818  -0.925430
C    -3.280323  -2.308019  -2.034034
H    -4.047345  -0.587587  -0.963990
H    -4.035893  -2.002365  -2.763259
H    -3.511450  -3.321802  -1.683617
H    -2.296399  -2.308299  -2.518252
Sr    0.196576  -3.324415  1.196112
