30
Energy: -113702.1807647  eV PBE+vdW (tier 2 basis)
C    -2.054924  -1.530128  0.072450
C    -0.802697  -1.102605  0.757816
O    0.340282  -1.459112  0.324685
H    -2.092439  -1.144917  -0.956231
H    -2.964319  -1.250368  0.615605
H    -2.013838  -2.626352  -0.015061
N    -0.861099  -0.335735  1.872348
C    -1.701880  0.852589  1.969137
C    -1.005142  1.984187  1.179149
O    0.044763  1.744474  0.489166
H    0.022683  -0.276130  2.381151
H    -2.656567  0.627285  1.454071
C    -2.062746  1.168372  3.431780
C    -3.040134  0.136681  3.999425
S    -4.546370  0.108718  2.969927
C    -5.436422  -1.297269  3.689437
H    -2.521077  2.166141  3.494439
H    -1.150478  1.211981  4.047215
H    -3.299105  0.411346  5.030114
H    -2.587848  -0.865938  4.019511
H    -6.365435  -1.391940  3.116452
H    -5.683576  -1.094610  4.737296
H    -4.859055  -2.224387  3.600518
N    -1.544652  3.189081  1.200275
C    -1.030077  4.348848  0.466557
H    -2.389540  3.319513  1.751207
H    -1.629258  5.221279  0.738964
H    -1.107918  4.185092  -0.615191
H    0.015945  4.534916  0.734991
Sr    1.619175  0.322660  -0.412656
