30
Energy: -113702.8091303  eV PBE+vdW (tier 2 basis)
C    -2.158131  -1.414692  0.451942
C    -0.895240  -1.180715  1.209217
O    0.197014  -1.697144  0.847617
H    -2.030046  -1.151825  -0.605697
H    -3.029093  -0.901034  0.868853
H    -2.351565  -2.498459  0.480229
N    -0.898785  -0.395653  2.326408
C    -1.604062  0.879253  2.449184
C    -1.378638  1.707910  1.163783
O    -0.341692  1.494582  0.463641
H    -0.081945  -0.514434  2.929197
H    -2.676556  0.704496  2.608264
C    -1.053334  1.648102  3.675615
C    0.333289  2.294300  3.548170
S    1.723372  1.104178  3.318676
C    3.154710  2.062671  3.899033
H    -1.083503  0.965926  4.537765
H    -1.756893  2.459579  3.909801
H    0.554035  2.805923  4.494070
H    0.369387  3.044250  2.747434
H    4.034069  1.419950  3.777748
H    3.021473  2.283662  4.963673
H    3.276953  2.983548  3.319972
N    -2.240162  2.655923  0.823808
C    -3.471823  3.079187  1.495809
H    -1.976760  3.181029  -0.010941
H    -3.281469  3.940509  2.149008
H    -3.901462  2.264170  2.085165
H    -4.200796  3.371276  0.733100
Sr    1.615290  0.170475  0.447056
