28
Energy: -244829.149521 eV PBE+vdW (tier 2 basis)
C    -2.56922  -0.86642  -0.69043
C    -1.44503  -0.36339  0.17660
O    -0.25473  -0.48498  -0.14549
H    -2.38361  -1.91647  -0.94462
H    -2.56240  -0.29906  -1.63042
H    -3.55838  -0.77202  -0.22799
N    -1.80049  0.24622  1.34777
C    -0.82916  0.95429  2.18711
C    -0.07154  -0.07192  3.06779
O    -0.21796  -0.17229  4.31943
H    -2.78203  0.31040  1.59533
H    -0.07559  1.36840  1.49765
C    -1.52780  2.10935  2.91525
C    -0.60391  3.22205  3.45994
C    0.04225  2.80940  4.76178
O    1.27026  2.45595  4.78853
O    -0.70662  2.68946  5.79659
H    -2.16290  1.73014  3.72941
H    -2.19626  2.57102  2.17512
H    -1.22126  4.10848  3.65523
H    0.16697  3.49003  2.72707
N    0.73972  -0.86771  2.38130
C    1.49720  -1.95654  2.97377
H    0.69300  -0.76238  1.34860
H    2.37032  -1.57719  3.52454
H    0.86976  -2.54132  3.65825
H    1.85650  -2.60871  2.17276
Ba    0.62392  0.73720  6.48611
