28
Energy: -244827.462249 eV PBE+vdW (tier 2 basis)
C    0.29240  -0.60228  0.07482
C    0.29204  -0.08187  1.49894
O    1.32867  0.28636  2.03776
H    -0.67499  -0.60135  -0.43516
H    1.01600  -0.01495  -0.49975
H    0.65664  -1.63891  0.09626
N    -0.88333  -0.10861  2.24159
C    -2.28716  -0.11962  1.82358
C    -2.65118  -1.28417  0.86847
O    -3.39074  -1.10929  -0.10125
H    -0.71215  0.25462  3.17738
H    -2.84933  -0.34370  2.74516
C    -2.83498  1.23451  1.33239
C    -2.22186  1.76170  0.03842
C    -2.81712  3.03613  -0.47487
O    -3.84700  3.57403  0.08199
O    -2.29858  3.59648  -1.51917
H    -2.68907  1.96584  2.14055
H    -3.91818  1.12146  1.19764
H    -2.35316  1.02388  -0.77085
H    -1.13688  1.93164  0.11452
N    -2.14163  -2.48503  1.23417
C    -2.36098  -3.70504  0.47801
H    -1.49215  -2.49716  2.01392
H    -3.13457  -3.50517  -0.26980
H    -2.69878  -4.51222  1.13980
H    -1.44408  -4.02746  -0.03608
Ba    -3.97229  5.32281  -1.59558
