28
Energy: -244829.346171 eV PBE+vdW (tier 2 basis)
C    0.05478  1.25741  0.86037
C    -0.11376  0.28485  1.99129
O    0.66263  0.30497  2.97871
H    -0.58606  1.04269  -0.00079
H    1.10417  1.22219  0.54122
H    -0.13910  2.27765  1.21591
N    -1.10382  -0.64714  1.93599
C    -2.47063  -0.35887  1.50854
C    -2.92179  1.00094  2.09822
O    -2.34232  1.50866  3.08391
H    -1.09042  -1.29707  2.73799
H    -2.52504  -0.30544  0.41002
C    -3.40282  -1.51161  1.99042
C    -3.94715  -1.43366  3.43431
C    -2.91647  -1.13919  4.51830
O    -1.73839  -1.64493  4.41573
O    -3.19638  -0.30522  5.43077
H    -2.84742  -2.44705  1.83793
H    -4.26608  -1.55882  1.31353
H    -4.41936  -2.39960  3.66931
H    -4.73741  -0.67742  3.52163
N    -3.97686  1.58125  1.51990
C    -4.57817  2.81913  2.00900
H    -4.38408  1.13553  0.70489
H    -4.83255  2.72376  3.07109
H    -5.48858  3.01532  1.43637
H    -3.88743  3.66271  1.88530
Ba    -0.83548  0.65794  5.13013
