28
Energy: -244829.429666 eV PBE+vdW (tier 2 basis)
C    0.16896  -0.00032  -0.07356
C    -0.10044  -0.34020  1.37048
O    0.71939  -1.02471  2.01170
H    0.35099  -0.93197  -0.62328
H    1.08856  0.59616  -0.13010
H    -0.64143  0.55187  -0.56161
N    -1.25676  0.14382  1.88242
C    -1.88322  -0.01144  3.20365
C    -0.99758  0.47733  4.37610
O    0.24613  0.58339  4.32647
H    -1.81350  0.67466  1.22266
H    -2.69990  0.72527  3.17302
C    -2.61181  -1.37503  3.42888
C    -1.84776  -2.68938  3.24682
C    -0.61117  -2.82836  4.11782
O    -0.51874  -2.09617  5.16416
O    0.36206  -3.53547  3.70848
H    -3.46640  -1.38202  2.73667
H    -3.03792  -1.34400  4.44162
H    -1.54174  -2.84750  2.20482
H    -2.53314  -3.51847  3.48234
N    -1.68957  0.85417  5.46081
C    -1.04836  1.21698  6.71668
H    -2.69473  0.72230  5.46736
H    -0.19897  1.87839  6.51808
H    -0.69471  0.32164  7.24769
H    -1.77209  1.74387  7.34529
Ba    1.80284  -1.51581  4.25854
