28
Energy: -244829.067469 eV PBE+vdW (tier 2 basis)
C    -0.92110  0.05616  0.00742
C    -0.33554  -0.65104  1.18820
O    0.92426  -0.73994  1.34680
H    -1.23130  -0.68042  -0.74979
H    -0.15548  0.69769  -0.43704
H    -1.79476  0.65069  0.29867
N    -1.13384  -1.22833  2.09160
C    -2.54556  -1.59690  1.97494
C    -3.39943  -0.52220  2.70858
O    -3.19324  0.65739  2.44091
H    -0.64172  -1.67485  2.86554
H    -2.83138  -1.49977  0.91740
C    -2.68553  -3.07260  2.39115
C    -1.91214  -4.05627  1.49020
C    -0.40005  -3.89396  1.49552
O    0.22751  -3.77734  2.60951
O    0.21770  -3.84294  0.37799
H    -3.74700  -3.35402  2.34208
H    -2.36174  -3.20005  3.43621
H    -2.12234  -5.08024  1.83598
H    -2.25616  -3.99265  0.45012
N    -4.33847  -0.96113  3.57983
C    -5.23250  -0.05700  4.29051
H    -4.41943  -1.95416  3.75978
H    -6.27993  -0.32193  4.09975
H    -5.04452  -0.09039  5.37167
H    -5.04316  0.95716  3.92669
Ba    2.26486  -2.83297  1.41880
