28
Energy: -244827.544256 eV PBE+vdW (tier 2 basis)
C    -0.55119  1.41024  0.98180
C    0.02532  0.22206  1.72402
O    1.18870  0.16917  2.09877
H    -0.80781  1.14279  -0.05360
H    -1.46047  1.79918  1.46049
H    0.20961  2.19428  0.95914
N    -0.83416  -0.83419  1.99185
C    -2.21201  -1.00616  1.56602
C    -3.26390  -0.54429  2.60813
O    -4.47266  -0.64831  2.36546
H    -0.36514  -1.62225  2.43328
H    -2.38259  -0.37388  0.68171
C    -2.45726  -2.47916  1.16734
C    -3.75666  -2.67261  0.38322
C    -4.27348  -4.06768  0.30480
O    -3.94375  -4.95938  1.17896
O    -5.11967  -4.38046  -0.62308
H    -1.59907  -2.81100  0.56545
H    -2.47633  -3.10223  2.07354
H    -3.70182  -2.26685  -0.63623
H    -4.54871  -2.08432  0.89390
N    -2.76345  -0.03440  3.75381
C    -3.59485  0.47618  4.82898
H    -1.75188  0.00533  3.83382
H    -4.64080  0.38857  4.51826
H    -3.36581  1.53076  5.02988
H    -3.44317  -0.10070  5.75106
Ba    -5.50522  -6.57706  0.27422
