28
Energy: -244829.039079 eV PBE+vdW (tier 2 basis)
C    -0.94514  0.24951  1.58119
C    -2.32992  0.45085  2.10054
O    -2.60596  1.49080  2.78024
H    -0.73539  1.04668  0.85386
H    -0.24833  0.38053  2.41905
H    -0.78504  -0.72671  1.11370
N    -3.32488  -0.42477  1.86961
C    -3.48567  -1.45644  0.81550
C    -2.54543  -2.67150  1.02395
O    -1.39167  -2.67061  0.60148
H    -4.20255  -0.11970  2.28595
H    -4.52206  -1.79829  0.95142
C    -3.35455  -0.88327  -0.60478
C    -4.39913  0.19608  -0.95455
C    -4.25492  1.47899  -0.15818
O    -5.16203  1.80362  0.68898
O    -3.20506  2.19653  -0.31225
H    -3.47312  -1.72085  -1.30633
H    -2.33765  -0.50292  -0.76257
H    -5.41950  -0.18573  -0.82012
H    -4.27201  0.45468  -2.01529
N    -3.10923  -3.70900  1.69137
C    -2.39047  -4.93828  1.99455
H    -4.07353  -3.63009  1.99216
H    -2.30477  -5.08307  3.07935
H    -1.38873  -4.85620  1.56256
H    -2.90244  -5.80399  1.55598
Ba    -3.66375  3.50491  1.78008
