28
Energy: -244828.313820 eV PBE+vdW (tier 2 basis)
C    0.44110  0.26829  -0.09079
C    0.20420  -0.29890  1.29256
O    1.04077  -0.97388  1.87407
H    0.22973  1.34300  -0.16085
H    -0.17174  -0.26157  -0.83441
H    1.49341  0.09775  -0.33305
N    -1.02590  -0.09392  1.91019
C    -2.16726  0.75714  1.58957
C    -2.57692  0.66485  0.11125
O    -2.66944  1.66610  -0.64956
H    -1.04521  -0.52598  2.83143
H    -3.02384  0.27045  2.09268
C    -2.11860  2.16362  2.23428
C    -0.89516  3.06765  1.98781
C    -1.00963  3.81744  0.68343
O    -2.01590  4.59231  0.50987
O    -0.19400  3.58089  -0.27525
H    -2.17370  1.97481  3.31565
H    -3.03598  2.71160  1.97644
H    0.04588  2.50740  2.02646
H    -0.86770  3.81370  2.79428
N    -2.91085  -0.54378  -0.36272
C    -2.93163  -1.83224  0.32534
H    -3.18787  -0.53917  -1.34083
H    -3.55170  -2.51756  -0.26036
H    -3.37739  -1.73830  1.32249
H    -1.92437  -2.25389  0.42745
Ba    -2.12220  3.82379  -1.82279
