28
Energy: -244828.980384 eV PBE+vdW (tier 2 basis)
C    -0.71990  -0.34625  0.45784
C    -0.58608  -0.48132  1.95486
O    0.39553  -0.97358  2.51045
H    -0.38370  -1.27430  -0.01748
H    -0.05055  0.45524  0.11693
H    -1.73910  -0.11325  0.12736
N    -1.63828  -0.02608  2.71217
C    -1.48563  0.04221  4.15425
C    -1.08553  -1.29551  4.78956
O    -0.23479  -1.28498  5.72657
H    -2.41876  0.45138  2.27601
H    -0.61915  0.68470  4.37512
C    -2.74245  0.63834  4.85430
C    -2.44615  1.94328  5.62561
C    -1.33851  1.69140  6.62927
O    -1.57883  0.96882  7.65526
O    -0.14909  2.07706  6.34706
H    -3.16863  -0.09356  5.55347
H    -3.52145  0.83609  4.10465
H    -2.13628  2.74119  4.94004
H    -3.35533  2.25834  6.15337
N    -1.67707  -2.44666  4.46529
C    -2.70469  -2.72075  3.46670
H    -1.29105  -3.24924  4.95657
H    -3.22083  -3.64143  3.75785
H    -3.44300  -1.91548  3.42948
H    -2.26945  -2.85949  2.46833
Ba    0.76692  0.08337  7.53816
