28
Energy: -244827.394146 eV PBE+vdW (tier 2 basis)
C    -0.06453  1.19566  -0.52982
C    0.23132  0.36339  0.70041
O    1.37539  0.06629  1.02428
H    -1.00791  0.95328  -1.03173
H    -0.10190  2.25520  -0.23805
H    0.76906  1.06992  -1.22654
N    -0.82113  -0.04163  1.50291
C    -2.26439  0.08652  1.32315
C    -2.76541  -0.47711  -0.03477
O    -3.43462  0.21884  -0.80566
H    -0.49610  -0.55817  2.31482
H    -2.70490  -0.55675  2.10362
C    -2.76653  1.52392  1.54420
C    -4.28227  1.60846  1.71700
C    -4.85117  2.99249  1.69271
O    -6.08313  3.17919  2.03884
O    -4.15273  3.99683  1.28696
H    -2.46914  2.14476  0.69141
H    -2.25587  1.92037  2.43242
H    -4.77377  1.08444  0.87789
H    -4.64257  1.11565  2.63280
N    -2.45057  -1.76302  -0.33502
C    -1.70368  -2.74122  0.44446
H    -2.78573  -2.04864  -1.25053
H    -0.61821  -2.58247  0.38851
H    -2.00797  -2.72823  1.49912
H    -1.93244  -3.73778  0.05237
Ba    -6.05416  5.49299  1.36181
