28
Energy: -244829.319078 eV PBE+vdW (tier 2 basis)
C    -0.07256  -0.11799  3.15799
C    -0.05034  0.99222  2.14843
O    1.03710  1.46998  1.73981
H    0.40065  -1.01364  2.73622
H    -1.07765  -0.36736  3.51302
H    0.53779  0.19658  4.01445
N    -1.22245  1.51239  1.69195
C    -2.37846  0.70981  1.29930
C    -1.90049  -0.52403  0.49486
O    -0.74866  -0.55524  0.00092
H    -1.08489  2.30990  1.05152
H    -2.92232  0.36827  2.19246
C    -3.33639  1.60156  0.45184
C    -3.04671  1.71210  -1.06137
C    -1.60102  2.02767  -1.43307
O    -1.04916  1.39023  -2.37883
O    -0.93251  2.84448  -0.69818
H    -3.32393  2.59608  0.91794
H    -4.36045  1.22656  0.57125
H    -3.68394  2.51085  -1.47011
H    -3.32766  0.79309  -1.59151
N    -2.74079  -1.55253  0.32495
C    -4.12141  -1.68690  0.77766
H    -2.36949  -2.29456  -0.26459
H    -4.26293  -1.21147  1.75393
H    -4.35063  -2.75152  0.88721
H    -4.82755  -1.24883  0.05911
Ba    1.04386  1.20331  -0.89515
