28
Energy: -244827.841034 eV PBE+vdW (tier 2 basis)
C    -0.11278  -1.04295  0.44923
C    -0.44590  -0.91530  1.91260
O    -0.11994  -1.77472  2.74333
H    0.97968  -1.02895  0.33996
H    -0.54016  -0.24726  -0.17157
H    -0.46180  -2.01668  0.08604
N    -1.12894  0.20770  2.29019
C    -1.34748  0.55186  3.69833
C    -2.56143  -0.24850  4.23511
O    -3.68028  0.26846  4.51565
H    -1.40383  0.88249  1.58453
H    -0.47149  0.16673  4.24489
C    -1.39926  2.07707  3.85109
C    -1.17837  2.62091  5.28071
C    -2.43933  2.51954  6.10695
O    -2.54708  1.62412  7.01260
O    -3.43683  3.25706  5.77977
H    -2.34174  2.47807  3.44988
H    -0.58922  2.46943  3.22052
H    -0.91191  3.68292  5.20097
H    -0.35760  2.09460  5.78314
N    -2.33150  -1.55093  4.35267
C    -3.33758  -2.51558  4.76287
H    -1.41624  -1.87344  3.98213
H    -2.96268  -3.52132  4.55305
H    -4.27582  -2.36065  4.21474
H    -3.53754  -2.44237  5.84179
Ba    -4.94620  1.39728  6.34678
