28
Energy: -244827.290579 eV PBE+vdW (tier 2 basis)
C    0.77779  0.13661  1.16586
C    0.04893  -1.09934  1.66865
O    0.63800  -2.13516  1.94825
H    0.33217  0.54528  0.24892
H    1.81544  -0.14900  0.97505
H    0.77120  0.93131  1.92650
N    -1.31813  -1.00648  1.82355
C    -2.18980  0.10293  1.46745
C    -3.28342  0.26509  2.55197
O    -4.47370  0.08863  2.28853
H    -1.75463  -1.87888  2.11451
H    -1.57567  1.01504  1.46259
C    -2.81455  -0.10239  0.07559
C    -3.66491  1.05187  -0.45592
C    -2.94566  2.27925  -0.91875
O    -1.67091  2.42350  -0.76976
O    -3.61868  3.22146  -1.49551
H    -3.45755  -0.99101  0.12253
H    -1.99925  -0.33158  -0.62459
H    -4.40527  1.36494  0.29987
H    -4.28299  0.72258  -1.30577
N    -2.87445  0.61002  3.80461
C    -1.52228  0.80308  4.30649
H    -3.63511  0.62854  4.47805
H    -1.58135  1.33408  5.26247
H    -0.93021  1.42434  3.62163
H    -0.98915  -0.14498  4.46279
Ba    -1.67804  4.55787  -1.94880
