28
Energy: -244828.914453 eV PBE+vdW (tier 2 basis)
C    -0.27063  1.10317  -0.12619
C    -0.09836  0.43998  1.22440
O    0.97279  0.35490  1.79892
H    0.68832  1.54307  -0.41067
H    -1.03651  1.89158  -0.10636
H    -0.56202  0.37068  -0.89298
N    -1.24831  -0.07413  1.83079
C    -2.56161  -0.22466  1.23211
C    -3.46254  1.00265  1.45562
O    -4.52844  1.14501  0.79026
H    -1.03792  -0.62738  2.65872
H    -2.46040  -0.29381  0.13812
C    -3.26701  -1.52284  1.73103
C    -3.56670  -2.54053  0.60865
C    -4.56302  -1.91520  -0.33901
O    -5.79801  -1.88190  -0.00244
O    -4.13770  -1.27791  -1.36665
H    -4.20612  -1.27820  2.24562
H    -2.62009  -2.00334  2.47678
H    -2.64876  -2.80768  0.07084
H    -4.00116  -3.44411  1.05303
N    -3.05664  1.87976  2.36492
C    -3.75467  3.09800  2.74255
H    -2.15477  1.66177  2.79085
H    -3.94929  3.10000  3.82185
H    -3.15045  3.97852  2.48988
H    -4.70502  3.14370  2.20423
Ba    -6.01864  0.34220  -1.06211
