28
Energy: -244829.184523 eV PBE+vdW (tier 2 basis)
C    -3.01717  -1.26265  1.66035
C    -1.65509  -0.69511  1.35452
O    -0.91548  -1.17251  0.48459
H    -3.66586  -1.09311  0.79055
H    -3.48953  -0.81226  2.54101
H    -2.93559  -2.34714  1.79615
N    -1.28283  0.40659  2.08027
C    -0.01198  1.07206  1.81726
C    1.11297  0.30394  2.54677
O    1.61136  0.64885  3.65860
H    -1.77348  0.64586  2.94036
H    0.17937  0.90129  0.74840
C    -0.05506  2.60205  2.03067
C    -1.02642  3.17156  3.09107
C    -0.64981  2.69589  4.47005
O    0.23358  3.34103  5.13198
O    -1.10346  1.56979  4.89009
H    -0.33951  3.05068  1.07027
H    0.96296  2.95443  2.24697
H    -2.06089  2.88550  2.86220
H    -0.95985  4.26526  3.05733
N    1.49817  -0.79955  1.91172
C    2.47680  -1.74177  2.42983
H    0.90982  -1.06550  1.10560
H    2.86012  -2.34263  1.59994
H    3.30771  -1.19965  2.89349
H    2.03046  -2.41730  3.17456
Ba    1.13470  1.22838  6.02039
