28
Energy: -244828.838243 eV PBE+vdW (tier 2 basis)
C    -0.33759  -0.43469  -0.10458
C    -0.62096  0.21026  1.22138
O    -0.18323  1.36585  1.47068
H    0.74762  -0.45332  -0.26597
H    -0.77913  0.17851  -0.90104
H    -0.72849  -1.45481  -0.18527
N    -1.35480  -0.48739  2.10426
C    -1.67871  -0.03377  3.45885
C    -0.92741  -0.85533  4.54004
O    -0.06758  -0.28242  5.20203
H    -1.65458  -1.41144  1.81076
H    -1.19547  0.94022  3.55787
C    -3.18264  0.17318  3.71871
C    -3.86634  1.13197  2.72641
C    -3.09427  2.41508  2.48834
O    -2.96141  2.85253  1.29451
O    -2.49859  2.98151  3.47209
H    -3.26046  0.57296  4.73897
H    -3.73142  -0.77738  3.70902
H    -4.85707  1.40150  3.12312
H    -4.03737  0.65902  1.75171
N    -1.19839  -2.18117  4.71417
C    -2.27654  -3.00610  4.19114
H    -0.64358  -2.58446  5.46537
H    -1.96402  -4.05547  4.22833
H    -2.50051  -2.78009  3.14165
H    -3.20769  -2.90349  4.76868
Ba    -0.71676  3.76555  1.91622
