28
Energy: -244829.420050 eV PBE+vdW (tier 2 basis)
C    -1.10919  -1.16709  0.36327
C    -1.73576  -0.76760  1.67378
O    -2.76822  -1.33720  2.08031
H    -0.21206  -0.59367  0.10582
H    -0.85222  -2.23300  0.40185
H    -1.85459  -1.04052  -0.43226
N    -1.11781  0.23221  2.34748
C    -1.53189  0.90123  3.58814
C    -1.37060  -0.03374  4.80051
O    -1.60255  -1.26065  4.73340
H    -0.28629  0.60637  1.90574
H    -0.78424  1.69290  3.71865
C    -2.92507  1.61388  3.43072
C    -3.89177  1.66195  4.63329
C    -4.51676  0.28954  4.84058
O    -5.19454  -0.19731  3.87154
O    -4.20314  -0.40218  5.86149
H    -3.46262  1.11758  2.61416
H    -2.71412  2.63744  3.09615
H    -4.68764  2.37370  4.37580
H    -3.42179  2.00561  5.56169
N    -0.96249  0.52264  5.94962
C    -0.54920  1.89953  6.20566
H    -0.94174  -0.12768  6.73119
H    0.39266  2.14120  5.69368
H    -1.31983  2.62233  5.91212
H    -0.38523  2.00897  7.28140
Ba    -3.91130  -2.33142  4.16521
