28
Energy: -244828.491636 eV PBE+vdW (tier 2 basis)
C    -0.27261  -1.74567  -0.41725
C    0.19117  -0.86580  0.72440
O    1.37368  -0.69869  0.98245
H    0.53459  -2.44505  -0.65133
H    -0.44498  -1.11759  -1.30289
H    -1.19585  -2.30163  -0.21748
N    -0.75998  -0.19639  1.48423
C    -2.22020  -0.23118  1.43353
C    -2.72626  -1.65879  1.73215
O    -3.45977  -2.31112  0.93723
H    -0.33176  0.44196  2.14888
H    -2.54821  0.36513  2.30161
C    -2.79647  0.45659  0.17717
C    -4.20371  1.07994  0.32645
C    -5.27230  0.02215  0.21484
O    -5.48056  -0.50636  -0.93662
O    -5.83999  -0.43841  1.26417
H    -2.78618  -0.22335  -0.68442
H    -2.09198  1.26571  -0.05344
H    -4.30207  1.61505  1.27961
H    -4.34558  1.79783  -0.49148
N    -2.34992  -2.22731  2.88503
C    -1.52689  -1.68269  3.96218
H    -2.65491  -3.19161  2.98711
H    -1.70735  -2.28121  4.86040
H    -0.45941  -1.72025  3.71219
H    -1.80932  -0.64767  4.18653
Ba    -5.82887  -2.67390  0.14604
