28
Energy: -244829.162026 eV PBE+vdW (tier 2 basis)
C    -1.79035  -0.24888  -0.93772
C    -0.94752  -0.00479  0.28981
O    0.27810  0.00279  0.28902
H    -1.31518  -1.01944  -1.55345
H    -1.81838  0.67544  -1.53179
H    -2.82141  -0.54374  -0.70805
N    -1.64114  0.21541  1.47301
C    -0.91347  0.74713  2.61527
C    -0.01121  -0.30472  3.26664
O    0.98281  0.05871  3.95587
H    -2.64196  0.37803  1.42982
H    -0.20913  1.51120  2.24928
C    -1.86779  1.38362  3.66634
C    -1.63078  2.89480  3.87932
C    -0.21119  3.09789  4.36396
O    0.69752  3.40191  3.51240
O    0.08303  2.79831  5.57162
H    -1.76343  0.87228  4.63268
H    -2.90900  1.22655  3.35137
H    -2.33395  3.26261  4.63677
H    -1.78302  3.44980  2.94556
N    -0.34424  -1.58007  3.11546
C    0.41369  -2.70408  3.64303
H    -1.11655  -1.75572  2.47621
H    1.18420  -3.02674  2.92922
H    0.89627  -2.40908  4.57946
H    -0.26749  -3.53887  3.83607
Ba    2.31557  1.99966  4.78982
