28
Energy: -244829.146312 eV PBE+vdW (tier 2 basis)
C    -1.18812  -0.89626  -0.83354
C    -0.39844  -0.96880  0.43906
O    0.87330  -0.92773  0.39562
H    -2.21825  -0.55531  -0.69291
H    -1.20437  -1.89198  -1.29918
H    -0.67110  -0.21500  -1.51754
N    -1.00024  -1.10438  1.62020
C    -2.36122  -1.50736  1.94967
C    -2.72469  -0.71180  3.22628
O    -1.83154  -0.41470  4.01822
H    -0.41196  -1.03260  2.45594
H    -3.02743  -1.26295  1.11197
C    -2.43081  -3.02326  2.27876
C    -1.91096  -3.96421  1.18476
C    -0.40217  -3.95527  0.99559
O    0.36709  -3.86294  2.01382
O    0.07187  -4.00158  -0.19361
H    -3.48101  -3.26558  2.49358
H    -1.86749  -3.20001  3.20583
H    -2.17787  -4.99552  1.46631
H    -2.38484  -3.77970  0.21177
N    -4.03800  -0.44530  3.40165
C    -4.56205  0.21609  4.58961
H    -4.68891  -0.71095  2.67131
H    -3.72522  0.39363  5.27134
H    -5.02290  1.17740  4.32925
H    -5.30672  -0.41745  5.08759
Ba    2.24304  -2.99946  0.57865
