28
Energy: -244827.568086 eV PBE+vdW (tier 2 basis)
C    -1.11749  -1.31645  1.91176
C    -0.13530  -0.17691  1.55076
O    1.06597  -0.34449  1.68931
H    -0.51067  -2.18851  2.17343
H    -1.72072  -0.99942  2.78034
H    -1.76283  -1.54471  1.04540
N    -0.69022  0.97692  1.09012
C    -2.09641  1.27802  0.89952
C    -2.16841  2.33979  -0.21926
O    -1.28544  3.18516  -0.32249
H    -0.05058  1.73132  0.83106
H    -2.61949  0.37095  0.56504
C    -2.77190  1.82023  2.19193
C    -4.28980  1.53517  2.28945
C    -4.51365  0.05308  2.40023
O    -4.72520  -0.65654  1.34499
O    -4.38236  -0.52391  3.54324
H    -2.60541  2.90378  2.26032
H    -2.26898  1.37854  3.06342
H    -4.82361  1.92819  1.41539
H    -4.68480  2.01956  3.19088
N    -3.27692  2.28010  -1.00109
C    -3.53520  3.23022  -2.07414
H    -3.90253  1.49018  -0.88949
H    -4.55637  3.62362  -2.00041
H    -3.39870  2.76460  -3.05951
H    -2.82131  4.05324  -1.97317
Ba    -4.13367  -2.72649  2.54662
