28
Energy: -244827.529465 eV PBE+vdW (tier 2 basis)
C    -0.04034  -0.24084  0.82542
C    0.11480  -0.11890  2.32825
O    1.06062  -0.60062  2.93766
H    0.87249  -0.69464  0.43166
H    -0.19902  0.73230  0.34144
H    -0.89095  -0.88660  0.56322
N    -0.85617  0.59523  3.01557
C    -2.15329  1.04582  2.54527
C    -2.36659  2.58449  2.61246
O    -3.49529  3.05452  2.48462
H    -0.70242  0.58144  4.02282
H    -2.22195  0.80121  1.47512
C    -3.30987  0.35005  3.27940
C    -3.34780  -1.16428  3.00526
C    -4.46790  -1.81653  3.75541
O    -4.46643  -1.81722  5.04693
O    -5.45458  -2.35449  3.12347
H    -4.24070  0.83278  2.95439
H    -3.21268  0.52804  4.36120
H    -2.40377  -1.62437  3.33840
H    -3.47834  -1.36888  1.93547
N    -1.23768  3.31262  2.77995
C    -1.22842  4.76479  2.79779
H    -0.36538  2.80174  2.86861
H    -0.64820  5.16490  1.95558
H    -0.79908  5.14138  3.73529
H    -2.26416  5.10861  2.71226
Ba    -6.63232  -2.88572  5.17395
