28
Energy: -244829.145239 eV PBE+vdW (tier 2 basis)
C    -0.96824  -0.70673  -0.47407
C    -0.43711  -0.69443  0.92813
O    0.81143  -0.54820  1.12951
H    -2.02767  -0.44220  -0.54438
H    -0.82417  -1.70967  -0.90057
H    -0.37835  -0.00172  -1.06910
N    -1.24474  -0.86274  1.97456
C    -2.60891  -1.36913  2.04636
C    -3.27117  -0.58558  3.20447
O    -2.57796  -0.20184  4.14594
H    -0.83895  -0.72888  2.90592
H    -3.11605  -1.19054  1.08927
C    -2.62717  -2.88089  2.40088
C    -1.82756  -3.79309  1.46218
C    -0.31668  -3.66146  1.57332
O    0.22559  -3.48777  2.71913
O    0.38604  -3.68800  0.50251
H    -3.67761  -3.20407  2.40840
H    -2.25067  -2.99847  3.42676
H    -2.06332  -4.83828  1.71932
H    -2.11132  -3.66496  0.40938
N    -4.60728  -0.41402  3.12795
C    -5.36328  0.23248  4.19596
H    -5.10420  -0.74458  2.30974
H    -6.40801  0.31888  3.88422
H    -5.30898  -0.35348  5.12230
H    -4.96160  1.23289  4.39744
Ba    2.27492  -2.49451  1.65144
