28
Energy: -244828.850467 eV PBE+vdW (tier 2 basis)
C    0.40141  -0.22181  -0.02517
C    0.45059  -0.37161  1.47619
O    1.41680  -0.83909  2.07728
H    1.34739  0.20845  -0.37236
H    0.31449  -1.22097  -0.47278
H    -0.43282  0.39444  -0.38025
N    -0.65441  0.06063  2.16707
C    -0.81119  -0.20181  3.59686
C    0.52425  0.07089  4.32101
O    1.08917  -0.77755  5.05874
H    -1.46849  0.37922  1.65329
H    -1.50963  0.56310  3.97966
C    -1.44955  -1.58736  3.82996
C    -2.14815  -1.81757  5.18836
C    -1.17623  -2.29395  6.24271
O    -0.55822  -3.39916  6.03041
O    -0.87938  -1.55183  7.23747
H    -0.70888  -2.37662  3.64688
H    -2.20877  -1.68760  3.04257
H    -2.90007  -2.60673  5.05173
H    -2.66539  -0.91539  5.53929
N    1.02654  1.31448  4.26368
C    0.56404  2.46756  3.50352
H    1.92536  1.40674  4.72843
H    -0.52914  2.53121  3.51269
H    0.91136  2.43585  2.46213
H    0.95708  3.37117  3.98087
Ba    1.47619  -2.35761  6.92488
