28
Energy: -244829.027971 eV PBE+vdW (tier 2 basis)
C    -1.04565  1.36815  0.11335
C    -1.38062  0.96317  1.51899
O    -2.06305  1.69476  2.26530
H    -0.41678  0.64058  -0.41142
H    -0.53618  2.33952  0.13214
H    -1.98090  1.50235  -0.44526
N    -0.91188  -0.24441  1.95036
C    -1.27451  -0.69708  3.28392
C    -0.36915  -0.09573  4.37766
O    -0.85041  0.80746  5.10063
H    -0.36966  -0.82481  1.31984
H    -2.18290  -0.12397  3.42848
C    -1.72688  -2.16278  3.46795
C    -3.27676  -2.28212  3.39969
C    -3.90716  -1.06897  4.08610
O    -4.51800  -0.20956  3.36239
O    -3.62521  -0.83614  5.30723
H    -1.38824  -2.50198  4.45530
H    -1.26698  -2.82881  2.72427
H    -3.58674  -3.20743  3.90176
H    -3.62792  -2.31728  2.36211
N    0.89351  -0.51387  4.53188
C    1.61277  -1.49498  3.73165
H    1.41258  -0.02447  5.25809
H    0.91899  -2.21730  3.29176
H    2.19272  -1.01424  2.93094
H    2.30161  -2.05132  4.37639
Ba    -3.36074  1.65584  4.66929
