28
Energy: -244828.752914 eV PBE+vdW (tier 2 basis)
C    -0.49365  0.22045  2.05409
C    -1.55366  0.07274  3.09983
O    -1.38079  0.57329  4.25500
H    0.40067  0.63580  2.52463
H    -0.83245  0.89935  1.25980
H    -0.25049  -0.73763  1.58063
N    -2.70699  -0.58130  2.86763
C    -3.44235  -0.89449  1.62356
C    -2.53707  -1.17693  0.40159
O    -2.41608  -0.36345  -0.50862
H    -3.32021  -0.55263  3.68240
H    -3.97843  -1.83109  1.84194
C    -4.52278  0.17216  1.33354
C    -4.05970  1.63179  1.24520
C    -3.63490  2.25635  2.55806
O    -2.63517  3.05878  2.56636
O    -4.24613  1.95745  3.64723
H    -5.29713  0.08746  2.10963
H    -4.99537  -0.10663  0.38254
H    -4.90998  2.23408  0.88544
H    -3.25853  1.76011  0.51024
N    -1.90743  -2.38538  0.38486
C    -2.03739  -3.48737  1.33030
H    -1.39169  -2.55458  -0.47482
H    -1.87193  -3.15383  2.36252
H    -1.26966  -4.23219  1.09841
H    -3.01768  -3.98307  1.26419
Ba    -2.30563  2.77269  5.01319
