28
Energy: -244828.877272 eV PBE+vdW (tier 2 basis)
C    -0.12060  -0.53181  -0.26314
C    -0.34726  0.23073  1.01044
O    0.46409  1.12895  1.36509
H    0.88898  -0.96084  -0.24821
H    -0.17015  0.16681  -1.10897
H    -0.84880  -1.33394  -0.42585
N    -1.43800  -0.07849  1.72995
C    -1.79898  0.54832  3.00287
C    -1.69519  -0.39801  4.22615
O    -1.02826  -0.02508  5.18522
H    -2.03694  -0.80578  1.35335
H    -1.00270  1.26693  3.20858
C    -3.12925  1.32870  2.96882
C    -3.22382  2.37299  1.84189
C    -1.99168  3.24907  1.72908
O    -1.41675  3.66190  2.79780
O    -1.48561  3.47415  0.57667
H    -3.21100  1.82171  3.94660
H    -3.98924  0.64921  2.88741
H    -4.08798  3.02540  2.03946
H    -3.39680  1.90889  0.86338
N    -2.36439  -1.58629  4.23358
C    -3.17296  -2.21500  3.20273
H    -2.20386  -2.11600  5.08629
H    -3.85086  -2.93328  3.67603
H    -2.56852  -2.76918  2.46533
H    -3.80714  -1.48592  2.68239
Ba    0.78079  3.59655  1.63236
