28
Energy: -244828.742602 eV PBE+vdW (tier 2 basis)
C    -0.20096  -0.77397  0.60857
C    -0.17848  0.03387  1.89027
O    0.82581  0.60464  2.28026
H    0.76252  -1.28690  0.51924
H    -0.27785  -0.08489  -0.24352
H    -1.01303  -1.50551  0.53256
N    -1.33929  0.09268  2.67218
C    -2.71055  -0.26280  2.32133
C    -2.98255  -1.77091  2.49601
O    -4.09387  -2.28171  2.18281
H    -1.22333  0.73988  3.44856
H    -3.33897  0.18583  3.10931
C    -3.21092  0.31753  0.96217
C    -4.46298  1.21746  1.07113
C    -5.64975  0.37135  1.45663
O    -6.24135  -0.31032  0.54715
O    -5.93778  0.21495  2.69565
H    -3.40722  -0.48596  0.24014
H    -2.40128  0.92812  0.54834
H    -4.30575  2.00940  1.81440
H    -4.65055  1.67800  0.09368
N    -2.00889  -2.49168  3.04277
C    -2.09262  -3.91440  3.33149
H    -1.17326  -1.96699  3.29903
H    -1.08622  -4.34339  3.30661
H    -2.52864  -4.09401  4.32409
H    -2.71247  -4.40665  2.57517
Ba    -6.59830  -2.13409  2.16267
