28
Energy: -244828.956783 eV PBE+vdW (tier 2 basis)
C    -3.04935  -1.71209  0.55209
C    -1.75874  -1.03506  0.94431
O    -0.65923  -1.58350  0.88113
H    -3.02621  -1.91193  -0.52709
H    -3.94501  -1.12346  0.78252
H    -3.11026  -2.68151  1.06004
N    -1.85453  0.25910  1.38991
C    -0.65821  1.01549  1.70074
C    0.24436  0.22485  2.65753
O    -0.16639  -0.19197  3.77704
H    -2.75368  0.72340  1.44083
H    -0.07377  1.17013  0.77606
C    -1.06981  2.39898  2.26039
C    0.03657  3.21521  2.95783
C    0.24075  2.74192  4.38716
O    1.37444  2.29649  4.77061
O    -0.78672  2.68220  5.15244
H    -1.89035  2.26363  2.97913
H    -1.46974  2.97602  1.41552
H    -0.28863  4.26431  3.00050
H    0.99046  3.18588  2.41726
N    1.52045  0.10772  2.29602
C    2.52984  -0.54588  3.11005
H    1.75792  0.35603  1.34225
H    2.14582  -1.49698  3.50042
H    3.40728  -0.75109  2.49068
H    2.83910  0.10979  3.93712
Ba    0.09365  0.58931  6.12348
