28
Energy: -244827.660353 eV PBE+vdW (tier 2 basis)
C    -0.08114  0.01974  -0.02775
C    -0.50459  0.48633  1.34828
O    -0.48161  1.68207  1.66742
H    -0.00618  -1.06953  -0.12688
H    0.88614  0.47313  -0.27353
H    -0.80813  0.39188  -0.76180
N    -0.92039  -0.49263  2.20439
C    -1.41754  -0.30998  3.57479
C    -2.84678  0.28852  3.69899
O    -3.65225  -0.24303  4.46008
H    -1.00498  -1.42807  1.82479
H    -1.53330  -1.32445  3.97756
C    -0.45527  0.47256  4.49028
C    0.94462  -0.13069  4.53982
C    1.93663  0.63716  5.36260
O    3.13704  0.17841  5.50274
O    1.61773  1.75141  5.92385
H    -0.90517  0.47390  5.49264
H    -0.39491  1.51512  4.15917
H    1.38145  -0.20831  3.52986
H    0.94490  -1.16498  4.92205
N    -3.08251  1.40336  2.96522
C    -4.35868  2.09609  2.99100
H    -2.30111  1.79586  2.43551
H    -4.72698  2.26291  1.97060
H    -4.27637  3.06764  3.49921
H    -5.07489  1.47414  3.53723
Ba    3.84319  2.07896  6.81750
