28
Energy: -244829.155248 eV PBE+vdW (tier 2 basis)
C    -1.32668  0.84887  -1.82752
C    -0.87134  -0.22118  -0.88195
O    -0.34162  -1.28306  -1.33859
H    -2.30660  0.56137  -2.23521
H    -0.61838  0.90547  -2.66073
H    -1.42196  1.83379  -1.35916
N    -1.04227  -0.08672  0.43198
C    -1.90143  0.83518  1.16488
C    -1.48119  0.63636  2.64280
O    -0.85308  -0.37776  2.95786
H    -0.66178  -0.80699  1.06501
H    -1.70266  1.86983  0.85152
C    -3.40708  0.51863  0.95277
C    -3.82117  -0.92486  1.28942
C    -3.27712  -1.96531  0.32429
O    -2.61490  -2.95871  0.78508
O    -3.45691  -1.81284  -0.93550
H    -3.67044  0.73718  -0.09099
H    -3.99641  1.21086  1.56847
H    -4.91858  -0.98222  1.23359
H    -3.52621  -1.20956  2.30658
N    -1.84853  1.57206  3.54668
C    -2.56035  2.82534  3.34247
H    -1.58078  1.33344  4.49821
H    -2.20577  3.55837  4.07527
H    -3.64732  2.71144  3.46556
H    -2.35977  3.23549  2.34658
Ba    -1.58469  -3.44046  -1.43338
