28
Energy: -244829.040061 eV PBE+vdW (tier 2 basis)
C    -0.40856  -0.91481  0.48071
C    -0.25995  -0.03816  1.69013
O    0.82606  0.04750  2.30124
H    -1.40815  -0.87688  0.03412
H    -0.17840  -1.95084  0.75982
H    0.33223  -0.60855  -0.26865
N    -1.35983  0.66333  2.09047
C    -1.23967  1.57290  3.22225
C    -1.50201  0.82902  4.54865
O    -0.51009  0.36713  5.16116
H    -2.21994  0.57710  1.56006
H    -0.16076  1.71156  3.22729
C    -1.71552  3.02022  3.03267
C    -1.03590  3.95510  4.07475
C    0.40793  3.52671  4.35724
O    1.20204  3.34136  3.36885
O    0.72431  3.18121  5.53948
H    -2.80389  3.14612  3.07542
H    -1.39209  3.31131  2.02395
H    -1.58053  3.95700  5.02630
H    -1.04526  4.98047  3.68170
N    -2.74203  0.63906  5.01764
C    -4.01314  1.07281  4.45143
H    -2.77236  0.13849  5.90352
H    -4.28889  2.08035  4.79141
H    -3.98381  1.05967  3.35740
H    -4.79307  0.37319  4.76921
Ba    1.94750  1.16032  4.52225
