28
Energy: -244828.848784 eV PBE+vdW (tier 2 basis)
C    -0.49642  -0.51031  0.21730
C    -0.72845  -1.08982  1.59187
O    -0.22097  -2.13814  1.97373
H    -0.62697  -1.30228  -0.52879
H    0.54671  -0.17327  0.15260
H    -1.15556  0.33165  -0.02512
N    -1.57142  -0.36057  2.41507
C    -1.71469  -0.71422  3.82286
C    -3.21208  -0.87378  4.11354
O    -3.87232  -0.02805  4.78596
H    -1.87832  0.55810  2.11245
H    -1.24479  -1.70887  3.89539
C    -0.92252  0.24731  4.72529
C    -0.63722  -0.24657  6.16269
C    -1.83482  -0.02798  7.05276
O    -2.16300  1.18038  7.33928
O    -2.58597  -1.00897  7.38280
H    -1.39921  1.23741  4.76157
H    0.04316  0.37876  4.21966
H    0.19801  0.34181  6.56417
H    -0.35060  -1.30532  6.16801
N    -3.84437  -1.93409  3.59783
C    -3.32700  -2.99345  2.73536
H    -4.85013  -1.92612  3.75089
H    -2.25581  -3.14776  2.89307
H    -3.85677  -3.92303  2.96834
H    -3.48555  -2.74452  1.67734
Ba    -4.52253  0.54880  7.14881
