28
Energy: -244828.720791 eV PBE+vdW (tier 2 basis)
C    -0.42036  0.91651  0.03615
C    0.26305  0.03868  1.03981
O    1.52918  -0.07706  1.03663
H    0.30401  1.63681  -0.35396
H    -1.27935  1.44939  0.45938
H    -0.78360  0.30656  -0.80442
N    -0.44920  -0.64470  1.94575
C    -1.85568  -1.04930  1.82936
C    -2.69947  -1.10290  3.12690
O    -3.91557  -1.09001  2.96592
H    0.13124  -1.23426  2.54375
H    -2.37508  -0.28317  1.24327
C    -1.97382  -2.38793  1.05296
C    -1.09843  -3.54422  1.57968
C    0.38129  -3.32057  1.32835
O    0.80624  -3.24280  0.12600
O    1.17772  -3.13756  2.32360
H    -1.72062  -2.20598  -0.00118
H    -3.02993  -2.68305  1.08600
H    -1.38778  -4.45567  1.03803
H    -1.26516  -3.72563  2.64919
N    -2.15237  -1.19157  4.37243
C    -0.77375  -1.27937  4.83710
H    -2.87669  -1.20638  5.08566
H    -0.79766  -1.47925  5.91294
H    -0.21998  -0.34097  4.68933
H    -0.22599  -2.11351  4.37413
Ba    2.94252  -2.12749  0.81503
