28
Energy: -244827.457092 eV PBE+vdW (tier 2 basis)
C    -0.45780  1.78972  1.57219
C    0.65391  0.76068  1.49340
O    1.82128  1.06601  1.28393
H    -1.27002  1.58379  0.86194
H    -0.02408  2.76658  1.34442
H    -0.89700  1.82913  2.57936
N    0.31061  -0.56359  1.68530
C    -1.01183  -1.14181  1.88825
C    -0.90624  -2.30418  2.90414
O    -1.09052  -3.47669  2.56466
H    1.10857  -1.19228  1.63400
H    -1.64617  -0.36619  2.34147
C    -1.70113  -1.59112  0.58516
C    -0.85472  -2.54778  -0.25314
C    -1.53995  -3.15808  -1.43070
O    -0.84636  -3.85401  -2.27356
O    -2.81265  -3.04677  -1.60680
H    -1.94261  -0.69235  -0.00049
H    -2.65388  -2.07041  0.84464
H    -0.54133  -3.39787  0.37945
H    0.07431  -2.08428  -0.61740
N    -0.58755  -1.97456  4.18313
C    -0.34461  -0.65640  4.75216
H    -0.48609  -2.78130  4.79211
H    -0.37836  -0.74040  5.84299
H    -1.12477  0.05681  4.45488
H    0.63366  -0.24937  4.46173
Ba    -2.78518  -4.55953  -3.50250
