28
Energy: -244827.794314 eV PBE+vdW (tier 2 basis)
C    -0.95387  -0.78578  -0.14023
C    -0.72203  -0.95083  1.34684
O    0.20321  -1.60444  1.81935
H    -1.94118  -0.37597  -0.39126
H    -0.80299  -1.74774  -0.64334
H    -0.19506  -0.09804  -0.53728
N    -1.63342  -0.32741  2.16787
C    -1.38573  -0.25094  3.59955
C    -1.43760  -1.66152  4.20709
O    -2.23168  -2.53415  3.77195
H    -2.37708  0.25905  1.79794
H    -0.35619  0.11773  3.73911
C    -2.34237  0.76201  4.29144
C    -3.73597  0.29105  4.75030
C    -4.53067  -0.47759  3.71168
O    -5.17857  -1.51518  4.07415
O    -4.40910  -0.18031  2.47044
H    -2.43819  1.61751  3.60785
H    -1.82248  1.14806  5.17833
H    -4.31608  1.17856  5.04565
H    -3.67129  -0.34240  5.64400
N    -0.64345  -1.89470  5.24960
C    -0.58394  -3.17152  5.95161
H    0.04594  -1.18737  5.48159
H    -0.00942  -3.90857  5.37472
H    -1.59770  -3.55355  6.10902
H    -0.10214  -3.01883  6.92151
Ba    -4.13434  -2.68908  2.14369
