28
Energy: -244828.981793 eV PBE+vdW (tier 2 basis)
C    0.26013  0.76511  -0.02837
C    -0.06650  0.60555  1.43739
O    0.19944  1.43618  2.29348
H    -0.53402  1.35898  -0.50328
H    0.34048  -0.18978  -0.56260
H    1.19531  1.32463  -0.12893
N    -0.70569  -0.58503  1.78607
C    -1.35681  -0.68983  3.08722
C    -0.38011  -1.12129  4.18587
O    -0.73171  -1.11218  5.40137
H    -1.07698  -1.15835  1.03463
H    -1.67452  0.32256  3.38592
C    -2.60692  -1.59779  3.01792
C    -2.36621  -3.12580  3.02581
C    -2.15827  -3.61831  4.44690
O    -3.09369  -3.39976  5.29683
O    -1.03459  -4.10274  4.81237
H    -3.15435  -1.31068  2.10945
H    -3.26924  -1.35221  3.85684
H    -3.26538  -3.61778  2.63022
H    -1.51475  -3.42748  2.40291
N    0.82443  -1.51606  3.79966
C    1.85532  -2.00161  4.69740
H    0.99607  -1.47490  2.79693
H    2.82702  -1.93072  4.20039
H    1.88097  -1.38540  5.60420
H    1.67363  -3.05403  4.96238
Ba    -1.39504  -2.89626  7.01001
