28
Energy: -244829.077334 eV PBE+vdW (tier 2 basis)
C    -0.47182  1.08665  0.11653
C    -0.70315  -0.35740  0.44893
O    0.19544  -1.21891  0.18279
H    0.59585  1.29780  0.23529
H    -1.04952  1.77679  0.73934
H    -0.73361  1.25752  -0.93746
N    -1.84854  -0.76555  0.99379
C    -3.13640  -0.09205  1.09355
C    -3.73891  -0.56135  2.43849
O    -3.43866  -1.67687  2.86294
H    -1.89942  -1.74003  1.30518
H    -2.98299  0.99316  1.06014
C    -4.09063  -0.54366  -0.04555
C    -3.56655  -0.33509  -1.47200
C    -2.43614  -1.26647  -1.88062
O    -1.45862  -0.79199  -2.55897
O    -2.45674  -2.49169  -1.51289
H    -4.32242  -1.60761  0.10342
H    -5.03519  0.00536  0.07252
H    -3.25000  0.69980  -1.65616
H    -4.39468  -0.53368  -2.17126
N    -4.61798  0.25907  3.05931
C    -4.99601  1.61647  2.68757
H    -5.00931  -0.13141  3.91195
H    -5.72252  1.98108  3.41963
H    -5.47526  1.65881  1.69970
H    -4.13788  2.30343  2.70232
Ba    0.03134  -2.67998  -1.82739
