28
Energy: -244827.035891 eV PBE+vdW (tier 2 basis)
C    -0.43045  0.02044  0.26010
C    0.10486  0.73904  1.48017
O    1.30096  0.90225  1.69129
H    0.41928  -0.37501  -0.30145
H    -0.99895  0.70326  -0.38787
H    -1.10121  -0.80639  0.53172
N    -0.82484  1.22628  2.38076
C    -2.26226  1.28665  2.21904
C    -2.83038  2.27323  1.16981
O    -3.94147  2.02177  0.68728
H    -0.39812  1.72357  3.15775
H    -2.61952  0.30896  1.86179
C    -2.92730  1.56952  3.58507
C    -4.42574  1.25915  3.57323
C    -5.23390  1.88055  4.66404
O    -6.37375  1.35907  4.98171
O    -4.84504  2.95454  5.26487
H    -2.76385  2.61988  3.86786
H    -2.42228  0.94911  4.33996
H    -4.62772  0.17948  3.57286
H    -4.86315  1.62569  2.62175
N    -2.15245  3.39491  0.80753
C    -0.90971  3.98240  1.30156
H    -2.65828  3.92135  0.10064
H    -0.84376  4.99963  0.90121
H    -0.01840  3.43030  0.97905
H    -0.90026  4.06020  2.39628
Ba    -6.90029  3.10160  6.55326
