28
Energy: -244829.232157 eV PBE+vdW (tier 2 basis)
C    0.23086  0.34589  0.63901
C    -0.12539  0.58517  2.07737
O    0.77827  0.89275  2.91516
H    0.98812  -0.44657  0.58346
H    0.67969  1.25788  0.22415
H    -0.63137  0.06269  0.02686
N    -1.39979  0.46661  2.42894
C    -1.93996  0.62181  3.77381
C    -3.19593  -0.27802  3.77432
O    -3.76559  -0.48836  2.69910
H    -2.11719  0.15687  1.76154
H    -1.18276  0.27847  4.48903
C    -2.32358  2.10583  4.07135
C    -1.98521  2.59972  5.49484
C    -0.49247  2.48922  5.70242
O    -0.00554  1.41671  6.21309
O    0.26720  3.40157  5.22625
H    -3.39467  2.25181  3.87880
H    -1.78955  2.74129  3.35218
H    -2.51565  2.02498  6.26152
H    -2.28539  3.65137  5.57569
N    -3.65825  -0.76632  4.94605
C    -3.07211  -0.72635  6.27810
H    -4.52302  -1.29161  4.83627
H    -3.67813  -0.11386  6.96038
H    -2.05988  -0.31194  6.25188
H    -3.01202  -1.74288  6.68801
Ba    2.07330  1.74729  4.82442
