28
Energy: -244828.199220 eV PBE+vdW (tier 2 basis)
C    0.07369  0.56402  -0.32089
C    -0.07025  -0.35636  0.87023
O    0.78191  -1.19500  1.13043
H    0.02590  1.62168  -0.03657
H    -0.69718  0.37764  -1.08052
H    1.04988  0.35756  -0.76743
N    -1.16416  -0.26913  1.73245
C    -2.42671  0.46333  1.82502
C    -3.60961  -0.52928  1.81446
O    -4.39521  -0.55047  2.81065
H    -1.01754  -0.92274  2.49976
H    -2.47613  0.87240  2.84380
C    -2.60053  1.68228  0.89142
C    -4.02364  2.26581  0.82317
C    -4.74804  2.39421  2.14831
O    -6.00322  2.14728  2.18378
O    -4.08797  2.61353  3.22277
H    -2.31001  1.44038  -0.13559
H    -1.89566  2.44481  1.24705
H    -3.96681  3.26807  0.37151
H    -4.66940  1.67507  0.16020
N    -3.80243  -1.39126  0.81536
C    -3.02460  -1.56996  -0.40831
H    -4.57579  -2.03438  0.96950
H    -3.62095  -2.16968  -1.10205
H    -2.81869  -0.60803  -0.88724
H    -2.07843  -2.08857  -0.21027
Ba    -5.64736  1.00746  4.35146
