28
Energy: -244827.656143 eV PBE+vdW (tier 2 basis)
C    -0.31395  -0.63967  0.26282
C    -0.27669  -0.70417  1.77397
O    0.60881  -1.28941  2.39196
H    -0.35057  -1.66247  -0.13245
H    0.61998  -0.18860  -0.09394
H    -1.16257  -0.07150  -0.13699
N    -1.31373  -0.07282  2.42180
C    -1.39715  -0.03892  3.87325
C    -2.81114  -0.45784  4.32907
O    -3.58269  0.35633  4.84668
H    -2.01901  0.41400  1.88010
H    -0.65650  -0.78320  4.20785
C    -1.01013  1.33743  4.43003
C    -0.90460  1.33420  5.95359
C    -0.61291  2.65847  6.58375
O    -0.31576  2.71031  7.84205
O    -0.68600  3.75524  5.91018
H    -1.75625  2.07878  4.11612
H    -0.04784  1.61761  3.98011
H    -0.15424  0.61984  6.32612
H    -1.86630  1.00770  6.38828
N    -3.16646  -1.75515  4.13517
C    -2.41478  -2.82350  3.49269
H    -4.12743  -1.94933  4.40314
H    -2.73690  -3.78326  3.91169
H    -1.33981  -2.72016  3.67688
H    -2.57415  -2.84540  2.40420
Ba    -0.27738  5.11515  7.87072
