28
Energy: -244828.747692 eV PBE+vdW (tier 2 basis)
C    0.29462  -0.18643  0.51969
C    0.27909  -0.25063  2.03120
O    1.25703  -0.60253  2.68578
H    1.24134  0.25831  0.19457
H    -0.54124  0.37638  0.08671
H    0.26428  -1.21189  0.12657
N    -0.91611  0.11922  2.61453
C    -1.34789  -0.07183  3.99709
C    -1.27085  1.15002  4.92786
O    -2.21502  1.28976  5.76967
H    -1.65722  0.37284  1.97173
H    -2.43548  -0.21757  3.92414
C    -0.77888  -1.33824  4.71229
C    -1.83047  -2.45723  4.88830
C    -2.94757  -1.93230  5.75670
O    -3.99285  -1.43368  5.20212
O    -2.75824  -1.82612  7.01916
H    0.07684  -1.70873  4.14095
H    -0.38780  -1.06344  5.70124
H    -1.35188  -3.31377  5.37862
H    -2.22884  -2.77652  3.91728
N    -0.28960  2.04729  4.91774
C    0.94955  2.09794  4.14434
H    -0.43576  2.79588  5.59234
H    0.80161  2.63956  3.20081
H    1.31995  1.09016  3.92940
H    1.69576  2.63059  4.74248
Ba    -4.10148  0.25325  7.04329
