28
Energy: -244828.910285 eV PBE+vdW (tier 2 basis)
C    0.55007  -0.04533  -0.19337
C    0.34934  -0.01251  1.29518
O    1.34288  -0.03689  2.07137
H    1.10124  -0.95732  -0.45706
H    1.16822  0.81015  -0.49386
H    -0.38799  -0.02218  -0.75862
N    -0.91167  0.03811  1.74827
C    -1.27995  0.02748  3.16654
C    -2.37381  -1.01388  3.50111
O    -2.15149  -1.83202  4.38535
H    -1.64562  0.07540  1.04875
H    -0.40522  -0.37742  3.68538
C    -1.59034  1.44058  3.73808
C    -1.01861  1.63055  5.15765
C    0.48780  1.48889  5.10682
O    1.04099  0.45317  5.61814
O    1.16984  2.33891  4.43178
H    -2.67244  1.62332  3.76333
H    -1.14687  2.19431  3.07354
H    -1.42972  0.89174  5.85568
H    -1.27492  2.63777  5.51220
N    -3.57199  -0.96749  2.84572
C    -4.02105  -0.09202  1.77612
H    -4.20822  -1.70101  3.14697
H    -3.61418  0.92093  1.88485
H    -5.11148  0.00231  1.82432
H    -3.77180  -0.48053  0.77317
Ba    2.87282  0.58622  3.94859
