28
Energy: -244827.373995 eV PBE+vdW (tier 2 basis)
C    -0.13608  -0.15563  0.22941
C    -0.27064  -0.08800  1.73654
O    0.71412  -0.00639  2.46287
H    -0.96496  0.28204  -0.33492
H    0.80141  0.33859  -0.04117
H    -0.05597  -1.21041  -0.07041
N    -1.52289  -0.18984  2.32076
C    -2.88207  -0.09669  1.78886
C    -3.09307  -0.81652  0.43801
O    -3.50290  -0.20795  -0.55424
H    -1.44535  -0.16971  3.33518
H    -3.50956  -0.65118  2.50739
C    -3.44130  1.34048  1.76660
C    -2.66492  2.30875  0.87855
C    -3.21393  3.69665  0.80444
O    -4.35172  4.00463  1.32668
O    -2.54423  4.60547  0.17175
H    -3.45082  1.70883  2.80297
H    -4.48697  1.29495  1.43563
H    -2.65928  1.93087  -0.15832
H    -1.60738  2.39800  1.17016
N    -2.85053  -2.15243  0.40293
C    -2.39994  -3.03423  1.46999
H    -3.00156  -2.55903  -0.51573
H    -1.31446  -2.97784  1.63242
H    -2.66062  -4.06317  1.20092
H    -2.90286  -2.80261  2.41705
Ba    -4.25431  6.26826  0.45732
