28
Energy: -244829.208137 eV PBE+vdW (tier 2 basis)
C    0.05948  1.26727  0.51483
C    -0.12547  1.03008  1.98611
O    0.88512  0.97338  2.74967
H    -0.88405  1.27190  -0.04022
H    0.71332  0.48532  0.10778
H    0.56591  2.22980  0.36616
N    -1.37347  0.88986  2.43092
C    -1.78062  0.49999  3.77544
C    -2.84521  -0.60025  3.55333
O    -3.44198  -0.64105  2.47436
H    -2.13353  0.75844  1.75377
H    -0.89585  0.12279  4.30027
C    -2.41551  1.65640  4.58894
C    -1.59343  2.94574  4.66693
C    -0.15719  2.76232  5.10760
O    0.17412  1.75034  5.82053
O    0.72665  3.57556  4.66451
H    -2.60634  1.27737  5.60122
H    -3.39567  1.89465  4.15116
H    -2.07548  3.63501  5.37812
H    -1.57479  3.47698  3.70680
N    -3.10810  -1.45809  4.56526
C    -2.52507  -1.51624  5.89691
H    -3.86815  -2.10154  4.35676
H    -2.34779  -2.56227  6.17440
H    -3.18468  -1.06248  6.65096
H    -1.56382  -0.99301  5.92414
Ba    2.36161  1.72575  4.58133
