28
Energy: -244828.912070 eV PBE+vdW (tier 2 basis)
C    -0.26018  1.04911  0.23418
C    -0.50223  0.36340  1.54096
O    0.32435  -0.49488  1.98061
H    0.72132  0.75559  -0.14492
H    -1.02844  0.75564  -0.49491
H    -0.32085  2.14108  0.32362
N    -1.60469  0.61580  2.27059
C    -2.46120  1.82135  2.28439
C    -3.02191  2.18334  0.88398
O    -2.65314  3.19586  0.29864
H    -1.62486  0.08595  3.14256
H    -3.31414  1.53865  2.92015
C    -1.75038  3.02550  2.92250
C    -1.26007  2.78583  4.36544
C    -0.12252  1.78819  4.45875
O    -0.32351  0.64404  5.00965
O    1.00801  2.07747  3.93417
H    -2.46026  3.86286  2.92461
H    -0.91417  3.34459  2.28737
H    -2.07925  2.45045  5.01495
H    -0.88792  3.74327  4.75587
N    -3.92799  1.31873  0.34980
C    -4.56078  0.16787  0.98128
H    -4.29993  1.63351  -0.54221
H    -5.21748  0.45592  1.81611
H    -5.17715  -0.33831  0.23206
H    -3.81779  -0.55524  1.34044
Ba    1.78137  -0.30009  3.99963
