28
Energy: -244826.919152 eV PBE+vdW (tier 2 basis)
C    -0.10024  -1.34442  1.69472
C    -0.67919  -0.08261  2.29809
O    -0.04489  0.62110  3.07539
H    -0.39693  -2.21027  2.30435
H    -0.42074  -1.54549  0.66648
H    0.98940  -1.26266  1.73336
N    -1.98847  0.25853  2.00082
C    -2.94145  -0.32796  1.06472
C    -3.08226  -1.86292  1.20871
O    -2.95654  -2.61182  0.23712
H    -2.26526  1.11854  2.46554
H    -3.91960  0.09297  1.34971
C    -2.64788  0.09383  -0.38984
C    -3.69278  -0.28843  -1.44054
C    -4.99276  0.44718  -1.42786
O    -5.33418  1.22481  -0.45435
O    -5.80632  0.29858  -2.42358
H    -1.69711  -0.35868  -0.69907
H    -2.49133  1.18156  -0.38436
H    -3.92513  -1.36503  -1.35873
H    -3.28463  -0.17771  -2.45654
N    -3.38810  -2.35477  2.44066
C    -3.57679  -1.65338  3.70249
H    -3.43076  -3.36980  2.45620
H    -4.16811  -0.73926  3.56519
H    -4.13478  -2.30965  4.37940
H    -2.62675  -1.38037  4.18219
Ba    -7.42866  1.82898  -1.54652
