28
Energy: -244829.217176 eV PBE+vdW (tier 2 basis)
C    -1.67253  0.50026  -1.51024
C    -1.24617  -0.06123  -0.18773
O    -0.42752  -1.03333  -0.14907
H    -0.81688  0.47648  -2.19324
H    -2.06295  1.52101  -1.44593
H    -2.45720  -0.14674  -1.92835
N    -1.73760  0.42765  0.94968
C    -2.90782  1.26787  1.16999
C    -2.81459  1.64960  2.67190
O    -2.08349  1.00112  3.42236
H    -1.37611  0.06878  1.84659
H    -2.84711  2.17935  0.55642
C    -4.23110  0.52344  0.84892
C    -4.43024  -0.80249  1.60416
C    -3.48379  -1.90914  1.16896
O    -3.39007  -2.20652  -0.07421
O    -2.76797  -2.50116  2.04907
H    -4.28292  0.33733  -0.23243
H    -5.06711  1.19651  1.08563
H    -5.45125  -1.15773  1.39933
H    -4.33616  -0.67327  2.68913
N    -3.59891  2.67554  3.06277
C    -3.67670  3.13819  4.44248
H    -4.12920  3.17723  2.35907
H    -4.71652  3.13038  4.79190
H    -3.27291  4.15445  4.53651
H    -3.08202  2.45975  5.06067
Ba    -1.17568  -3.36068  0.33267
