28
Energy: -244828.893540 eV PBE+vdW (tier 2 basis)
C    0.29642  1.74421  1.67592
C    0.23880  0.26905  1.43503
O    1.26592  -0.35167  1.00893
H    -0.52210  2.11382  2.30111
H    0.26896  2.26764  0.70968
H    1.25623  1.97883  2.15018
N    -0.88540  -0.42040  1.64824
C    -2.27795  0.05413  1.74546
C    -3.20710  -1.12831  2.11301
O    -4.09614  -0.96445  2.93560
H    -0.78661  -1.42704  1.52778
H    -2.37097  0.74271  2.59480
C    -2.75609  0.79036  0.46890
C    -2.74865  -0.00766  -0.85505
C    -1.37725  -0.53609  -1.22322
O    -1.09183  -1.77318  -1.00736
O    -0.50008  0.26951  -1.68594
H    -2.15931  1.70323  0.33874
H    -3.78488  1.12179  0.66585
H    -3.46022  -0.84097  -0.81553
H    -3.07071  0.67386  -1.65319
N    -2.95912  -2.31530  1.48034
C    -3.81541  -3.47067  1.72987
H    -2.40890  -2.32015  0.61963
H    -3.30849  -4.37367  1.37469
H    -4.78729  -3.37697  1.22426
H    -4.00105  -3.55656  2.80528
Ba    1.40999  -1.29893  -1.28621
