28
Energy: -244829.289746 eV PBE+vdW (tier 2 basis)
C    0.16366  -0.65255  0.20335
C    -0.04694  -0.15984  1.60645
O    0.95232  0.09204  2.34416
H    0.70627  0.11304  -0.36687
H    0.79415  -1.55019  0.23098
H    -0.77177  -0.88428  -0.31594
N    -1.30440  0.00008  2.01746
C    -1.75043  0.32245  3.36744
C    -2.89281  -0.68416  3.65165
O    -3.49611  -1.19671  2.70769
H    -2.06656  -0.38877  1.45115
H    -0.90489  0.18145  4.05182
C    -2.30503  1.76354  3.51278
C    -1.41421  2.88338  2.96795
C    0.01263  2.86501  3.47184
O    0.28629  2.33248  4.60464
O    0.94072  3.29439  2.70200
H    -2.49675  1.92782  4.58162
H    -3.27880  1.81743  3.00470
H    -1.85360  3.85490  3.24439
H    -1.37538  2.87695  1.87127
N    -3.17712  -0.89648  4.95463
C    -4.28046  -1.73593  5.40284
H    -2.61371  -0.42631  5.65420
H    -3.91253  -2.55440  6.03415
H    -5.01326  -1.14635  5.96861
H    -4.76527  -2.15632  4.51708
Ba    2.46499  1.57535  3.61695
