37
Energy: -246334.166479 eV PBE+vdW (tier 2 basis)
C    -0.332607  -1.622018  -1.003946
C    0.309795  -1.098994  0.241999
O    1.571128  -1.059221  0.327661
H    -1.208600  -1.037675  -1.301632
H    -0.649981  -2.667501  -0.867507
H    0.405891  -1.597385  -1.811817
N    -0.422322  -0.625303  1.291242
C    -1.551628  -1.322532  1.926507
C    -0.993027  -2.658921  2.513695
O    0.149042  -3.080908  2.145032
H    0.179282  -0.156873  1.969759
H    -1.826069  -0.685029  2.781564
C    -2.816378  -1.502570  1.047802
C    -3.333915  -0.182204  0.427895
C    -4.456584  0.555317  1.172297
N    -5.768254  -0.066519  0.931335
C    -6.930073  0.357656  1.478437
N    -8.066316  -0.286186  1.192054
N    -6.941996  1.386019  2.333433
H    -3.596168  -1.961396  1.670026
H    -2.614620  -2.234866  0.257964
H    -3.669520  -0.374694  -0.602494
H    -2.501575  0.527335  0.323790
H    -4.465080  1.599718  0.820157
H    -4.269551  0.570338  2.257689
H    -5.858739  -0.608078  0.076349
H    -8.071387  -1.166814  0.690899
H    -8.970963  0.101557  1.438650
H    -6.184734  2.057524  2.366639
H    -7.792007  1.642767  2.825203
N    -1.689899  -3.336320  3.415629
C    -2.963124  -3.008776  4.062150
H    -1.253164  -4.209502  3.713593
H    -2.920778  -3.359015  5.099005
H    -3.798609  -3.511883  3.558848
H    -3.128861  -1.927351  4.076548
Ba    2.602987  -2.953150  1.530735
