37
Energy: -246334.024137 eV PBE+vdW (tier 2 basis)
C    -0.065627  1.953588  0.175510
C    -0.021741  0.850979  1.183712
O    0.983126  0.793576  2.004384
H    0.934926  2.107256  -0.246027
H    -0.361172  2.889227  0.675565
H    -0.764373  1.773314  -0.645413
N    -0.982302  -0.048108  1.271062
C    -2.272772  -0.067553  0.557216
C    -3.224163  -0.813739  1.517886
O    -2.736109  -1.704408  2.244658
H    -0.942174  -0.777142  1.999088
H    -2.598617  0.970196  0.424959
C    -2.230174  -0.763774  -0.844085
C    -2.684398  -2.230388  -0.941354
C    -1.699328  -3.281835  -0.400972
N    -2.251386  -4.635478  -0.435018
C    -2.899757  -5.251787  0.570021
N    -3.275511  -6.529010  0.416620
N    -3.164046  -4.615158  1.716967
H    -1.214533  -0.650655  -1.252336
H    -2.880111  -0.174710  -1.504373
H    -2.864945  -2.442377  -2.005136
H    -3.661871  -2.356280  -0.451834
H    -1.392425  -3.065706  0.630066
H    -0.782965  -3.292657  -1.007231
H    -2.221166  -5.124301  -1.324366
H    -2.964829  -7.087048  -0.369982
H    -3.878535  -6.988417  1.088870
H    -3.517319  -5.135475  2.511326
H    -3.006575  -3.613982  1.856141
N    -4.523097  -0.506310  1.492550
C    -5.203755  0.504455  0.676436
H    -5.096232  -1.051570  2.134497
H    -6.255981  0.525644  0.973001
H    -5.160286  0.259838  -0.392350
H    -4.791315  1.506499  0.848946
Ba    2.852248  1.258766  3.334679
