37
Energy: -246333.873991 eV PBE+vdW (tier 2 basis)
C    0.128713  -0.476708  0.472390
C    -0.239500  0.566807  1.470579
O    0.373679  1.706364  1.453966
H    -0.388587  -0.257115  -0.474472
H    -0.153596  -1.486873  0.783819
H    1.208613  -0.450472  0.289187
N    -1.175513  0.356349  2.382212
C    -2.202958  -0.708918  2.374199
C    -2.938757  -0.619379  0.999604
O    -3.039001  0.482174  0.463367
H    -1.384647  1.158176  2.977135
H    -1.703432  -1.675413  2.525449
C    -3.164327  -0.390490  3.546063
C    -4.365094  -1.322353  3.783612
C    -4.062414  -2.606954  4.567215
N    -5.324220  -3.289956  4.880792
C    -5.450031  -4.523077  5.404885
N    -6.662464  -5.080487  5.499997
N    -4.367888  -5.206957  5.799049
H    -3.570906  0.613462  3.348568
H    -2.567988  -0.318612  4.469743
H    -4.866959  -1.563845  2.835836
H    -5.091531  -0.737313  4.368384
H    -3.528056  -2.348281  5.497342
H    -3.427872  -3.295222  3.988751
H    -6.170313  -2.729412  4.837491
H    -6.821460  -5.908102  6.064183
H    -7.469416  -4.687312  5.029614
H    -4.444292  -6.176580  6.086827
H    -3.499233  -4.736660  6.019418
N    -3.439857  -1.752418  0.455294
C    -3.335277  -3.140413  0.889046
H    -3.955588  -1.578744  -0.406588
H    -3.288410  -3.784639  0.004255
H    -4.201514  -3.454866  1.489078
H    -2.418840  -3.311645  1.464972
Ba    1.399843  3.703366  0.812550
