37
Energy: -246333.900450 eV PBE+vdW (tier 2 basis)
C    -0.410669  0.592933  -0.506254
C    -0.364834  0.729418  0.985980
O    0.595488  1.276673  1.561251
H    -0.491492  1.595596  -0.949067
H    -1.233610  -0.027846  -0.876265
H    0.545030  0.179277  -0.851922
N    -1.438998  0.244147  1.682815
C    -1.620874  0.139568  3.141276
C    -1.520993  1.486121  3.884799
O    -2.460654  1.807337  4.726602
H    -2.190920  -0.151332  1.127439
H    -2.673662  -0.145156  3.262448
C    -0.811813  -1.013561  3.814294
C    0.722858  -0.941660  3.804796
C    1.419203  -2.154003  4.442499
N    1.399660  -3.331322  3.560855
C    1.784094  -4.571393  3.928519
N    1.684497  -5.580211  3.054486
N    2.229536  -4.806293  5.167433
H    -1.151328  -1.933588  3.314796
H    -1.167149  -1.091173  4.855053
H    1.067048  -0.060822  4.364554
H    1.109667  -0.801043  2.785787
H    0.928711  -2.425976  5.389487
H    2.460521  -1.871325  4.666567
H    1.398123  -3.147541  2.561674
H    2.130119  -6.474781  3.227018
H    1.167656  -5.487347  2.188504
H    2.574241  -4.059666  5.757905
H    2.394565  -5.753654  5.490589
N    -0.496959  2.264482  3.664730
C    -0.288950  3.567359  4.281913
H    0.144784  1.918063  2.864399
H    0.678468  3.958190  3.953725
H    -0.274367  3.485019  5.377533
H    -1.064806  4.281197  3.966841
Ba    -4.063629  2.883616  6.026829
