37
Energy: -246333.509231 eV PBE+vdW (tier 2 basis)
C    0.887666  0.038643  0.375515
C    0.182802  0.557081  1.595324
O    0.773623  1.026979  2.569307
H    1.506288  0.838861  -0.051752
H    0.215209  -0.340688  -0.402263
H    1.576505  -0.761102  0.678428
N    -1.205280  0.468631  1.595263
C    -1.940148  1.146361  2.646132
C    -3.073201  0.295073  3.204340
O    -3.603964  -0.663799  2.515210
H    -1.644829  0.380192  0.683770
H    -1.196069  1.258340  3.452216
C    -2.442718  2.561529  2.225736
C    -1.313603  3.549493  1.882449
C    -0.506071  4.041479  3.096207
N    0.578992  4.946973  2.722157
C    1.901146  4.697684  2.802468
N    2.756631  5.726660  2.727225
N    2.368465  3.454950  2.951045
H    -3.074722  2.982550  3.021466
H    -3.099335  2.451769  1.349347
H    -1.777879  4.415604  1.388768
H    -0.631521  3.114384  1.138148
H    -0.064681  3.205809  3.652823
H    -1.163795  4.580353  3.794829
H    0.316887  5.887280  2.441926
H    2.453072  6.684684  2.857940
H    3.748108  5.578305  2.577738
H    1.801390  2.616432  2.798382
H    3.340890  3.310594  3.197861
N    -3.544454  0.546035  4.413282
C    -3.089703  1.527084  5.405760
H    -4.349972  -0.011846  4.695148
H    -3.201311  1.083972  6.400965
H    -3.701375  2.436886  5.354167
H    -2.036890  1.776985  5.251394
Ba    -4.458633  -2.637808  1.562645
