37
Energy: -246333.990645 eV PBE+vdW (tier 2 basis)
C    1.279721  -1.015893  0.817239
C    0.821978  0.355131  0.444368
O    1.609117  1.115242  -0.245062
H    2.368318  -1.020855  0.937374
H    1.010746  -1.716008  0.012306
H    0.827434  -1.382680  1.744190
N    -0.353777  0.830163  0.841166
C    -1.491062  -0.012294  1.230631
C    -1.904769  -0.830178  -0.054987
O    -1.290997  -0.653764  -1.107519
H    -0.579161  1.754543  0.475004
H    -1.131352  -0.728981  1.982558
C    -2.631699  0.798194  1.881178
C    -3.378490  1.776355  0.955570
C    -4.806857  2.122365  1.398325
N    -4.858019  2.846962  2.676292
C    -5.974474  3.016366  3.415261
N    -5.890288  3.614069  4.610193
N    -7.155159  2.565451  2.978996
H    -2.229322  1.312240  2.766313
H    -3.346693  0.063097  2.279161
H    -3.482941  1.338305  -0.048540
H    -2.810069  2.711261  0.817804
H    -5.384090  1.192920  1.514338
H    -5.281955  2.719777  0.603270
H    -4.089311  3.476657  2.885137
H    -5.001605  3.753542  5.075614
H    -6.719624  3.924883  5.104448
H    -7.966035  2.554633  3.588741
H    -7.322796  2.371280  1.999405
N    -2.922141  -1.693674  0.107515
C    -3.396105  -2.572073  -0.965754
H    -3.291114  -1.855389  1.038805
H    -2.845314  -3.521772  -0.970342
H    -3.248959  -2.071851  -1.926911
H    -4.460905  -2.777127  -0.818296
Ba    3.203419  1.702079  -1.844919
