37
Energy: -246334.914479 eV PBE+vdW (tier 2 basis)
C    -0.754847  -2.308321  -0.307116
C    -0.586514  -1.590774  0.990168
O    0.555670  -1.225939  1.397824
H    -0.126330  -3.209104  -0.312297
H    -0.387505  -1.661808  -1.117434
H    -1.790707  -2.591334  -0.520984
N    -1.681931  -1.326970  1.727885
C    -1.683775  -0.512111  2.953796
C    -0.940527  -1.254973  4.095754
O    0.251347  -0.894026  4.346105
H    -2.580152  -1.617915  1.348892
H    -1.036964  0.357215  2.763252
C    -3.111786  0.004564  3.226747
C    -3.254407  0.930195  4.447159
C    -4.710282  1.412273  4.597821
N    -4.915818  2.262882  5.775727
C    -5.537333  3.461335  5.815641
N    -6.082989  3.875160  6.963881
N    -5.602896  4.246896  4.734608
H    -3.811911  -0.837988  3.316641
H    -3.410840  0.553011  2.319479
H    -2.586124  1.799135  4.352965
H    -2.954345  0.401649  5.366347
H    -5.387986  0.547226  4.675874
H    -5.029707  1.965658  3.706196
H    -4.788546  1.815706  6.679246
H    -6.343336  4.845918  7.104974
H    -6.308502  3.229992  7.712891
H    -6.214676  5.055879  4.716305
H    -4.979965  4.128120  3.946884
N    -1.484394  -2.253577  4.782014
C    -2.787741  -2.910317  4.639845
H    -0.874815  -2.627333  5.510342
H    -3.064693  -3.019136  3.587177
H    -3.570901  -2.368142  5.184330
H    -2.706473  -3.913717  5.069071
Ba    2.337694  -0.765328  2.996988
