37
Energy: -246334.338305 eV PBE+vdW (tier 2 basis)
C    1.016835  -0.610745  1.726181
C    -0.115182  -1.504584  2.111270
O    0.071180  -2.500580  2.867588
H    1.872901  -1.249330  1.467241
H    1.338624  0.002542  2.581372
H    0.791307  0.044155  0.879549
N    -1.370654  -1.271742  1.636295
C    -1.987072  0.053099  1.685026
C    -2.420397  0.293507  3.173171
O    -2.053447  -0.519794  4.076677
H    -2.014736  -2.030429  1.865842
H    -1.196809  0.793547  1.482446
C    -3.094816  0.223036  0.622398
C    -2.532833  0.155885  -0.810682
C    -3.456253  0.660270  -1.929116
N    -4.550830  -0.268560  -2.246413
C    -5.591299  0.039680  -3.054761
N    -6.548368  -0.870053  -3.269882
N    -5.690215  1.252882  -3.606386
H    -3.574546  1.202984  0.766484
H    -3.885301  -0.525778  0.785771
H    -2.186586  -0.863081  -1.043197
H    -1.633414  0.787787  -0.868620
H    -2.834819  0.829663  -2.823780
H    -3.899742  1.625020  -1.640517
H    -4.341718  -1.259746  -2.166426
H    -7.239411  -0.746532  -4.002286
H    -6.616201  -1.715554  -2.716427
H    -6.531846  1.533823  -4.099268
H    -4.887200  1.862327  -3.704295
N    -3.126162  1.373760  3.459036
C    -3.546880  1.760567  4.811566
H    -3.372174  2.003035  2.700287
H    -2.673818  2.002989  5.429674
H    -4.114919  0.948120  5.278177
H    -4.184751  2.644839  4.735117
Ba    -0.818670  -2.418922  5.179207
