37
Energy: -246334.458348 eV PBE+vdW (tier 2 basis)
C    -1.113593  -1.516733  -0.406980
C    -1.123145  -1.463608  1.085437
O    -0.893304  -2.496124  1.780906
H    -1.305336  -0.549261  -0.882616
H    -1.868619  -2.237744  -0.750056
H    -0.139319  -1.897365  -0.744125
N    -1.383022  -0.284949  1.684026
C    -1.365627  -0.059518  3.138111
C    -2.499345  -0.869161  3.828489
O    -2.173789  -1.959456  4.397567
H    -1.580373  0.511281  1.082566
H    -0.452139  -0.531618  3.529307
C    -1.353030  1.448434  3.467381
C    -0.042433  2.228423  3.220396
C    1.024224  2.116668  4.337201
N    1.784643  3.355511  4.543687
C    3.047564  3.622103  4.160554
N    3.638441  2.900865  3.195680
N    3.723146  4.605584  4.761257
H    -1.646333  1.563678  4.521951
H    -2.145203  1.943256  2.890486
H    -0.327726  3.286585  3.142191
H    0.392298  1.971542  2.241762
H    1.739519  1.303290  4.158892
H    0.535643  1.896104  5.297370
H    1.341241  4.064299  5.121027
H    4.632044  3.000422  3.016089
H    3.092748  2.438125  2.480764
H    3.428766  4.990898  5.652340
H    4.559965  5.003108  4.346738
N    -3.769245  -0.484242  3.832266
C    -4.438630  0.663951  3.209300
H    -4.375791  -1.104428  4.370670
H    -4.390613  1.550696  3.852977
H    -5.491140  0.398863  3.068245
H    -4.014550  0.883885  2.225249
Ba    -1.228183  -4.096487  3.614474
