37
Energy: -246334.959276 eV PBE+vdW (tier 2 basis)
C    -1.275931  -3.270943  0.036848
C    -0.922597  -2.238147  1.053972
O    0.230055  -1.714618  1.088468
H    -1.171729  -2.828827  -0.964816
H    -2.291453  -3.665334  0.146425
H    -0.558423  -4.100674  0.092056
N    -1.861747  -1.860342  1.942243
C    -1.698733  -0.762968  2.909572
C    -0.652126  -1.147743  3.988829
O    0.516092  -0.664431  3.865682
H    -2.780178  -2.290402  1.860907
H    -1.210103  0.066171  2.376493
C    -3.086504  -0.278217  3.378299
C    -3.072360  0.916067  4.347859
C    -4.508145  1.336122  4.716013
N    -4.550304  2.448259  5.672655
C    -5.317908  3.557310  5.597990
N    -5.757394  4.021678  4.422858
N    -5.629005  4.211478  6.721763
H    -3.651734  -1.109853  3.822167
H    -3.630120  0.005098  2.463127
H    -2.542384  1.770202  3.900603
H    -2.526764  0.654910  5.269063
H    -5.051699  0.482553  5.151952
H    -5.067948  1.623745  3.817814
H    -4.149776  2.265960  6.588596
H    -6.466804  4.745710  4.382998
H    -5.331004  3.752676  3.546179
H    -5.991639  5.159104  6.697872
H    -5.567323  3.770875  7.632863
N    -0.921638  -1.972199  4.994655
C    -2.141772  -2.720232  5.313842
H    -0.134130  -2.113585  5.628356
H    -1.858378  -3.575080  5.935558
H    -2.617318  -3.109018  4.408641
H    -2.851605  -2.105518  5.881343
Ba    2.242529  -0.755784  2.076258
