37
Energy: -246334.056223 eV PBE+vdW (tier 2 basis)
C    0.346590  0.035103  0.827357
C    -0.338869  -0.138520  2.140812
O    0.359649  -0.466673  3.181983
H    0.642698  1.090632  0.722695
H    -0.292638  -0.213082  -0.026566
H    1.245427  -0.587822  0.784082
N    -1.645292  0.031518  2.264136
C    -2.540668  0.583609  1.233438
C    -2.124782  2.072412  0.976793
O    -1.436448  2.661348  1.807453
H    -2.010290  -0.035486  3.213140
H    -2.385263  -0.008059  0.319715
C    -4.028434  0.434748  1.624014
C    -4.593349  1.465206  2.617670
C    -6.117572  1.321621  2.733729
N    -6.685232  2.374260  3.583100
C    -7.939099  2.382158  4.074566
N    -8.306161  3.339756  4.935169
N    -8.810226  1.426378  3.732294
H    -4.195643  -0.592313  1.985362
H    -4.597352  0.505020  0.685421
H    -4.352276  2.480582  2.265835
H    -4.139440  1.361202  3.615178
H    -6.374737  0.345877  3.172725
H    -6.562228  1.368286  1.724629
H    -6.167176  3.244969  3.651149
H    -9.280254  3.491360  5.172549
H    -7.627395  3.947140  5.378234
H    -9.705378  1.344491  4.202026
H    -8.673836  0.850326  2.911328
N    -2.598802  2.599891  -0.169005
C    -2.346352  3.980884  -0.583494
H    -3.094194  1.999679  -0.821423
H    -3.289960  4.475941  -0.840038
H    -1.683325  4.005707  -1.457232
H    -1.868425  4.508649  0.246066
Ba    2.168448  -0.880357  4.596547
