37
Energy: -246334.326049 eV PBE+vdW (tier 2 basis)
C    -0.086744  1.748073  1.105209
C    -0.084069  0.529277  1.973077
O    0.981343  -0.122910  2.162348
H    -0.617199  2.580514  1.581545
H    -0.580865  1.544147  0.142301
H    0.945679  2.047456  0.902036
N    -1.225798  0.103458  2.582129
C    -2.524794  -0.025621  1.902578
C    -2.300238  -0.886977  0.613669
O    -1.195085  -1.487316  0.438800
H    -1.040673  -0.645748  3.247962
H    -3.118417  -0.668551  2.572627
C    -3.330167  1.280997  1.716466
C    -3.573215  2.032667  3.037274
C    -4.468808  3.266308  2.840179
N    -4.701395  3.948248  4.116869
C    -5.730527  4.776076  4.390185
N    -5.944405  5.163301  5.652323
N    -6.550418  5.189141  3.416761
H    -4.309621  1.010388  1.291938
H    -2.849661  1.935051  0.976447
H    -2.608284  2.341909  3.468674
H    -4.047188  1.359304  3.767862
H    -5.445343  2.957945  2.438294
H    -4.005705  3.956238  2.114208
H    -3.965085  3.902305  4.814570
H    -6.562177  5.938417  5.868892
H    -5.521389  4.682754  6.438022
H    -7.411069  5.679402  3.637722
H    -6.264736  5.193420  2.445452
N    -3.295908  -1.013019  -0.246299
C    -3.257446  -1.859501  -1.445678
H    -4.163107  -0.520070  -0.054966
H    -4.208441  -1.752504  -1.973660
H    -3.119485  -2.910831  -1.166323
H    -2.443281  -1.544077  -2.108134
Ba    1.179239  -2.219540  0.845136
