37
Energy: -246334.887100 eV PBE+vdW (tier 2 basis)
C    0.494785  -1.344655  1.307357
C    0.042918  -0.306282  2.280208
O    0.712957  0.749852  2.469470
H    -0.158185  -2.222695  1.266272
H    1.514327  -1.666023  1.558703
H    0.544290  -0.890066  0.307136
N    -1.108323  -0.512526  2.951086
C    -1.751280  0.475810  3.832049
C    -0.975304  0.580692  5.172177
O    -0.053837  1.444620  5.261694
H    -1.598269  -1.382594  2.762644
H    -1.574217  1.456483  3.367633
C    -3.291230  0.305089  3.860226
C    -3.908112  -1.009076  4.381997
C    -5.349575  -1.274808  3.910452
N    -6.324415  -0.342478  4.491367
C    -7.594122  -0.192439  4.045133
N    -8.380464  0.729939  4.609348
N    -8.052116  -0.928433  3.028334
H    -3.615072  0.457036  2.818831
H    -3.694031  1.160085  4.420970
H    -3.896913  -1.050042  5.483816
H    -3.335477  -1.888011  4.045250
H    -5.608807  -2.313129  4.174309
H    -5.398768  -1.180235  2.815624
H    -6.165498  -0.049976  5.451389
H    -8.009407  1.449147  5.218948
H    -9.381211  0.745023  4.441920
H    -8.947382  -0.719204  2.597779
H    -7.625887  -1.810524  2.771225
N    -1.255370  -0.234779  6.178068
C    -0.550486  -0.233773  7.465747
H    -1.975781  -0.936200  6.041528
H    -1.173785  -0.743760  8.205380
H    -0.372323  0.796499  7.788715
H    0.407774  -0.762689  7.382424
Ba    1.770595  2.429119  3.894795
