37
Energy: -246334.801090 eV PBE+vdW (tier 2 basis)
C    0.608120  -0.460731  1.239717
C    0.102521  0.434073  2.323058
O    0.737794  1.473832  2.662010
H    -0.011990  -1.348376  1.076633
H    1.634806  -0.775306  1.468597
H    0.655598  0.116699  0.304696
N    -1.059935  0.113599  2.926554
C    -1.773818  0.961312  3.894437
C    -1.086934  0.885985  5.282966
O    -0.108121  1.656946  5.508047
H    -1.511850  -0.742542  2.617646
H    -1.587171  1.999442  3.582643
C    -3.308705  0.768095  3.795044
C    -3.936430  -0.624248  4.024517
C    -5.322766  -0.795681  3.364895
N    -6.408062  -0.016224  3.973349
C    -7.561211  -0.514484  4.477290
N    -8.642882  0.269196  4.528835
N    -7.630916  -1.766024  4.941600
H    -3.564983  1.099605  2.776157
H    -3.764683  1.502210  4.475149
H    -4.037094  -0.850700  5.097873
H    -3.311227  -1.424079  3.595364
H    -5.608230  -1.854009  3.384298
H    -5.261640  -0.521039  2.300452
H    -6.433411  0.975894  3.757863
H    -8.733146  1.097038  3.950272
H    -9.452279  0.015269  5.086431
H    -8.526866  -2.196208  5.146754
H    -6.805599  -2.308634  5.159197
N    -1.510746  0.025474  6.195667
C    -0.912767  -0.131191  7.526537
H    -2.282914  -0.586442  5.952901
H    -0.680318  0.852625  7.945629
H    0.005141  -0.730156  7.469764
H    -1.631067  -0.640515  8.174602
Ba    1.756778  2.859294  4.394557
