37
Energy: -246335.125877 eV PBE+vdW (tier 2 basis)
C    1.172752  -1.376781  2.620902
C    0.572948  -0.031061  2.356174
O    1.308232  0.996390  2.286067
H    0.438603  -2.187063  2.679618
H    1.737007  -1.333377  3.562853
H    1.898192  -1.613851  1.830561
N    -0.762611  0.030619  2.195519
C    -1.648487  1.201866  2.012620
C    -1.353165  1.988710  0.715929
O    -0.303084  2.681557  0.572777
H    -1.240922  -0.864703  2.244687
H    -2.642730  0.752943  1.880220
C    -1.734872  2.128685  3.250383
C    -2.540355  1.501185  4.404030
C    -2.803815  2.491968  5.552803
N    -3.790344  1.972794  6.509528
C    -3.723704  1.995376  7.857323
N    -4.855922  1.961964  8.567047
N    -2.547112  2.038914  8.495069
H    -2.225677  3.060422  2.928572
H    -0.722859  2.404894  3.578996
H    -2.035809  0.605600  4.795439
H    -3.512988  1.164021  4.009792
H    -3.184335  3.443999  5.149076
H    -1.879351  2.733510  6.090792
H    -4.714939  1.785470  6.130825
H    -5.753186  2.195828  8.156457
H    -4.854447  1.726836  9.554398
H    -2.506417  2.209760  9.494110
H    -1.687666  1.751297  8.046498
N    -2.285203  1.939446  -0.226077
C    -2.230508  2.656445  -1.503201
H    -3.096191  1.346179  -0.070144
H    -1.749474  2.035702  -2.270540
H    -1.671620  3.587838  -1.377926
H    -3.252647  2.883815  -1.821205
Ba    2.099708  2.900807  0.986025
