37
Energy: -246334.995478 eV PBE+vdW (tier 2 basis)
C    -1.522069  -0.996676  -0.459813
C    -1.479019  -0.738339  1.012078
O    -0.784913  -1.472029  1.775311
H    -0.499872  -0.991103  -0.861553
H    -2.129747  -0.277709  -1.018928
H    -1.922196  -2.007170  -0.627113
N    -2.198678  0.295322  1.485874
C    -2.453939  0.711646  2.883810
C    -1.141750  1.046140  3.627246
O    -0.436650  0.136599  4.161187
H    -2.721240  0.813879  0.784397
H    -3.008175  1.651765  2.773978
C    -3.372294  -0.267228  3.649068
C    -4.059816  0.377717  4.867298
C    -5.178371  -0.513064  5.433681
N    -5.850579  0.135147  6.563470
C    -7.130377  -0.064433  6.941417
N    -7.678769  0.745227  7.853767
N    -7.860255  -1.044224  6.395924
H    -2.810852  -1.164334  3.945254
H    -4.136288  -0.598203  2.930348
H    -4.501430  1.343072  4.574971
H    -3.319587  0.587988  5.656279
H    -4.770456  -1.490941  5.740047
H    -5.930441  -0.691519  4.651828
H    -5.276234  0.678200  7.201152
H    -8.549544  0.505678  8.316260
H    -7.262280  1.636352  8.097953
H    -8.861589  -1.093678  6.553750
H    -7.429963  -1.852301  5.963929
N    -0.770796  2.318380  3.712925
C    -1.411480  3.514831  3.147098
H    0.087068  2.472844  4.243546
H    -1.538161  3.423443  2.062217
H    -0.753430  4.367367  3.337647
H    -2.376215  3.717902  3.628248
Ba    0.794387  -1.920546  3.550449
