37
Energy: -246334.634468 eV PBE+vdW (tier 2 basis)
C    0.171383  0.981002  0.799683
C    -0.068397  -0.397081  1.332166
O    0.799107  -1.304582  1.178658
H    1.105090  1.378156  1.220248
H    -0.639833  1.686458  1.007828
H    0.319262  0.917039  -0.287915
N    -1.233647  -0.619242  1.971775
C    -1.813986  -1.873952  2.502318
C    -0.960509  -2.488440  3.630600
O    0.151960  -3.048501  3.388406
H    -1.837354  0.194789  2.048164
H    -2.754998  -1.545190  2.959520
C    -2.180847  -2.916687  1.417723
C    -3.216227  -2.370908  0.418029
C    -3.715509  -3.354492  -0.651508
N    -4.710984  -4.301942  -0.127232
C    -5.217696  -5.339732  -0.831824
N    -6.112642  -6.150464  -0.256958
N    -4.803192  -5.582274  -2.079448
H    -2.571330  -3.804451  1.938781
H    -1.274746  -3.239059  0.885528
H    -2.782090  -1.521830  -0.128370
H    -4.085787  -1.956432  0.955901
H    -2.873162  -3.930414  -1.063442
H    -4.154998  -2.764012  -1.471896
H    -5.295172  -3.967925  0.634054
H    -6.643758  -6.822568  -0.800651
H    -6.303035  -6.117948  0.737516
H    -5.088553  -6.425482  -2.567081
H    -4.358650  -4.866979  -2.641611
N    -1.427169  -2.452813  4.872819
C    -2.659152  -1.845604  5.397605
H    -0.830044  -2.921909  5.555075
H    -2.627320  -1.918132  6.488512
H    -3.549695  -2.382771  5.048724
H    -2.724031  -0.783569  5.134439
Ba    2.283712  -2.956059  2.178862
