37
Energy: -246334.742003 eV PBE+vdW (tier 2 basis)
C    -2.253595  -0.118879  -0.131722
C    -1.866045  -0.331134  1.297473
O    -1.150631  -1.318396  1.629913
H    -2.801633  -1.004393  -0.483748
H    -1.346693  -0.045095  -0.747254
H    -2.868558  0.771672  -0.298344
N    -2.309303  0.566069  2.202399
C    -2.158417  0.567521  3.675216
C    -0.673798  0.657334  4.093316
O    0.070444  -0.369218  4.075879
H    -2.847844  1.335899  1.816115
H    -2.640038  1.500710  3.990819
C    -2.869656  -0.613280  4.375574
C    -4.410463  -0.618584  4.276277
C    -5.124338  0.198830  5.366684
N    -6.578908  0.077644  5.227434
C    -7.484758  0.116602  6.226001
N    -8.742153  -0.270092  5.986280
N    -7.133108  0.515033  7.454386
H    -2.558894  -0.616040  5.431577
H    -2.491628  -1.550941  3.949335
H    -4.753336  -1.659177  4.356468
H    -4.725707  -0.271904  3.278612
H    -4.827945  1.261269  5.329735
H    -4.845470  -0.193125  6.355312
H    -6.954826  0.028461  4.285261
H    -9.494361  -0.049021  6.630507
H    -8.987865  -0.814880  5.167474
H    -7.765642  0.392438  8.238549
H    -6.327356  1.107139  7.611611
N    -0.188646  1.824462  4.497983
C    -0.849458  3.133964  4.578564
H    0.786202  1.790576  4.799082
H    -1.595013  3.156180  5.383387
H    -1.308093  3.409231  3.622024
H    -0.083947  3.880713  4.808256
Ba    0.766479  -2.323587  2.759568
