37
Energy: -246334.311114 eV PBE+vdW (tier 2 basis)
C    0.025011  -0.155571  0.610799
C    -0.153992  -0.104362  2.091019
O    0.821171  -0.286775  2.874136
H    0.680297  -1.006288  0.378903
H    0.550633  0.743214  0.253575
H    -0.914023  -0.265156  0.060368
N    -1.382412  0.132910  2.630043
C    -2.245488  1.226122  2.179960
C    -1.536453  2.556671  2.585706
O    -0.522532  2.512250  3.354580
H    -1.381846  0.020134  3.644922
H    -2.298259  1.194840  1.081003
C    -3.668791  1.064493  2.766474
C    -4.361124  -0.212254  2.255011
C    -5.704985  -0.564007  2.909870
N    -6.820279  0.255489  2.410876
C    -8.061218  0.253866  2.950574
N    -9.009678  1.034103  2.420709
N    -8.335488  -0.488308  4.027565
H    -4.262417  1.955384  2.523592
H    -3.596134  1.043076  3.866385
H    -3.702319  -1.074094  2.431974
H    -4.486588  -0.165005  1.160460
H    -5.639431  -0.427231  3.999644
H    -5.906225  -1.629778  2.714016
H    -6.774182  0.528926  1.433146
H    -9.985022  0.931184  2.680210
H    -8.794612  1.745545  1.732631
H    -9.222149  -0.394392  4.512309
H    -7.757966  -1.276101  4.294065
N    -1.966069  3.717546  2.113715
C    -3.042003  3.999892  1.160279
H    -1.455410  4.530184  2.461914
H    -3.951492  4.319541  1.684884
H    -3.256469  3.125309  0.539314
H    -2.716153  4.813120  0.502712
Ba    1.649712  1.602752  4.255609
