37
Energy: -246335.188139 eV PBE+vdW (tier 2 basis)
C    0.473810  -0.819762  -0.141395
C    0.177429  -0.318235  1.233606
O    0.987941  0.437817  1.844461
H    1.442857  -1.336296  -0.144835
H    0.574003  0.044047  -0.814816
H    -0.292948  -1.492742  -0.539103
N    -0.985271  -0.682259  1.808724
C    -1.501290  -0.181134  3.094845
C    -0.709332  -0.831972  4.260493
O    0.357767  -0.277620  4.655362
H    -1.584129  -1.309115  1.276282
H    -1.245676  0.887782  3.150387
C    -3.037636  -0.328393  3.125273
C    -3.708668  0.375516  4.319351
C    -5.218451  0.122798  4.477411
N    -6.048382  0.876275  3.529759
C    -7.329871  1.243080  3.748602
N    -7.918831  2.103200  2.909566
N    -8.004859  0.773130  4.802123
H    -3.322682  -1.395035  3.105823
H    -3.404195  0.089233  2.174340
H    -3.525761  1.459795  4.275032
H    -3.249779  0.027605  5.256753
H    -5.506094  0.444032  5.487472
H    -5.430119  -0.957353  4.398002
H    -5.705699  1.013232  2.585021
H    -7.381689  2.690560  2.282629
H    -8.923606  2.244077  2.919256
H    -8.898648  1.174860  5.066740
H    -7.733366  -0.078051  5.278837
N    -1.150555  -1.962110  4.791624
C    -0.475306  -2.707105  5.860120
H    -1.999719  -2.368915  4.409073
H    -1.224842  -3.269199  6.425166
H    0.035301  -2.006776  6.527125
H    0.253101  -3.411374  5.436997
Ba    2.337193  0.958405  3.806895
