37
Energy: -246334.463797 eV PBE+vdW (tier 2 basis)
C    0.913651  0.782103  0.567813
C    0.334744  -0.337943  1.371361
O    1.087409  -1.190396  1.925077
H    1.622273  1.347299  1.188212
H    0.165557  1.471355  0.162690
H    1.492791  0.355126  -0.263668
N    -1.006723  -0.399772  1.480917
C    -1.851137  -1.442091  2.107268
C    -1.535735  -1.586735  3.615604
O    -0.574970  -2.309659  4.016703
H    -1.513502  0.340911  1.003680
H    -2.866913  -1.034815  2.030301
C    -1.813964  -2.791602  1.357108
C    -2.960163  -3.754476  1.737200
C    -4.317026  -3.515546  1.040828
N    -4.411635  -4.034139  -0.329402
C    -5.095754  -5.132836  -0.716197
N    -5.438242  -5.273769  -2.000983
N    -5.429199  -6.082058  0.164944
H    -0.850161  -3.281552  1.544893
H    -1.830617  -2.571027  0.279638
H    -3.132147  -3.722385  2.824722
H    -2.634324  -4.782188  1.524419
H    -4.564489  -2.444267  0.996507
H    -5.122437  -3.974884  1.628287
H    -4.073863  -3.444143  -1.082296
H    -5.762252  -6.163927  -2.365186
H    -5.469383  -4.484988  -2.637193
H    -6.097265  -6.806313  -0.077656
H    -4.986998  -6.156092  1.071668
N    -2.302745  -0.946273  4.490357
C    -3.434187  -0.040266  4.247112
H    -2.055091  -1.109234  5.466971
H    -3.149659  0.783593  3.582579
H    -3.729337  0.391416  5.207780
H    -4.299012  -0.579419  3.840334
Ba    1.868506  -2.588004  3.748605
