37
Energy: -246334.186315 eV PBE+vdW (tier 2 basis)
C    0.916606  1.733438  0.346465
C    0.415336  0.686341  1.280629
O    1.213230  -0.003437  1.978558
H    1.649416  1.251347  -0.319211
H    1.470435  2.512082  0.889563
H    0.136867  2.189070  -0.269915
N    -0.918616  0.430973  1.385767
C    -1.922307  1.481127  1.582709
C    -1.597279  2.143377  2.955734
O    -0.903136  1.489146  3.801983
H    -1.104446  -0.407013  1.938388
H    -1.808494  2.228198  0.785378
C    -3.333035  0.834780  1.469263
C    -4.504791  1.798966  1.205564
C    -5.735459  1.166601  0.529815
N    -6.593322  0.391761  1.433741
C    -7.911618  0.172757  1.235537
N    -8.640360  -0.378496  2.213909
N    -8.496334  0.518542  0.084948
H    -3.514491  0.218698  2.364898
H    -3.250905  0.140730  0.619008
H    -4.172798  2.576471  0.502567
H    -4.819495  2.318370  2.121778
H    -5.409503  0.544268  -0.320964
H    -6.347895  1.984774  0.127470
H    -6.156548  -0.164698  2.160580
H    -9.573573  -0.735279  2.037081
H    -8.323501  -0.384940  3.176042
H    -9.507502  0.525482  -0.003342
H    -7.966850  0.652945  -0.767992
N    -1.998554  3.374522  3.242072
C    -2.659833  4.383489  2.410005
H    -1.752726  3.680037  4.185128
H    -2.158634  5.344786  2.570032
H    -3.714284  4.489779  2.690962
H    -2.586824  4.129848  1.349720
Ba    1.174314  0.193264  4.447990
