37
Energy: -246334.623432 eV PBE+vdW (tier 2 basis)
C    -1.989430  -0.891334  -0.060180
C    -1.747206  -0.713656  1.405760
O    -1.174890  -1.620036  2.076934
H    -2.582806  -1.803971  -0.211771
H    -1.030036  -1.051805  -0.570920
H    -2.504037  -0.047684  -0.531810
N    -2.159015  0.440510  1.966486
C    -2.157734  0.866756  3.383860
C    -0.733880  0.941389  3.973087
O    -0.092505  -0.107786  4.285932
H    -2.588234  1.098759  1.321969
H    -2.538826  1.894287  3.343073
C    -3.123970  0.063457  4.289352
C    -4.590326  0.217453  3.844193
C    -5.640477  -0.541953  4.674619
N    -6.023441  0.148243  5.912211
C    -7.246156  0.101194  6.482753
N    -7.545577  0.958078  7.466490
N    -8.162654  -0.778396  6.066738
H    -2.975403  0.431068  5.317209
H    -2.838076  -0.997986  4.294206
H    -4.688496  -0.159087  2.815830
H    -4.871847  1.281541  3.806427
H    -5.289795  -1.563542  4.897600
H    -6.547375  -0.630755  4.062296
H    -5.300410  0.611417  6.452220
H    -8.363308  0.822052  8.051652
H    -7.016440  1.809584  7.612952
H    -9.131610  -0.696608  6.357612
H    -7.909914  -1.618880  5.562000
N    -0.194235  2.136093  4.180903
C    -0.727887  3.472574  3.879248
H    0.728681  2.107081  4.616116
H    -1.591629  3.710730  4.512182
H    -0.991573  3.566989  2.819534
H    0.058705  4.201337  4.094706
Ba    0.612810  -2.345112  3.564532
