37
Energy: -246335.028665 eV PBE+vdW (tier 2 basis)
C    0.017563  -2.512533  1.565569
C    -0.025110  -1.176469  2.233334
O    0.895344  -0.328723  2.053559
H    -0.811387  -3.171087  1.845364
H    0.967503  -3.012545  1.794929
H    -0.002494  -2.357536  0.476761
N    -1.080715  -0.894031  3.022959
C    -1.370310  0.410052  3.635244
C    -0.513241  0.608888  4.913887
O    0.717776  0.866777  4.768640
H    -1.763951  -1.634764  3.150552
H    -0.960289  1.164578  2.947062
C    -2.892429  0.688703  3.712540
C    -3.851491  -0.395635  4.249771
C    -5.290121  0.157093  4.322867
N    -6.261953  -0.834876  4.795732
C    -7.480814  -1.094491  4.269482
N    -8.430893  -1.611237  5.054292
N    -7.746162  -0.860371  2.979734
H    -3.205333  0.938342  2.688025
H    -3.019430  1.620360  4.285528
H    -3.559264  -0.759386  5.249275
H    -3.854677  -1.282100  3.596405
H    -5.606739  0.520913  3.337837
H    -5.323290  1.030474  4.993619
H    -6.127025  -1.177340  5.742981
H    -8.381684  -1.555240  6.065579
H    -9.265333  -2.036975  4.663193
H    -8.697745  -0.902644  2.629997
H    -7.013904  -0.752673  2.290410
N    -1.075204  0.525871  6.109761
C    -0.383019  0.712059  7.389092
H    -2.068143  0.319441  6.149783
H    0.571194  1.213130  7.213021
H    -0.204356  -0.259219  7.867845
H    -1.004703  1.329194  8.046525
Ba    2.594828  1.036001  3.156846
