37
Energy: -246333.935173 eV PBE+vdW (tier 2 basis)
C    1.135815  0.711414  1.261093
C    0.547736  -0.061860  2.390762
O    1.370141  -0.521066  3.287005
H    0.405276  1.071355  0.540167
H    1.853501  0.079438  0.724697
H    1.676471  1.571932  1.684367
N    -0.755199  -0.204930  2.633622
C    -1.883036  -0.265861  1.680964
C    -1.550154  -1.453226  0.714370
O    -0.370344  -1.615425  0.395999
H    -0.941317  -0.687171  3.512084
H    -2.748996  -0.493234  2.315234
C    -2.178564  1.054335  0.924781
C    -3.602529  1.147375  0.348631
C    -3.826411  2.499000  -0.355103
N    -5.094739  2.572986  -1.089099
C    -6.149232  3.364028  -0.818107
N    -7.043735  3.618227  -1.780302
N    -6.320532  3.897212  0.398336
H    -1.466286  1.178628  0.098350
H    -2.007280  1.883705  1.627684
H    -4.354533  1.010136  1.140998
H    -3.764452  0.344863  -0.385120
H    -3.021102  2.680616  -1.082388
H    -3.786254  3.334755  0.355966
H    -5.132474  2.080048  -1.976440
H    -7.955097  4.007800  -1.564787
H    -6.828781  3.473306  -2.760363
H    -7.000150  4.633598  0.552748
H    -5.847329  3.530046  1.212750
N    -2.547430  -2.231465  0.251193
C    -3.956039  -2.316732  0.625761
H    -2.216111  -2.936342  -0.407305
H    -4.178536  -1.678769  1.485415
H    -4.199484  -3.350049  0.901386
H    -4.605731  -2.021491  -0.208547
Ba    3.260973  -1.404189  4.313535
