37
Energy: -246334.158747 eV PBE+vdW (tier 2 basis)
C    0.274767  0.352912  0.479711
C    0.046121  0.147583  1.944382
O    1.008821  0.310931  2.750361
H    1.124259  1.034893  0.362360
H    -0.595205  0.769438  -0.033848
H    0.543591  -0.597572  -0.006829
N    -1.177473  -0.164678  2.460266
C    -2.038768  -1.280916  2.029489
C    -1.292035  -2.584182  2.453906
O    -0.018982  -2.583575  2.498237
H    -1.174305  -0.058247  3.476383
H    -2.946306  -1.188843  2.642227
C    -2.473987  -1.221756  0.539897
C    -3.676610  -2.108927  0.170314
C    -4.151940  -1.970463  -1.288669
N    -5.009126  -0.800505  -1.515707
C    -5.953411  -0.708642  -2.476264
N    -6.831221  0.300839  -2.441755
N    -6.029580  -1.624214  -3.447380
H    -1.631292  -1.481855  -0.114142
H    -2.710093  -0.163550  0.351808
H    -4.529990  -1.922893  0.839809
H    -3.404049  -3.165791  0.293151
H    -4.746226  -2.860404  -1.535345
H    -3.283943  -1.951272  -1.969253
H    -4.823866  0.048395  -0.992288
H    -7.416699  0.516561  -3.241927
H    -6.996525  0.837213  -1.598069
H    -6.834534  -1.661587  -4.064475
H    -5.243191  -2.212990  -3.692995
N    -1.961846  -3.673642  2.810031
C    -3.394059  -3.901962  3.027087
H    -1.360817  -4.468990  3.032745
H    -3.802523  -4.558914  2.249952
H    -3.948655  -2.961211  3.039061
H    -3.521902  -4.392586  3.999057
Ba    2.185025  -1.741663  3.439135
