37
Energy: -246333.875728 eV PBE+vdW (tier 2 basis)
C    0.157021  1.803577  0.943113
C    -0.025517  0.502359  1.653290
O    0.895025  -0.406015  1.607344
H    -0.046763  2.655381  1.606030
H    -0.541432  1.879547  0.095102
H    1.175678  1.891124  0.557167
N    -1.139451  0.264108  2.338795
C    -2.336202  1.132847  2.432880
C    -2.262665  2.266475  3.486844
O    -3.131231  3.139149  3.416484
H    -1.208101  -0.652804  2.782754
H    -2.423717  1.658532  1.472483
C    -3.616433  0.274044  2.660381
C    -4.696510  0.426712  1.575596
C    -5.530636  1.715222  1.596786
N    -6.502369  1.742899  2.701281
C    -6.815413  2.815811  3.460524
N    -8.043637  2.899488  3.991061
N    -5.912174  3.765194  3.706896
H    -4.037582  0.504309  3.648594
H    -3.326171  -0.786717  2.699708
H    -5.376466  -0.435638  1.646347
H    -4.236748  0.347013  0.578322
H    -6.082431  1.791198  0.647922
H    -4.896514  2.605250  1.670272
H    -7.207965  1.011187  2.681335
H    -8.251036  3.552818  4.738008
H    -8.822655  2.369562  3.617936
H    -6.196001  4.642628  4.126423
H    -4.911023  3.600704  3.566004
N    -1.283116  2.246426  4.405213
C    -1.174560  3.246822  5.471374
H    -0.665239  1.444161  4.444784
H    -0.122003  3.369882  5.744303
H    -1.744716  2.940340  6.357883
H    -1.568273  4.199300  5.105441
Ba    2.771869  -1.748598  1.102345
