37
Energy: -246334.265505 eV PBE+vdW (tier 2 basis)
C    0.161480  2.036291  -0.021137
C    0.029539  0.881655  0.915192
O    1.037392  0.415167  1.521435
H    1.090191  1.904040  -0.592063
H    0.272885  2.978361  0.538109
H    -0.677939  2.131853  -0.716652
N    -1.181628  0.301563  1.130343
C    -2.392720  1.075074  1.391294
C    -2.227491  1.688809  2.824830
O    -1.207380  1.404364  3.523854
H    -1.112131  -0.555647  1.680397
H    -2.414786  1.918128  0.683399
C    -3.644054  0.190931  1.142522
C    -4.980335  0.948216  1.007010
C    -6.052700  0.251437  0.153418
N    -6.616316  -0.948473  0.786551
C    -7.392093  -1.849878  0.139854
N    -7.831130  -2.928391  0.798037
N    -7.690934  -1.691011  -1.152537
H    -3.709405  -0.586514  1.918663
H    -3.434359  -0.330045  0.196873
H    -4.809399  1.912222  0.501527
H    -5.409301  1.187691  1.993403
H    -5.612947  -0.045585  -0.810039
H    -6.850657  0.984478  -0.049739
H    -6.730257  -0.922742  1.795884
H    -8.554727  -3.525282  0.411353
H    -7.457689  -3.191671  1.702055
H    -8.148857  -2.430754  -1.675446
H    -7.627369  -0.789909  -1.610520
N    -3.152579  2.528946  3.261975
C    -3.115073  3.205644  4.564681
H    -3.917159  2.769972  2.638072
H    -4.079015  3.694402  4.728977
H    -2.324902  3.966835  4.580934
H    -2.940170  2.477155  5.363317
Ba    1.200184  0.740804  3.965145
