37
Energy: -246333.921915 eV PBE+vdW (tier 2 basis)
C    -0.155005  -0.374659  0.680453
C    -0.077162  0.244354  2.033224
O    1.089077  0.511810  2.537269
H    -1.170173  -0.637885  0.370392
H    0.463832  -1.282489  0.666791
H    0.273089  0.322763  -0.054352
N    -1.152025  0.535520  2.753363
C    -2.603961  0.434547  2.421073
C    -3.034444  -1.007082  2.006126
O    -3.346306  -1.243885  0.831327
H    -0.949196  0.962945  3.656818
H    -3.098741  0.666140  3.375073
C    -3.041724  1.469323  1.375678
C    -4.578029  1.493695  1.194850
C    -4.974589  1.499789  -0.293806
N    -6.371150  1.146271  -0.534183
C    -6.815454  -0.090110  -0.818955
N    -8.074851  -0.253650  -1.246663
N    -6.015350  -1.154781  -0.682671
H    -2.559023  1.230783  0.417707
H    -2.672733  2.456229  1.684461
H    -5.007923  2.367237  1.702003
H    -5.035284  0.614633  1.670161
H    -4.346402  0.795475  -0.855621
H    -4.806974  2.489944  -0.737369
H    -7.062501  1.888562  -0.500275
H    -8.499264  -1.171932  -1.302635
H    -8.633341  0.528308  -1.568228
H    -6.284957  -2.044779  -1.084533
H    -5.113147  -1.115299  -0.207655
N    -3.070017  -1.942848  2.972780
C    -2.826951  -1.787693  4.405781
H    -3.371408  -2.859645  2.647183
H    -3.048016  -2.740837  4.894468
H    -3.483975  -1.029206  4.852267
H    -1.778320  -1.540979  4.620671
Ba    3.366540  0.861390  2.995632
