37
Energy: -246333.698036 eV PBE+vdW (tier 2 basis)
C    -0.041609  -0.754746  -0.565643
C    -0.356649  -1.232295  0.819893
O    -0.373041  -2.434146  1.126405
H    -0.035637  0.335751  -0.671708
H    -0.772275  -1.181121  -1.265589
H    0.936749  -1.157758  -0.859768
N    -0.636375  -0.278581  1.771743
C    -0.801260  -0.620105  3.185002
C    -2.196246  -1.256179  3.430357
O    -3.113418  -0.720006  4.167976
H    -0.730544  0.693144  1.493429
H    -0.097623  -1.447325  3.382346
C    -0.455743  0.559307  4.102974
C    1.038787  0.709701  4.452671
C    1.984390  1.133703  3.318295
N    3.318616  1.383554  3.878385
C    4.479963  1.414116  3.199235
N    5.636955  1.410174  3.869808
N    4.484509  1.419033  1.859106
H    -0.985364  0.417811  5.054519
H    -0.852985  1.496238  3.680135
H    1.406541  -0.229620  4.893037
H    1.099278  1.469465  5.247834
H    1.599293  2.044155  2.827170
H    2.073466  0.344060  2.558500
H    3.364434  1.643000  4.859473
H    6.510967  1.657221  3.418018
H    5.684463  1.159807  4.850891
H    3.690106  1.761695  1.333937
H    5.352736  1.306934  1.346416
N    -2.385920  -2.409837  2.834692
C    -3.614874  -3.183641  2.897416
H    -1.586982  -2.701889  2.197070
H    -3.494080  -4.091705  2.299048
H    -4.462772  -2.618634  2.477848
H    -3.828224  -3.496549  3.931889
Ba    -5.177713  -0.494722  5.252514
