37
Energy: -246334.170599 eV PBE+vdW (tier 2 basis)
C    -0.817023  -0.631330  -0.124517
C    -0.560538  -0.524566  1.340035
O    0.572723  -0.798935  1.826315
H    -0.546663  -1.654071  -0.429962
H    -0.151322  0.036928  -0.688494
H    -1.857482  -0.448531  -0.406463
N    -1.556215  -0.143931  2.189329
C    -2.391120  1.042879  1.964208
C    -1.416327  2.247608  1.813546
O    -0.270423  2.176740  2.365395
H    -1.288538  -0.259617  3.167975
H    -2.968379  0.907887  1.040121
C    -3.338794  1.173428  3.188416
C    -4.473537  2.213051  3.131104
C    -5.784847  1.776732  2.457783
N    -6.569466  0.903345  3.342648
C    -7.711364  0.269057  2.994441
N    -8.304705  -0.544061  3.873805
N    -8.225696  0.417542  1.768339
H    -2.711459  1.392479  4.066344
H    -3.759489  0.169890  3.353961
H    -4.139294  3.140327  2.650208
H    -4.703067  2.522933  4.162092
H    -5.593350  1.233261  1.519061
H    -6.361857  2.683011  2.210985
H    -6.421561  1.024193  4.340926
H    -9.248966  -0.884907  3.725658
H    -7.845239  -0.835571  4.728802
H    -9.014030  -0.146233  1.466514
H    -8.005432  1.222627  1.194972
N    -1.747885  3.324279  1.113060
C    -2.920315  3.599477  0.278872
H    -1.038614  4.059812  1.122028
H    -3.495104  4.435233  0.696804
H    -3.562418  2.719435  0.199014
H    -2.583023  3.879697  -0.726394
Ba    1.930539  1.025189  2.831536
