37
Energy: -246334.420660 eV PBE+vdW (tier 2 basis)
C    -0.508309  -2.369662  -0.354772
C    -0.541395  -1.563848  0.900458
O    0.468408  -0.901539  1.284099
H    0.323286  -3.085963  -0.308441
H    -0.299882  -1.697566  -1.199942
H    -1.438729  -2.911617  -0.553379
N    -1.675013  -1.547430  1.625143
C    -1.913797  -0.706900  2.811711
C    -0.991894  -1.150239  3.978579
O    0.047938  -0.451455  4.198786
H    -2.463332  -2.081042  1.264929
H    -1.550446  0.304472  2.574684
C    -3.436063  -0.656588  3.068866
C    -3.958592  0.173424  4.258890
C    -4.065107  1.702815  4.014190
N    -5.326035  2.291404  4.481700
C    -5.525705  3.037960  5.584944
N    -6.604800  3.821669  5.661931
N    -4.646688  3.014165  6.597791
H    -3.813931  -1.680937  3.178436
H    -3.890273  -0.272018  2.141687
H    -3.375949  -0.033002  5.170099
H    -4.970408  -0.198283  4.470039
H    -4.013993  1.913871  2.936252
H    -3.239390  2.258209  4.476651
H    -6.124051  2.204512  3.858935
H    -6.923773  4.197427  6.549176
H    -7.142140  4.075835  4.839870
H    -4.714240  3.688492  7.352898
H    -4.051821  2.211887  6.757733
N    -1.229460  -2.226713  4.719303
C    -2.285941  -3.242458  4.630187
H    -0.539781  -2.370979  5.457686
H    -3.201747  -2.913682  5.136630
H    -1.923428  -4.144769  5.132109
H    -2.499539  -3.501775  3.589058
Ba    2.072018  0.060322  2.835085
