37
Energy: -246334.562018 eV PBE+vdW (tier 2 basis)
C    0.690413  1.213235  1.512017
C    0.290767  -0.151953  1.970204
O    1.165821  -1.013851  2.274197
H    1.297332  1.114675  0.600436
H    1.333691  1.678355  2.271212
H    -0.155511  1.876870  1.305192
N    -1.025411  -0.427040  2.048112
C    -1.688674  -1.714792  2.355926
C    -1.279164  -2.217934  3.761948
O    -0.248447  -2.936598  3.924908
H    -1.646030  0.331699  1.778933
H    -2.754229  -1.457713  2.402406
C    -1.488782  -2.775643  1.252504
C    -2.522842  -3.924578  1.244823
C    -3.782429  -3.617906  0.416023
N    -4.680381  -4.776040  0.385205
C    -5.527746  -5.099436  -0.613660
N    -6.099941  -6.307978  -0.623310
N    -5.782698  -4.234199  -1.601918
H    -0.483032  -3.203287  1.346284
H    -1.502812  -2.251748  0.286058
H    -2.806294  -4.195910  2.275428
H    -2.045493  -4.816591  0.817353
H    -3.485304  -3.393702  -0.618537
H    -4.314360  -2.735299  0.811436
H    -4.735945  -5.349035  1.221707
H    -6.894837  -6.510474  -1.220651
H    -5.746605  -7.072510  -0.059437
H    -6.284973  -4.530428  -2.432600
H    -5.644334  -3.238044  -1.488100
N    -2.036372  -1.883207  4.800855
C    -3.236030  -1.036064  4.837046
H    -1.721816  -2.263806  5.693853
H    -3.520571  -0.902801  5.884636
H    -4.078025  -1.510307  4.317300
H    -3.036869  -0.044541  4.414137
Ba    2.197928  -2.803418  3.544077
