37
Energy: -246334.119491 eV PBE+vdW (tier 2 basis)
C    0.085660  0.267749  0.531546
C    -0.337816  -0.290413  1.849841
O    0.564222  -0.850205  2.605126
H    0.573224  -0.522435  -0.055773
H    0.831622  1.059206  0.691201
H    -0.738990  0.679367  -0.055572
N    -1.578129  -0.240120  2.277847
C    -2.723641  0.532822  1.772395
C    -3.510810  0.821836  3.089165
O    -3.266165  0.099199  4.067988
H    -1.829054  -0.564504  3.241516
H    -2.355490  1.467293  1.330741
C    -3.590659  -0.205664  0.720310
C    -4.520639  -1.305937  1.256580
C    -5.382045  -1.896291  0.131227
N    -6.347058  -2.866523  0.660387
C    -7.478724  -3.259107  0.046975
N    -8.375654  -3.991124  0.719789
N    -7.724311  -2.906009  -1.220247
H    -2.919620  -0.613716  -0.050929
H    -4.193638  0.563343  0.215617
H    -5.184831  -0.892579  2.030076
H    -3.933819  -2.105916  1.735083
H    -4.739276  -2.372279  -0.628390
H    -5.946980  -1.090452  -0.361059
H    -6.097443  -3.360681  1.511246
H    -9.132531  -4.467633  0.241895
H    -8.354684  -4.063361  1.730091
H    -8.635799  -3.062536  -1.636776
H    -6.984255  -2.609109  -1.843657
N    -4.423602  1.801625  3.102831
C    -4.785053  2.748108  2.049459
H    -4.905764  1.895243  3.995960
H    -5.641553  2.393293  1.460249
H    -3.939500  2.940139  1.380203
H    -5.058650  3.701503  2.513119
Ba    2.370372  -1.502792  3.905877
