37
Energy: -246335.063483 eV PBE+vdW (tier 2 basis)
C    -1.241398  -3.100699  -0.220860
C    -0.888538  -2.106117  0.833656
O    0.288165  -1.650759  0.942020
H    -1.063698  -2.645745  -1.206406
H    -2.280050  -3.443648  -0.171202
H    -0.570528  -3.967112  -0.147189
N    -1.853583  -1.688176  1.675280
C    -1.684966  -0.615269  2.668239
C    -0.734378  -1.076999  3.805133
O    0.469372  -0.674409  3.755937
H    -2.788594  -2.063992  1.535231
H    -1.112553  0.187427  2.179903
C    -3.067768  -0.046885  3.050153
C    -3.045359  1.109491  4.063926
C    -4.447770  1.721712  4.221722
N    -4.440947  2.833682  5.176387
C    -5.528464  3.328001  5.805083
N    -6.754514  2.896852  5.488691
N    -5.369863  4.235735  6.774397
H    -3.724139  -0.848747  3.416411
H    -3.513532  0.308572  2.107801
H    -2.345882  1.888899  3.720596
H    -2.687387  0.764927  5.046128
H    -5.146539  0.958382  4.594968
H    -4.811694  2.062341  3.237459
H    -3.599621  3.399962  5.229015
H    -7.555524  3.148839  6.058796
H    -6.955445  2.469959  4.592801
H    -6.153948  4.776407  7.124115
H    -4.469976  4.402013  7.209704
N    -1.120134  -1.885577  4.785549
C    -2.407611  -2.545345  5.024312
H    -0.384169  -2.084986  5.464119
H    -2.849912  -2.902148  4.089467
H    -3.107171  -1.881105  5.547132
H    -2.225293  -3.416725  5.660739
Ba    2.291413  -0.837760  2.066789
