37
Energy: -246334.406211 eV PBE+vdW (tier 2 basis)
C    2.116815  -1.093358  -0.063114
C    0.987250  -1.086027  0.912843
O    1.116087  -0.576310  2.063158
H    2.404669  -0.053968  -0.277924
H    1.880514  -1.599158  -1.005030
H    2.992154  -1.574680  0.393298
N    -0.189645  -1.630742  0.541097
C    -1.406638  -1.601882  1.364926
C    -1.255834  -2.535864  2.597226
O    -0.932887  -1.990336  3.698411
H    -0.242289  -2.042667  -0.386515
H    -1.442942  -0.604432  1.827482
C    -2.693072  -1.768342  0.526782
C    -3.048955  -0.498184  -0.271285
C    -4.476691  -0.439651  -0.836384
N    -4.684002  -1.315853  -1.999119
C    -5.900004  -1.602135  -2.521681
N    -5.985254  -2.424015  -3.573398
N    -7.012693  -1.104332  -1.974487
H    -3.509094  -1.993906  1.230086
H    -2.617749  -2.639889  -0.138320
H    -2.323938  -0.321825  -1.082141
H    -2.960999  0.376122  0.391021
H    -4.687498  0.606851  -1.110877
H    -5.193487  -0.734643  -0.055832
H    -3.906090  -1.397630  -2.647960
H    -6.846117  -2.518070  -4.102239
H    -5.195769  -2.975910  -3.886783
H    -7.927947  -1.425616  -2.273462
H    -6.995670  -0.285761  -1.378521
N    -1.426510  -3.850083  2.540267
C    -1.733188  -4.725139  1.405618
H    -1.324762  -4.313980  3.444120
H    -2.814529  -4.785476  1.230779
H    -1.367003  -5.728123  1.646612
H    -1.218898  -4.391348  0.499343
Ba    0.843432  -0.468197  4.501848
