37
Energy: -246334.036127 eV PBE+vdW (tier 2 basis)
C    -0.736774  0.626484  0.478129
C    -0.228646  0.240390  1.832405
O    1.002855  -0.142076  1.966720
H    -0.638616  -0.224587  -0.210812
H    -0.137756  1.456853  0.078582
H    -1.787464  0.933800  0.488428
N    -1.060355  0.300512  2.852630
C    -0.862615  -0.085105  4.253378
C    -2.259731  -0.591558  4.697255
O    -3.257288  -0.057542  4.176540
H    -2.050448  0.522639  2.673333
H    -0.111655  -0.885026  4.283478
C    -0.393309  1.094172  5.163659
C    -1.474017  1.980068  5.809709
C    -2.223933  2.946119  4.874822
N    -3.291603  3.673029  5.560032
C    -4.595688  3.337139  5.572407
N    -5.482457  4.193569  6.097163
N    -5.014297  2.173457  5.063931
H    0.319736  1.706595  4.590840
H    0.185534  0.642735  5.981253
H    -0.977194  2.574345  6.590469
H    -2.201091  1.350922  6.344166
H    -2.674058  2.427650  4.019687
H    -1.533140  3.695099  4.462908
H    -3.024921  4.482513  6.111537
H    -6.440749  3.917872  6.277997
H    -5.238413  5.155045  6.303970
H    -4.381744  1.412014  4.807089
H    -6.005109  2.011021  4.926252
N    -2.296333  -1.531471  5.642419
C    -3.532678  -2.068430  6.217504
H    -1.418064  -1.897630  5.997602
H    -3.433133  -3.152173  6.336949
H    -4.361706  -1.853275  5.538203
H    -3.731964  -1.617940  7.198260
Ba    3.156160  -0.787795  1.267134
