37
Energy: -246333.401227 eV PBE+vdW (tier 2 basis)
C    0.917653  -0.529467  0.787823
C    0.114489  0.597739  1.356962
O    0.642076  1.636504  1.817431
H    1.646997  -0.129020  0.072970
H    0.312948  -1.302431  0.301686
H    1.491397  -1.000261  1.599415
N    -1.240341  0.468859  1.358704
C    -2.174133  1.345386  2.082906
C    -2.345010  2.709519  1.395654
O    -3.536754  3.155737  1.147632
H    -1.629844  -0.386066  0.973257
H    -3.148685  0.862164  1.950668
C    -1.909627  1.391319  3.639689
C    -1.604847  2.702593  4.388875
C    -0.178019  3.287440  4.349326
N    0.903405  2.339834  4.624411
C    1.603590  2.235953  5.767597
N    2.810797  1.656247  5.748673
N    1.111427  2.695786  6.924932
H    -1.115655  0.660811  3.841332
H    -2.808182  0.968385  4.105515
H    -1.869658  2.506356  5.438830
H    -2.290001  3.508198  4.078354
H    -0.113519  4.115714  5.068158
H    0.044861  3.724738  3.370185
H    1.269095  1.862784  3.800104
H    3.277728  1.378230  6.605066
H    3.335138  1.556031  4.887522
H    1.699960  2.781117  7.746448
H    0.129279  2.905287  7.043527
N    -1.270197  3.381166  1.065875
C    -1.242855  4.662949  0.368695
H    -0.374142  2.889980  1.318838
H    -0.205265  5.002298  0.305347
H    -1.824862  5.417408  0.913705
H    -1.629956  4.558681  -0.654253
Ba    -5.623142  3.920603  0.398849
