37
Energy: -246334.377768 eV PBE+vdW (tier 2 basis)
C    -0.334467  -2.946790  2.484734
C    -0.196661  -1.523196  2.054451
O    0.910600  -1.072100  1.643217
H    0.588022  -3.238314  3.002788
H    -0.424130  -3.607294  1.607980
H    -1.191373  -3.120712  3.142930
N    -1.267275  -0.684128  2.101554
C    -2.580313  -1.069052  1.589441
C    -2.460337  -1.137660  0.026063
O    -1.343511  -0.916215  -0.535229
H    -1.012764  0.282868  1.893287
H    -2.793013  -2.093775  1.932231
C    -3.688586  -0.124970  2.102213
C    -3.927612  -0.228801  3.618841
C    -5.081879  0.674812  4.081306
N    -5.322217  0.512609  5.518479
C    -5.998517  1.375811  6.303748
N    -5.999941  1.194875  7.628962
N    -6.640330  2.422508  5.772201
H    -4.624255  -0.358649  1.573027
H    -3.438206  0.910375  1.818605
H    -3.013625  0.037373  4.169160
H    -4.164656  -1.275114  3.873239
H    -5.995227  0.433038  3.511119
H    -4.832223  1.729373  3.891917
H    -5.113452  -0.393566  5.926522
H    -6.653958  1.687112  8.228192
H    -5.341672  0.573418  8.084485
H    -7.022014  3.152025  6.365355
H    -6.923272  2.436526  4.800232
N    -3.535508  -1.463017  -0.670663
C    -3.574014  -1.600249  -2.132441
H    -4.394947  -1.662314  -0.165942
H    -4.612437  -1.753819  -2.437312
H    -2.977162  -2.463046  -2.452770
H    -3.191910  -0.689832  -2.607002
Ba    1.144370  -0.610333  -0.781374
