37
Energy: -246333.867358 eV PBE+vdW (tier 2 basis)
C    0.020035  -0.085023  -0.153543
C    -0.094833  0.479753  1.227935
O    0.661131  1.473518  1.575719
H    -0.176516  0.701677  -0.895351
H    -0.673965  -0.911901  -0.335204
H    1.041635  -0.456712  -0.317369
N    -0.967350  -0.060198  2.055295
C    -1.219938  0.237943  3.468744
C    -1.592134  -1.134317  4.083780
O    -2.153158  -1.968601  3.346487
H    -1.466791  -0.910651  1.760560
H    -0.288179  0.626163  3.900438
C    -2.348264  1.291832  3.688601
C    -3.822227  0.849876  3.791700
C    -4.584230  0.401810  2.524551
N    -4.628157  -1.053334  2.359285
C    -5.694921  -1.766563  1.969930
N    -5.696091  -3.095138  2.155733
N    -6.758207  -1.182705  1.401285
H    -2.241751  2.063130  2.910463
H    -2.110538  1.793415  4.637642
H    -4.353036  1.731824  4.175931
H    -3.945776  0.088383  4.575991
H    -4.161321  0.877981  1.624225
H    -5.618419  0.758015  2.616604
H    -3.797688  -1.573330  2.669944
H    -6.384781  -3.692030  1.712639
H    -5.018544  -3.540835  2.761976
H    -7.622428  -1.693826  1.260781
H    -6.719551  -0.241866  1.032146
N    -1.323163  -1.316083  5.376132
C    -1.662638  -2.529854  6.124871
H    -0.856445  -0.570540  5.884310
H    -1.897516  -3.327511  5.415770
H    -2.525146  -2.349853  6.778805
H    -0.805506  -2.828115  6.737725
Ba    2.398020  3.053889  1.388175
