37
Energy: -246333.797045 eV PBE+vdW (tier 2 basis)
C    -0.689907  2.468804  -0.334271
C    0.031604  1.234405  0.087002
O    1.309882  1.188217  -0.139640
H    -1.760484  2.444261  -0.141928
H    -0.540576  2.633363  -1.407320
H    -0.250572  3.317201  0.213501
N    -0.490582  0.255309  0.833639
C    -1.852862  -0.308034  0.756811
C    -2.036945  -0.712997  -0.747633
O    -1.515933  0.015188  -1.598801
H    0.208354  -0.429031  1.120646
H    -1.812652  -1.192415  1.405663
C    -2.988487  0.609728  1.281395
C    -4.291648  -0.151818  1.578538
C    -5.459564  0.712614  2.072482
N    -5.315766  1.113888  3.480017
C    -6.133538  1.985583  4.106734
N    -5.917005  2.287750  5.393025
N    -7.134051  2.575785  3.445140
H    -3.212703  1.391499  0.544019
H    -2.617695  1.112209  2.186927
H    -4.115569  -0.970513  2.295673
H    -4.652535  -0.632065  0.659649
H    -6.389102  0.134773  1.942895
H    -5.538027  1.622823  1.458910
H    -4.807016  0.474480  4.083736
H    -5.074131  1.999171  5.874309
H    -6.605416  2.792833  5.940069
H    -7.672829  3.322431  3.870796
H    -7.481718  2.210003  2.567491
N    -2.751013  -1.808024  -1.064516
C    -3.282144  -2.887296  -0.234894
H    -2.846002  -1.933426  -2.072309
H    -4.379828  -2.879413  -0.225333
H    -2.919162  -2.814162  0.793997
H    -2.949987  -3.850420  -0.640493
Ba    3.369383  1.404304  -1.198071
