37
Energy: -246334.978434 eV PBE+vdW (tier 2 basis)
C    1.342276  -2.670597  4.318280
C    0.586182  -1.426982  3.981962
O    1.036181  -0.594645  3.141470
H    1.447472  -3.273471  3.404285
H    0.864623  -3.280546  5.092151
H    2.358495  -2.409601  4.642030
N    -0.597567  -1.219093  4.590007
C    -1.552565  -0.134829  4.297108
C    -1.018777  1.202446  4.878993
O    -0.200388  1.883038  4.192879
H    -0.886861  -1.915138  5.273496
H    -1.550902  0.015355  3.206391
C    -2.959808  -0.569514  4.755034
C    -4.108391  0.385918  4.346559
C    -4.973333  -0.085389  3.160541
N    -5.895198  -1.187605  3.464811
C    -7.135042  -1.068330  3.989470
N    -7.844550  -2.169997  4.251304
N    -7.642958  0.134999  4.281643
H    -2.963503  -0.723034  5.846328
H    -3.136626  -1.572133  4.336629
H    -3.708327  1.376107  4.080345
H    -4.761855  0.562150  5.211457
H    -4.346480  -0.434343  2.329301
H    -5.535396  0.766843  2.750848
H    -5.671907  -2.095430  3.072183
H    -7.447237  -3.098320  4.164718
H    -8.827281  -2.121282  4.499285
H    -8.559823  0.219388  4.708436
H    -7.259706  0.981269  3.880006
N    -1.413905  1.585794  6.082866
C    -0.961114  2.799299  6.771211
H    -2.056437  0.981392  6.587644
H    -1.759941  3.147485  7.432821
H    -0.733420  3.573959  6.034009
H    -0.067432  2.588434  7.373059
Ba    1.699502  1.688403  2.610443
