37
Energy: -246334.037524 eV PBE+vdW (tier 2 basis)
C    0.177651  -0.060217  0.435762
C    -0.244816  -0.198057  1.860582
O    0.644683  -0.553352  2.743477
H    0.686610  -0.979207  0.116236
H    0.905778  0.759223  0.347914
H    -0.652802  0.138234  -0.246547
N    -1.474372  0.027391  2.261720
C    -2.599751  0.686714  1.579412
C    -3.297010  1.415423  2.773658
O    -3.037185  1.007442  3.917610
H    -1.709312  0.018696  3.283249
H    -2.209546  1.414024  0.856472
C    -3.575242  -0.273665  0.851630
C    -4.286749  -1.302100  1.751750
C    -5.667043  -1.756265  1.263340
N    -5.619932  -2.526081  0.010944
C    -6.702132  -2.833108  -0.733761
N    -6.544131  -3.481030  -1.895044
N    -7.925887  -2.468127  -0.337915
H    -3.028586  -0.771555  0.037358
H    -4.321314  0.365862  0.357220
H    -4.462135  -0.873832  2.749554
H    -3.645539  -2.180647  1.923336
H    -6.301942  -0.873770  1.092917
H    -6.132278  -2.359843  2.059787
H    -4.793815  -3.093467  -0.152036
H    -7.334313  -3.884698  -2.386029
H    -5.636981  -3.571923  -2.335658
H    -8.724433  -2.564952  -0.956100
H    -8.124701  -2.228438  0.625601
N    -4.159008  2.409429  2.526582
C    -4.511689  3.048236  1.260840
H    -4.586314  2.791572  3.369788
H    -5.461773  2.663972  0.865367
H    -3.725914  2.907135  0.511644
H    -4.619582  4.125692  1.426113
Ba    2.378667  -0.873554  4.254096
