37
Energy: -246333.501384 eV PBE+vdW (tier 2 basis)
C    -0.556077  0.759859  0.734701
C    -0.076954  0.061235  1.962247
O    1.190689  0.146001  2.229697
H    -1.619423  0.643671  0.537717
H    -0.006564  0.387832  -0.137441
H    -0.337816  1.832635  0.854640
N    -0.864404  -0.478272  2.902958
C    -2.092677  -1.269280  2.686963
C    -1.662702  -2.404204  1.690971
O    -0.822553  -2.115094  0.832741
H    -0.334661  -0.778781  3.720590
H    -2.329107  -1.675049  3.679103
C    -3.314227  -0.462054  2.174061
C    -4.679841  -1.168373  2.294697
C    -5.388065  -1.133584  3.656654
N    -6.074196  0.151274  3.862242
C    -6.783182  0.482918  4.959988
N    -7.344727  1.694711  5.044214
N    -6.895100  -0.375785  5.980195
H    -3.173556  -0.237011  1.110972
H    -3.328597  0.501248  2.705570
H    -4.594206  -2.216343  1.984865
H    -5.356379  -0.729477  1.545186
H    -4.680300  -1.288034  4.486699
H    -6.121607  -1.955997  3.682026
H    -6.262237  0.699401  3.027894
H    -8.030076  1.911286  5.759680
H    -7.145893  2.423209  4.369005
H    -6.721286  -1.365700  5.859510
H    -7.343852  -0.098227  6.846599
N    -2.216205  -3.626908  1.781884
C    -3.065771  -4.224558  2.807923
H    -1.902324  -4.255231  1.042076
H    -4.061580  -4.461026  2.409718
H    -3.174171  -3.558135  3.668601
H    -2.609095  -5.157106  3.161544
Ba    3.489526  0.202736  1.865914
