37
Energy: -246333.377735 eV PBE+vdW (tier 2 basis)
C    0.247462  -0.442994  -0.772874
C    0.335140  0.105011  0.610684
O    1.489063  0.458149  1.089423
H    -0.009448  0.367607  -1.473963
H    -0.542263  -1.193859  -0.889937
H    1.207887  -0.873545  -1.071970
N    -0.748935  0.266287  1.360363
C    -2.144525  -0.008966  0.951347
C    -2.633317  0.995929  -0.149917
O    -2.856213  0.526596  -1.258933
H    -0.599032  0.685333  2.278655
H    -2.131972  -0.955426  0.397765
C    -3.079151  -0.185095  2.164203
C    -4.546041  -0.300024  1.706038
C    -5.581544  -0.549023  2.809470
N    -5.638958  -1.961701  3.216753
C    -6.401981  -2.428834  4.226545
N    -6.392573  -3.736707  4.513048
N    -7.137719  -1.592294  4.965799
H    -2.981720  0.660645  2.861476
H    -2.768466  -1.087335  2.712911
H    -4.647173  -1.073195  0.926806
H    -4.843834  0.634506  1.210090
H    -6.565698  -0.233459  2.426797
H    -5.350386  0.059423  3.697072
H    -5.372537  -2.643643  2.512404
H    -7.076433  -4.145239  5.140319
H    -5.726874  -4.370482  4.088314
H    -7.619957  -1.916577  5.797067
H    -7.363169  -0.658415  4.646694
N    -2.757174  2.319220  0.131697
C    -2.676726  3.023043  1.404957
H    -3.101394  2.852137  -0.665467
H    -2.598769  4.095485  1.200067
H    -1.781635  2.741629  1.974789
H    -3.565725  2.869101  2.033856
Ba    3.784798  0.886150  1.271469
