37
Energy: -246334.125036 eV PBE+vdW (tier 2 basis)
C    0.798292  -1.157227  1.141405
C    0.147245  -0.215226  2.098860
O    0.852951  0.250246  3.089502
H    1.662387  -0.664457  0.674015
H    0.130129  -1.511344  0.352498
H    1.181155  -2.027056  1.692912
N    -1.105244  0.162811  1.982400
C    -2.056289  -0.010193  0.873869
C    -2.932460  1.277945  1.005845
O    -2.928339  1.869602  2.093780
H    -1.506268  0.884712  2.623983
H    -1.507950  -0.000030  -0.077620
C    -2.905793  -1.304328  0.955770
C    -3.928747  -1.358674  2.099441
C    -4.673473  -2.700488  2.214617
N    -5.624784  -2.992650  1.131975
C    -6.968246  -2.962970  1.227978
N    -7.708315  -3.631536  0.334900
N    -7.574053  -2.264456  2.195404
H    -2.217387  -2.161743  1.025544
H    -3.416388  -1.402678  -0.014591
H    -4.654642  -0.537569  1.997990
H    -3.423233  -1.199174  3.064079
H    -5.220332  -2.743121  3.165364
H    -3.957388  -3.534479  2.244631
H    -5.255887  -3.438344  0.298276
H    -8.706667  -3.472165  0.252429
H    -7.319339  -4.381187  -0.225716
H    -7.081408  -1.573803  2.745944
H    -8.559760  -2.395074  2.394657
N    -3.656538  1.624671  -0.064729
C    -4.526455  2.802857  -0.104368
H    -3.516355  1.116209  -0.932669
H    -5.495308  2.533529  -0.539086
H    -4.070853  3.596119  -0.710023
H    -4.668158  3.167063  0.916387
Ba    2.357420  1.160356  4.606063
