37
Energy: -246333.814529 eV PBE+vdW (tier 2 basis)
C    -0.109375  0.487936  0.084566
C    -0.162821  -0.545715  1.159093
O    0.898200  -1.268870  1.343525
H    0.177292  0.020700  -0.863901
H    0.666323  1.219136  0.361621
H    -1.046088  1.021156  -0.068256
N    -1.136982  -0.633672  2.078149
C    -2.578635  -0.501292  1.806352
C    -2.853410  -1.477469  0.603605
O    -1.928808  -1.722983  -0.177351
H    -0.923880  -1.319618  2.801607
H    -3.066688  -0.879963  2.715951
C    -3.080992  0.945258  1.537193
C    -4.570952  1.189561  1.857089
C    -4.936936  1.447132  3.333010
N    -4.725624  2.827362  3.789072
C    -5.676071  3.777980  3.888895
N    -5.444660  4.865170  4.634727
N    -6.846810  3.650264  3.254126
H    -2.928204  1.193425  0.479907
H    -2.450355  1.638105  2.114460
H    -5.177853  0.347192  1.494932
H    -4.902930  2.049406  1.257568
H    -4.365518  0.798338  4.012291
H    -5.992018  1.198404  3.508516
H    -3.815567  3.070492  4.164533
H    -6.040897  5.683469  4.571973
H    -4.723624  4.880353  5.346704
H    -6.979291  2.997088  2.493224
H    -7.626528  4.261418  3.472342
N    -4.097539  -1.962506  0.489410
C    -4.522017  -2.836289  -0.608468
H    -4.755069  -1.809058  1.245728
H    -4.390527  -3.892986  -0.341975
H    -3.922439  -2.611787  -1.494776
H    -5.578358  -2.650279  -0.826406
Ba    2.741521  -2.594620  0.840211
