37
Energy: -246335.080966 eV PBE+vdW (tier 2 basis)
C    -1.924033  0.561370  -0.068631
C    -1.651280  0.136290  1.340998
O    -1.220474  -1.026803  1.586609
H    -1.001781  0.478358  -0.659820
H    -2.309981  1.582043  -0.159579
H    -2.646140  -0.137432  -0.513646
N    -1.882345  1.040501  2.313643
C    -1.820317  0.908478  3.785457
C    -0.400355  0.606495  4.305547
O    0.178499  -0.494058  4.052576
H    -2.199021  1.947338  1.982156
H    -2.081692  1.911193  4.143797
C    -2.859914  -0.069905  4.385794
C    -4.308017  0.427211  4.224376
C    -5.319893  -0.452654  4.976627
N    -6.682312  0.061619  4.806377
C    -7.707085  -0.110390  5.666250
N    -8.831951  0.592498  5.495791
N    -7.598633  -0.954883  6.698756
H    -2.622365  -0.175178  5.456056
H    -2.737082  -1.065973  3.937793
H    -4.574045  0.455545  3.155671
H    -4.391459  1.457213  4.604383
H    -5.087613  -0.445433  6.051405
H    -5.256706  -1.495236  4.622147
H    -6.917094  0.473817  3.908376
H    -9.688998  0.341868  5.977609
H    -8.866212  1.411475  4.899577
H    -8.299102  -0.967456  7.432958
H    -6.935144  -1.719366  6.693239
N    0.200946  1.508536  5.070572
C    -0.255820  2.841009  5.491737
H    1.114189  1.214601  5.419591
H    0.566307  3.318669  6.032255
H    -1.113861  2.772575  6.171681
H    -0.499081  3.470783  4.628040
Ba    0.583361  -2.369667  2.535177
