37
Energy: -246334.472745 eV PBE+vdW (tier 2 basis)
C    0.954581  0.753704  0.705843
C    0.373846  -0.381823  1.485994
O    1.125274  -1.245532  2.023738
H    0.207717  1.453368  0.316520
H    1.531058  0.342785  -0.135614
H    1.665908  1.303679  1.336634
N    -0.967883  -0.445480  1.591383
C    -1.814156  -1.501339  2.192436
C    -1.508714  -1.671454  3.700032
O    -0.544139  -2.392978  4.094564
H    -1.473556  0.305713  1.129648
H    -2.830372  -1.095237  2.115054
C    -1.767697  -2.836733  1.417924
C    -2.916476  -3.808038  1.767997
C    -4.264492  -3.561779  1.057491
N    -4.337823  -4.055542  -0.323391
C    -5.017560  -5.145577  -0.741060
N    -5.341291  -5.261619  -2.033163
N    -5.365543  -6.110543  0.117144
H    -0.805202  -3.329115  1.605974
H    -1.773727  -2.595895  0.344657
H    -3.103139  -3.793141  2.853495
H    -2.585366  -4.831661  1.543887
H    -4.516137  -2.490949  1.029499
H    -5.075650  -4.035499  1.625180
H    -3.988773  -3.451256  -1.059637
H    -5.661271  -6.143858  -2.419612
H    -5.359544  -4.461033  -2.655011
H    -6.028668  -6.830814  -0.149642
H    -4.934394  -6.203566  1.027420
N    -2.287116  -1.053630  4.581059
C    -3.425809  -0.154048  4.347406
H    -2.042319  -1.230090  5.556036
H    -3.139060  0.697975  3.720145
H    -3.747455  0.236727  5.317053
H    -4.274298  -0.688878  3.902259
Ba    1.900251  -2.665847  3.832653
