37
Energy: -246335.225249 eV PBE+vdW (tier 2 basis)
C    2.560805  2.971299  2.735657
C    1.455166  2.463655  1.868384
O    1.699993  1.833103  0.799521
H    2.213562  3.533364  3.608957
H    3.233727  3.606206  2.144365
H    3.157545  2.113100  3.077910
N    0.185493  2.685242  2.262104
C    -1.028328  2.163765  1.609492
C    -1.323681  2.988111  0.329064
O    -0.690944  2.706716  -0.731526
H    0.058965  3.243701  3.102798
H    -0.781224  1.157907  1.236971
C    -2.182357  2.052366  2.628117
C    -1.936740  0.973543  3.701354
C    -2.951499  0.927150  4.853410
N    -4.251603  0.369172  4.452960
C    -5.363432  0.407405  5.224008
N    -6.503715  -0.112365  4.756586
N    -5.340702  0.990982  6.425879
H    -3.105498  1.830297  2.073716
H    -2.340951  3.026982  3.122919
H    -0.956925  1.132299  4.174732
H    -1.871056  -0.019476  3.227698
H    -3.120670  1.941457  5.244894
H    -2.513825  0.321485  5.663617
H    -4.230788  -0.373181  3.759119
H    -7.301876  -0.266964  5.363577
H    -6.612320  -0.376340  3.784680
H    -6.198550  1.143927  6.946470
H    -4.475754  1.143160  6.930119
N    -2.209021  3.970559  0.377064
C    -2.558626  4.843282  -0.749232
H    -2.673098  4.153192  1.262515
H    -1.905400  5.725420  -0.767346
H    -3.595980  5.170382  -0.631516
H    -2.454151  4.290223  -1.686519
Ba    1.403457  1.735881  -1.624518
