37
Energy: -246333.901919 eV PBE+vdW (tier 2 basis)
C    0.677360  0.175730  -0.146387
C    0.389104  0.227128  1.323043
O    1.293736  0.335834  2.169315
H    1.222946  1.083803  -0.434715
H    -0.213431  0.072525  -0.775378
H    1.356127  -0.666358  -0.338811
N    -0.927943  0.156488  1.706804
C    -1.411832  -0.018400  3.082928
C    -1.146570  1.231133  3.951302
O    -2.116845  1.820942  4.580205
H    -1.625752  0.134136  0.971265
H    -2.503355  -0.097362  3.004338
C    -0.847148  -1.286166  3.798258
C    -0.909925  -2.604835  3.003452
C    -2.257781  -3.345034  3.043026
N    -2.258552  -4.585798  2.259359
C    -2.089142  -5.837882  2.723725
N    -1.616015  -6.058773  3.957203
N    -2.413410  -6.876701  1.945682
H    -1.376710  -1.387010  4.758927
H    0.204827  -1.102051  4.045494
H    -0.126844  -3.264102  3.405427
H    -0.623646  -2.426527  1.956665
H    -3.068580  -2.721657  2.639390
H    -2.547330  -3.591381  4.074523
H    -2.423809  -4.501971  1.261402
H    -1.650067  -6.986096  4.366475
H    -1.087697  -5.357814  4.459217
H    -3.006187  -6.769597  1.130361
H    -2.096176  -7.816122  2.159780
N    0.087069  1.656747  4.038955
C    0.507772  2.819554  4.803497
H    0.774765  1.125159  3.402175
H    1.591803  2.932700  4.708011
H    0.276510  2.691925  5.872109
H    0.042704  3.739718  4.414423
Ba    -3.281591  3.450695  5.778210
