37
Energy: -246334.724965 eV PBE+vdW (tier 2 basis)
C    -1.884522  0.645132  1.239070
C    -1.056482  0.196924  2.403333
O    -0.378992  -0.870230  2.335740
H    -2.587985  -0.157180  0.976205
H    -1.235876  0.793000  0.364670
H    -2.445674  1.567713  1.420811
N    -1.064536  0.974966  3.502010
C    -0.456050  0.768220  4.834862
C    1.085430  0.672567  4.808596
O    1.700906  -0.283089  4.250939
H    -1.626298  1.818157  3.420120
H    -0.689947  1.702510  5.363992
C    -1.109478  -0.370176  5.662207
C    -2.543344  -0.000476  6.102796
C    -3.094853  -0.732378  7.340731
N    -3.727949  -2.024264  7.049352
C    -4.693688  -2.590633  7.803733
N    -5.364949  -3.648225  7.329746
N    -4.994447  -2.098261  9.008783
H    -0.480932  -0.517880  6.554136
H    -1.077437  -1.310680  5.093866
H    -3.255584  -0.096967  5.270223
H    -2.550284  1.065468  6.377513
H    -3.868313  -0.092953  7.787101
H    -2.294296  -0.856357  8.089351
H    -3.350166  -2.596299  6.302416
H    -5.399315  -3.856783  6.339127
H    -5.953224  -4.210819  7.935437
H    -5.832508  -2.394963  9.498518
H    -4.352213  -1.510197  9.525835
N    1.737819  1.629224  5.455625
C    3.193611  1.693608  5.615068
H    1.199998  2.392919  5.857397
H    3.649905  2.215826  4.763897
H    3.601691  0.681630  5.688843
H    3.420017  2.246338  6.531757
Ba    1.843964  -1.871394  2.396195
