37
Energy: -246334.741007 eV PBE+vdW (tier 2 basis)
C    -2.134444  0.411012  1.187653
C    -1.350521  -0.069092  2.369559
O    -0.845395  -1.229744  2.375658
H    -2.521663  1.429702  1.294295
H    -2.975735  -0.276191  1.019887
H    -1.506365  0.363240  0.287745
N    -1.210366  0.781604  3.403451
C    -0.605149  0.585880  4.739947
C    0.903288  0.256125  4.697283
O    1.352223  -0.822296  4.208855
H    -1.637007  1.693447  3.262803
H    -0.681971  1.582573  5.196562
C    -1.398772  -0.375249  5.663083
C    -2.764154  0.224801  6.061565
C    -3.409802  -0.306122  7.350810
N    -4.094192  -1.597295  7.183179
C    -4.633297  -2.293957  8.211376
N    -5.276967  -3.440704  7.964535
N    -4.494966  -1.867863  9.469705
H    -0.787507  -0.527157  6.566057
H    -1.505674  -1.358864  5.186063
H    -3.482805  0.155377  5.229855
H    -2.632938  1.303459  6.238312
H    -4.130064  0.453051  7.697742
H    -2.640982  -0.422164  8.129307
H    -4.521739  -1.763870  6.276548
H    -5.259719  -3.878356  7.051662
H    -5.830068  -3.900827  8.679761
H    -4.787921  -2.444828  10.251583
H    -4.239080  -0.912565  9.686644
N    1.709747  1.150361  5.253359
C    3.162518  1.005829  5.383327
H    1.304226  2.015866  5.600365
H    3.494891  1.586509  6.249006
H    3.667784  1.386094  4.485835
H    3.416748  -0.047551  5.531130
Ba    1.199840  -2.551238  2.485498
