37
Energy: -246333.604089 eV PBE+vdW (tier 2 basis)
C    -0.329006  -0.524194  -0.076693
C    -0.320668  -0.066962  1.339727
O    0.787634  0.380423  1.852692
H    -0.163671  0.346922  -0.728421
H    -1.256407  -1.031266  -0.361865
H    0.509371  -1.215344  -0.235909
N    -1.397316  -0.083257  2.113489
C    -2.806616  -0.506266  1.849339
C    -2.877481  -2.007845  1.436275
O    -2.908362  -2.307026  0.240222
H    -1.235301  0.274827  3.054321
H    -3.284269  -0.384372  2.829961
C    -3.550305  0.398621  0.850483
C    -5.082912  0.165868  0.893990
C    -5.692434  -0.691994  -0.223888
N    -5.897066  0.090699  -1.453419
C    -6.268899  -0.435650  -2.636750
N    -6.494989  0.372788  -3.681169
N    -6.381833  -1.759077  -2.787008
H    -3.165945  0.234893  -0.164851
H    -3.332398  1.440471  1.120888
H    -5.597013  1.138252  0.918683
H    -5.362282  -0.308331  1.846461
H    -6.659916  -1.087342  0.125415
H    -5.025618  -1.535641  -0.452149
H    -6.100381  1.078140  -1.326429
H    -6.922782  0.028731  -4.533199
H    -6.321329  1.368958  -3.629921
H    -6.380783  -2.385125  -1.992370
H    -6.561522  -2.171607  -3.695304
N    -2.913128  -2.920587  2.428954
C    -2.936110  -2.705620  3.874872
H    -2.971242  -3.881837  2.097525
H    -2.041226  -2.173780  4.226339
H    -2.944456  -3.684027  4.364016
H    -3.837159  -2.167976  4.200110
Ba    2.980930  1.031744  2.339607
