37
Energy: -246334.535228 eV PBE+vdW (tier 2 basis)
C    0.119402  0.255775  -0.253041
C    -0.098715  -0.868647  0.713149
O    0.632067  -1.900538  0.669430
H    -0.561430  1.102061  -0.114170
H    0.003007  -0.132373  -1.274819
H    1.153466  0.616545  -0.171760
N    -1.092348  -0.718945  1.610965
C    -1.671043  -1.656602  2.594111
C    -0.698447  -2.091445  3.706566
O    0.452579  -2.562711  3.459569
H    -1.579105  0.171108  1.550069
H    -2.443457  -1.053677  3.087539
C    -2.407234  -2.872007  1.964056
C    -3.694708  -2.440500  1.229887
C    -4.753359  -3.534411  0.997489
N    -4.536352  -4.338259  -0.211199
C    -5.513763  -4.965897  -0.899369
N    -5.244491  -5.477287  -2.107504
N    -6.746353  -5.067696  -0.394163
H    -2.669537  -3.552844  2.789097
H    -1.716409  -3.423449  1.310153
H    -3.463408  -1.944959  0.275554
H    -4.198819  -1.680249  1.846115
H    -5.724923  -3.035977  0.878830
H    -4.820505  -4.185521  1.885530
H    -3.585452  -4.547324  -0.493992
H    -5.888510  -6.115554  -2.562814
H    -4.449744  -5.165387  -2.652520
H    -7.523737  -5.367784  -0.973736
H    -6.932395  -4.967790  0.596299
N    -1.117042  -2.003002  4.963299
C    -2.386858  -1.487876  5.493782
H    -0.446866  -2.349947  5.650431
H    -3.236913  -2.093031  5.155903
H    -2.534237  -0.435263  5.222313
H    -2.341605  -1.548450  6.584824
Ba    2.342240  -3.047089  1.994125
