37
Energy: -246335.251194 eV PBE+vdW (tier 2 basis)
C    -4.508368  2.105779  4.860939
C    -3.520234  1.388670  4.001336
O    -3.463177  1.598280  2.754119
H    -4.485212  1.795469  5.910762
H    -5.520944  1.958173  4.462981
H    -4.300516  3.184571  4.804722
N    -2.678209  0.517697  4.588748
C    -1.542623  -0.163252  3.938732
C    -2.072567  -1.299903  3.026798
O    -2.405664  -1.022827  1.837382
H    -2.784236  0.386236  5.592175
H    -1.084514  0.559602  3.246792
C    -0.512728  -0.541626  5.022431
C    0.846247  -1.043134  4.502787
C    1.843624  -1.222746  5.660621
N    3.153221  -1.661658  5.170425
C    4.113949  -2.240260  5.921933
N    3.973706  -2.343504  7.248079
N    5.201038  -2.740396  5.324801
H    -0.946187  -1.276128  5.723866
H    -0.349629  0.369471  5.619079
H    1.251812  -0.309600  3.787353
H    0.739626  -1.995725  3.962915
H    1.469882  -1.984637  6.360767
H    1.939038  -0.272211  6.212691
H    3.440184  -1.338800  4.251380
H    4.615926  -2.908572  7.794300
H    3.356304  -1.732818  7.768837
H    5.233999  -2.905802  4.325561
H    6.026257  -2.994052  5.857772
N    -2.189965  -2.522541  3.522433
C    -2.728322  -3.676218  2.794060
H    -1.931210  -2.668127  4.494438
H    -2.492485  -3.578760  1.730847
H    -3.816432  -3.740199  2.925760
H    -2.269636  -4.587882  3.188250
Ba    -3.462956  0.765428  0.471126
