37
Energy: -246335.215551 eV PBE+vdW (tier 2 basis)
C    1.359123  -0.193181  0.268312
C    0.561707  -0.488682  1.500181
O    0.641908  -1.620522  2.059811
H    1.203755  0.814424  -0.131186
H    1.099612  -0.930304  -0.504583
H    2.427866  -0.327519  0.484036
N    -0.229299  0.492110  1.975990
C    -1.198610  0.480795  3.094309
C    -0.536121  0.232088  4.468236
O    -0.034458  -0.887867  4.779880
H    -0.182584  1.366339  1.459971
H    -1.578705  1.511643  3.114705
C    -2.418919  -0.444138  2.867588
C    -3.341033  0.051895  1.738191
C    -4.646857  -0.754803  1.646839
N    -5.503043  -0.238948  0.574176
C    -6.848929  -0.312959  0.529669
N    -7.514765  0.389676  -0.393109
N    -7.522551  -1.059474  1.412988
H    -2.979229  -0.475130  3.814974
H    -2.077645  -1.469931  2.669240
H    -2.810865  -0.001870  0.773998
H    -3.597119  1.109431  1.906632
H    -5.200762  -0.666531  2.592565
H    -4.426194  -1.822536  1.480439
H    -5.045794  0.092729  -0.269798
H    -8.489487  0.198678  -0.600195
H    -7.080843  1.152099  -0.900774
H    -8.532552  -0.991055  1.484024
H    -7.086394  -1.834614  1.896362
N    -0.563605  1.242812  5.325989
C    -0.045797  1.197281  6.696522
H    -0.953730  2.128555  5.014172
H    -0.616574  1.901366  7.309482
H    1.013146  1.486448  6.715892
H    -0.159492  0.187108  7.099436
Ba    1.185840  -2.890413  4.067038
