37
Energy: -246334.182739 eV PBE+vdW (tier 2 basis)
C    -0.160402  0.237852  1.096846
C    -0.797643  0.278918  2.450883
O    -0.447053  1.172895  3.277001
H    0.608248  -0.548724  1.051087
H    0.325832  1.201423  0.914305
H    -0.886158  0.047571  0.300388
N    -1.775012  -0.592877  2.825943
C    -1.717955  -2.058240  2.692289
C    -0.567602  -2.533293  3.636481
O    0.372284  -1.725877  3.929501
H    -2.209180  -0.297677  3.701826
H    -2.670470  -2.412592  3.110904
C    -1.637413  -2.559112  1.220400
C    -2.306677  -3.914492  0.925268
C    -2.475711  -4.123155  -0.590428
N    -3.168079  -5.384310  -0.871619
C    -3.144092  -6.046332  -2.047932
N    -3.686082  -7.266267  -2.124592
N    -2.558740  -5.507095  -3.123225
H    -0.594825  -2.577683  0.875642
H    -2.157696  -1.792998  0.628387
H    -3.301743  -3.943370  1.398822
H    -1.720723  -4.749175  1.332128
H    -1.489140  -4.160066  -1.075446
H    -3.035996  -3.274181  -1.018278
H    -3.878744  -5.681708  -0.209545
H    -3.874035  -7.705426  -3.019741
H    -3.914286  -7.803519  -1.296049
H    -2.404435  -6.059440  -3.960530
H    -2.425357  -4.507410  -3.211060
N    -0.574781  -3.749417  4.167996
C    -1.593893  -4.801223  4.149770
H    0.247746  -3.952778  4.737955
H    -1.728006  -5.170271  5.173260
H    -1.273550  -5.638484  3.518023
H    -2.552672  -4.415813  3.795623
Ba    1.269518  0.455077  4.885779
