37
Energy: -246334.210420 eV PBE+vdW (tier 2 basis)
C    0.657531  -0.092611  0.554037
C    0.374092  0.260590  1.973998
O    1.287030  0.688072  2.736459
H    0.994288  0.789852  -0.008594
H    -0.183602  -0.564311  0.038639
H    1.507173  -0.792476  0.553513
N    -0.879399  0.111745  2.487751
C    -2.081415  0.629098  1.824835
C    -1.886144  2.170130  1.698956
O    -1.086860  2.752954  2.502836
H    -0.895523  0.247682  3.499520
H    -2.152563  0.187942  0.821659
C    -3.309236  0.195209  2.671802
C    -4.698974  0.476144  2.079104
C    -5.877556  0.007187  2.953852
N    -6.130278  -1.436576  2.875184
C    -7.334393  -2.022260  3.051174
N    -7.488039  -3.314258  2.738546
N    -8.374643  -1.321198  3.513309
H    -3.235084  0.673490  3.662498
H    -3.166618  -0.884062  2.836448
H    -4.800509  0.028630  1.079151
H    -4.836428  1.559543  1.956705
H    -6.782722  0.514254  2.594556
H    -5.716996  0.313873  4.001171
H    -5.336921  -2.066558  2.821637
H    -6.834249  -3.799749  2.135548
H    -8.302500  -3.836609  3.044042
H    -9.314053  -1.704087  3.480749
H    -8.253250  -0.464841  4.040071
N    -2.505127  2.869403  0.757265
C    -3.344460  2.434219  -0.363250
H    -2.317852  3.872979  0.797437
H    -4.381544  2.757412  -0.213307
H    -3.315988  1.348720  -0.480073
H    -2.965703  2.895156  -1.283016
Ba    1.173773  3.012115  3.603969
