37
Energy: -246334.035883 eV PBE+vdW (tier 2 basis)
C    -0.899188  -1.168089  0.219565
C    -0.468925  -1.112513  1.646537
O    0.452472  -1.916753  2.072153
H    -0.352236  -0.397565  -0.347064
H    -1.969616  -0.969022  0.095605
H    -0.669021  -2.146476  -0.211536
N    -1.006710  -0.243020  2.485656
C    -1.902777  0.878593  2.133569
C    -1.096201  1.856050  1.221880
O    0.101067  2.019368  1.442198
H    -0.595938  -0.215781  3.418488
H    -2.777160  0.462553  1.609508
C    -2.371602  1.570226  3.433361
C    -3.472768  2.614886  3.187673
C    -4.087352  3.241643  4.445476
N    -3.199859  4.236664  5.066067
C    -3.457456  4.861601  6.232838
N    -2.575644  5.743819  6.720274
N    -4.568161  4.581646  6.922413
H    -1.495492  2.028904  3.918952
H    -2.760338  0.795745  4.113568
H    -4.306474  2.140007  2.648772
H    -3.110247  3.417888  2.527011
H    -4.311161  2.461635  5.188937
H    -5.037702  3.718771  4.155729
H    -2.526474  4.691415  4.456650
H    -2.812841  6.356203  7.492739
H    -1.653223  5.853428  6.317213
H    -4.713053  4.955346  7.854147
H    -5.356822  4.112362  6.494926
N    -1.809869  2.467550  0.252267
C    -1.239555  3.462700  -0.656609
H    -2.784247  2.213818  0.123550
H    -1.812027  4.396520  -0.606982
H    -1.254467  3.093568  -1.689475
H    -0.205895  3.651358  -0.354182
Ba    2.253371  -3.392231  2.253861
