37
Energy: -246335.094527 eV PBE+vdW (tier 2 basis)
C    0.295326  0.614237  0.290176
C    -0.220961  -0.046553  1.525466
O    0.520389  -0.219984  2.536051
H    0.658775  1.618389  0.550773
H    -0.450026  0.699149  -0.507439
H    1.161429  0.054023  -0.088023
N    -1.505175  -0.456232  1.547615
C    -2.168532  -1.042495  2.721654
C    -1.589830  -2.451931  3.029047
O    -0.711593  -2.529791  3.944543
H    -2.057948  -0.308406  0.707113
H    -1.846696  -0.453669  3.593380
C    -3.705248  -0.952998  2.622847
C    -4.268966  0.458769  2.873430
C    -5.806260  0.460242  2.831460
N    -6.339825  1.801422  3.087581
C    -7.582983  2.222294  2.774022
N    -7.887237  3.518877  2.897189
N    -8.499302  1.361976  2.316003
H    -4.123023  -1.649047  3.365851
H    -4.044544  -1.317861  1.642647
H    -3.887220  1.171459  2.126798
H    -3.932307  0.814293  3.860724
H    -6.195298  -0.256406  3.574855
H    -6.153525  0.140244  1.837773
H    -5.802250  2.410689  3.696548
H    -8.849393  3.839819  2.873162
H    -7.170931  4.229143  2.994020
H    -9.379537  1.695800  1.936853
H    -8.433690  0.367610  2.495336
N    -1.953824  -3.546904  2.374553
C    -2.877981  -3.733233  1.251401
H    -1.507818  -4.395845  2.725249
H    -2.583660  -4.645835  0.723748
H    -2.811902  -2.902324  0.542867
H    -3.910165  -3.855632  1.601828
Ba    1.463127  -1.467865  4.429315
