37
Energy: -246333.977664 eV PBE+vdW (tier 2 basis)
C    -1.122505  1.113659  1.636626
C    -0.820015  0.138256  2.727469
O    -0.443055  0.615594  3.870543
H    -1.207950  0.667349  0.645674
H    -0.343873  1.881992  1.595579
H    -2.080080  1.601697  1.879281
N    -1.172784  -1.163145  2.678396
C    -0.900905  -2.018415  1.511545
C    0.551764  -1.626341  1.038929
O    1.091261  -0.624951  1.532886
H    -1.020520  -1.629741  3.571121
H    -0.853354  -3.040303  1.916765
C    -1.963166  -1.987792  0.389600
C    -3.347213  -2.570153  0.746750
C    -3.473097  -4.082419  0.506452
N    -4.847297  -4.530414  0.759713
C    -5.469308  -5.564766  0.163696
N    -6.796909  -5.690192  0.277032
N    -4.775992  -6.456132  -0.555134
H    -1.552120  -2.520309  -0.480950
H    -2.101003  -0.957960  0.042241
H    -4.098820  -2.066159  0.123384
H    -3.598867  -2.329386  1.792076
H    -2.768661  -4.648075  1.140040
H    -3.236258  -4.303178  -0.544607
H    -5.372332  -4.041937  1.478499
H    -7.267250  -6.556101  0.036712
H    -7.382728  -4.917079  0.570414
H    -5.252396  -7.135092  -1.139203
H    -3.781862  -6.589237  -0.420741
N    1.123299  -2.415578  0.125577
C    2.470675  -2.193480  -0.407419
H    0.634079  -3.250051  -0.179593
H    2.680142  -1.120248  -0.417419
H    2.516795  -2.582603  -1.429019
H    3.223947  -2.703046  0.207115
Ba    0.945335  1.857158  5.261822
