37
Energy: -246335.333223 eV PBE+vdW (tier 2 basis)
C    2.353316  1.601126  2.475102
C    1.161549  1.680549  1.576763
O    1.197086  1.212638  0.402212
H    3.209457  2.094661  1.995742
H    2.628793  0.544190  2.600219
H    2.192007  2.048018  3.461721
N    0.042546  2.258091  2.056553
C    -1.253683  2.344703  1.362876
C    -1.188157  3.441327  0.265218
O    -0.664682  3.150211  -0.851057
H    0.098836  2.659894  2.989274
H    -1.381431  1.404857  0.804658
C    -2.407574  2.490873  2.373892
C    -2.678121  1.233544  3.223192
C    -3.847268  1.457158  4.197017
N    -4.115491  0.251737  4.986258
C    -5.274362  -0.027452  5.618673
N    -5.456929  -1.241663  6.148786
N    -6.247686  0.887082  5.694764
H    -3.316327  2.736589  1.804568
H    -2.213840  3.348853  3.041967
H    -1.777322  0.956018  3.793630
H    -2.915076  0.385502  2.563381
H    -4.758214  1.701399  3.630718
H    -3.621579  2.308710  4.861677
H    -3.326699  -0.346031  5.213341
H    -6.211144  -1.424096  6.802411
H    -4.868257  -2.027970  5.899300
H    -7.172031  0.633121  6.028006
H    -6.058408  1.877143  5.599779
N    -1.663673  4.649040  0.521410
C    -1.649668  5.775956  -0.417709
H    -2.063641  4.822000  1.439558
H    -1.707471  5.398694  -1.442057
H    -0.732826  6.366822  -0.293296
H    -2.515136  6.413560  -0.213712
Ba    0.950108  1.672148  -1.989834
