37
Energy: -246334.312396 eV PBE+vdW (tier 2 basis)
C    -0.604705  -1.154913  0.224469
C    0.313090  -0.559527  1.237799
O    1.567920  -0.677501  1.131962
H    -0.429626  -0.725808  -0.771938
H    -1.664429  -1.077155  0.483428
H    -0.345131  -2.221973  0.143444
N    -0.189339  0.097146  2.322960
C    -1.185319  1.160441  2.181520
C    -0.391307  2.472299  1.875588
O    0.811228  2.399164  1.473458
H    0.538596  0.302192  3.007919
H    -1.736546  0.958289  1.249211
C    -2.244335  1.182898  3.303957
C    -1.766838  1.361082  4.754804
C    -2.962273  1.241438  5.717085
N    -2.550717  1.368464  7.117929
C    -3.379701  1.648807  8.146378
N    -2.865372  1.887416  9.357762
N    -4.701712  1.720244  7.957084
H    -2.784708  0.228701  3.215363
H    -2.996271  1.950489  3.058551
H    -1.276051  2.335970  4.897683
H    -1.031265  0.579247  5.004891
H    -3.464888  0.273382  5.550662
H    -3.688488  2.039874  5.504083
H    -1.630639  1.020400  7.369660
H    -1.880639  2.085522  9.491045
H    -3.450639  1.899090  10.186439
H    -5.310967  2.079355  8.685116
H    -5.154860  1.263088  7.175305
N    -1.018295  3.630939  1.987356
C    -0.437678  4.931043  1.629634
H    -1.990173  3.620070  2.283386
H    -0.274618  4.993407  0.546591
H    0.513441  5.077227  2.153017
H    -1.136551  5.716309  1.929065
Ba    2.943122  1.324527  0.651855
