37
Energy: -246334.637729 eV PBE+vdW (tier 2 basis)
C    -1.647551  1.689535  1.555952
C    -1.001024  0.724618  2.498844
O    -0.469999  -0.338674  2.066659
H    -2.455451  1.170312  1.020683
H    -0.918385  2.002698  0.796531
H    -2.057699  2.580469  2.042860
N    -1.011219  1.036125  3.810345
C    -0.549436  0.249404  4.976864
C    0.976693  0.002078  4.945038
O    1.498802  -0.826741  4.144139
H    -1.431701  1.934161  4.032242
H    -0.744421  0.913069  5.831017
C    -1.340377  -1.063067  5.195651
C    -2.845817  -0.864584  5.471578
C    -3.248095  -0.478186  6.911423
N    -3.364225  -1.601733  7.849662
C    -4.518729  -2.140963  8.297440
N    -4.512602  -2.865705  9.421372
N    -5.664435  -1.965606  7.630198
H    -0.859389  -1.610563  6.021269
H    -1.223056  -1.696686  4.307004
H    -3.369541  -1.791539  5.198703
H    -3.242223  -0.095200  4.791977
H    -4.212856  0.045181  6.899453
H    -2.537696  0.236346  7.353203
H    -2.524226  -1.909143  8.327896
H    -3.765192  -2.791573  10.102380
H    -5.301771  -3.451232  9.674973
H    -6.555567  -2.201184  8.054455
H    -5.686362  -1.656233  6.667396
N    1.709126  0.677448  5.820744
C    3.163140  0.556773  5.966826
H    1.242792  1.355689  6.417410
H    3.436703  0.842418  6.986763
H    3.676979  1.223022  5.261552
H    3.467290  -0.477898  5.783934
Ba    1.478520  -1.785843  1.876564
