37
Energy: -246333.758807 eV PBE+vdW (tier 2 basis)
C    0.531003  1.048162  0.472392
C    0.118380  0.303619  1.696320
O    1.065210  -0.081278  2.498238
H    1.063295  1.956607  0.794756
H    -0.291573  1.338912  -0.176789
H    1.220901  0.429684  -0.113602
N    -1.139236  0.139680  2.117819
C    -2.356328  -0.061775  1.305162
C    -2.042822  -1.306906  0.404054
O    -0.883032  -1.445499  0.008671
H    -1.186643  -0.304533  3.034076
H    -3.134486  -0.285009  2.045392
C    -2.787173  1.171382  0.466781
C    -4.248436  1.222438  -0.020955
C    -5.292153  1.629793  1.029020
N    -6.606566  1.772798  0.390878
C    -7.596894  2.599844  0.773027
N    -8.619059  2.833655  -0.058339
N    -7.559494  3.203460  1.967615
H    -2.166334  1.220749  -0.435105
H    -2.563617  2.074107  1.054739
H    -4.531822  0.266430  -0.485536
H    -4.281847  1.968014  -0.828156
H    -5.016581  2.601563  1.464135
H    -5.351703  0.896314  1.850969
H    -6.800101  1.179036  -0.409910
H    -9.477907  3.262946  0.268545
H    -8.564143  2.615847  -1.046676
H    -8.214031  3.944134  2.195171
H    -6.998627  2.841024  2.727841
N    -3.032893  -2.156244  0.069644
C    -4.399266  -2.278228  0.565009
H    -2.720591  -2.889739  -0.566588
H    -4.563821  -3.292937  0.948316
H    -5.127108  -2.093852  -0.236568
H    -4.586917  -1.577725  1.383923
Ba    3.141265  -0.844730  3.223390
