37
Energy: -246333.970098 eV PBE+vdW (tier 2 basis)
C    -0.079972  -0.564813  -0.088667
C    -0.139623  -0.193817  1.353028
O    0.988399  -0.114852  1.994805
H    -1.051956  -0.613656  -0.574812
H    0.396003  -1.547332  -0.190100
H    0.544313  0.180202  -0.605449
N    -1.235930  0.194964  2.002996
C    -2.641678  -0.199103  1.782156
C    -2.667476  -1.759695  1.918667
O    -1.698302  -2.385640  1.484746
H    -1.044313  0.497169  2.957315
H    -3.181388  0.287500  2.604223
C    -3.263083  0.290738  0.447912
C    -4.794538  0.430825  0.492252
C    -5.344225  1.001325  -0.823949
N    -6.799147  1.172150  -0.748980
C    -7.641852  1.218265  -1.798184
N    -8.962891  1.196177  -1.584034
N    -7.172002  1.258670  -3.050638
H    -2.995018  -0.397539  -0.364877
H    -2.814734  1.267451  0.212016
H    -5.079992  1.097305  1.322662
H    -5.267252  -0.543791  0.675481
H    -5.125176  0.307639  -1.648789
H    -4.858514  1.965672  -1.049173
H    -7.189577  1.431350  0.152049
H    -9.620564  1.440744  -2.316228
H    -9.353639  0.926086  -0.689114
H    -6.231248  1.570974  -3.254874
H    -7.793208  1.132862  -3.842519
N    -3.739416  -2.359959  2.470757
C    -4.888086  -1.812748  3.186121
H    -3.666670  -3.377098  2.453080
H    -5.818819  -1.981980  2.628609
H    -4.773138  -0.739645  3.362664
H    -4.978758  -2.305292  4.161879
Ba    3.163584  -0.489436  2.725070
