37
Energy: -246334.005906 eV PBE+vdW (tier 2 basis)
C    -1.321450  -1.677473  0.574682
C    -0.329897  -0.898153  1.376189
O    0.782482  -1.462004  1.732817
H    -1.066999  -1.604678  -0.494376
H    -2.350039  -1.327007  0.701422
H    -1.275244  -2.735126  0.854884
N    -0.549860  0.360372  1.714039
C    -1.716059  1.214301  1.397565
C    -1.137683  2.637379  1.189463
O    -0.607531  3.187359  2.170293
H    0.161777  0.829538  2.282396
H    -2.187772  0.831840  0.486824
C    -2.707683  1.242461  2.579454
C    -3.844100  2.282078  2.405098
C    -4.060712  3.195128  3.616080
N    -2.921732  4.097430  3.819609
C    -2.946875  5.211565  4.563813
N    -1.880795  6.026617  4.562082
N    -4.020633  5.527306  5.297769
H    -2.124991  1.456936  3.486867
H    -3.126135  0.235762  2.712483
H    -4.792406  1.764654  2.214852
H    -3.672754  2.916803  1.522212
H    -4.233615  2.585990  4.519464
H    -4.964304  3.796389  3.437235
H    -2.029526  3.846483  3.381049
H    -1.810191  6.809917  5.200285
H    -1.115687  5.885051  3.914683
H    -4.093135  6.423135  5.766135
H    -4.781002  4.875699  5.441138
N    -1.247042  3.213332  -0.015471
C    -1.854383  2.682933  -1.239903
H    -0.848964  4.150308  -0.062460
H    -1.329717  1.788594  -1.599783
H    -2.920779  2.462478  -1.103745
H    -1.771899  3.448826  -2.016248
Ba    2.631041  -2.858262  2.103166
