37
Energy: -246333.018150 eV PBE+vdW (tier 2 basis)
C    0.706008  0.280799  0.457186
C    0.375131  0.354232  1.917502
O    1.186529  0.677769  2.789897
H    1.030984  1.271000  0.111190
H    -0.123719  -0.063864  -0.169379
H    1.559748  -0.397342  0.326089
N    -0.916730  0.019871  2.285261
C    -1.294909  0.174193  3.685805
C    -2.222468  -0.981897  4.060809
O    -3.500522  -0.933718  3.886395
H    -1.621452  -0.066187  1.560485
H    -0.345593  0.005004  4.218933
C    -1.791071  1.586236  4.071754
C    -1.368061  2.024145  5.484827
C    0.117781  2.381339  5.656524
N    0.470537  3.657535  5.012392
C    1.676852  3.958227  4.471037
N    2.410799  3.024381  3.866348
N    2.110578  5.224512  4.526184
H    -2.884263  1.649402  3.965915
H    -1.379890  2.286285  3.331461
H    -1.597808  1.237064  6.220959
H    -1.979858  2.885979  5.790904
H    0.769137  1.601554  5.246649
H    0.342544  2.451474  6.731751
H    -0.055721  4.464621  5.337832
H    3.373001  3.222315  3.615363
H    2.005756  2.148173  3.517850
H    1.747470  5.885101  5.203819
H    2.879474  5.543021  3.946324
N    -1.660090  -2.071770  4.549201
C    -2.349469  -3.314985  4.889711
H    -0.647340  -2.056862  4.657678
H    -1.611010  -4.037730  5.247786
H    -2.843195  -3.738648  4.004703
H    -3.077062  -3.145091  5.694778
Ba    -5.845103  -1.146797  3.747449
