37
Energy: -246333.959504 eV PBE+vdW (tier 2 basis)
C    -0.235986  -3.196278  -0.610963
C    0.225451  -1.850422  -0.172459
O    0.965587  -1.143299  -0.971836
H    -0.610154  -3.804743  0.217254
H    0.597740  -3.724343  -1.090089
H    -1.025927  -3.071154  -1.367418
N    -0.091202  -1.322311  1.003097
C    -0.960930  -1.800800  2.124722
C    -0.335315  -3.031999  2.836496
O    -0.551562  -4.173123  2.399458
H    0.297277  -0.391373  1.150499
H    -0.948919  -0.948445  2.818226
C    -2.422008  -2.048866  1.708205
C    -3.407941  -2.036934  2.893766
C    -3.569565  -3.321658  3.720088
N    -4.293103  -4.384685  3.004675
C    -3.942710  -5.685410  2.936407
N    -4.901983  -6.609876  2.786925
N    -2.660083  -6.054773  2.988485
H    -2.500673  -2.995033  1.155433
H    -2.709175  -1.244924  1.016480
H    -4.397134  -1.754227  2.505138
H    -3.143128  -1.229200  3.593898
H    -4.141404  -3.076418  4.627360
H    -2.612798  -3.729934  4.061285
H    -5.270847  -4.189468  2.804888
H    -4.680834  -7.558903  2.507309
H    -5.867509  -6.417998  3.028901
H    -1.895588  -5.394367  2.811934
H    -2.419234  -7.028722  3.130145
N    0.410226  -2.766254  3.918857
C    1.073270  -3.793629  4.723914
H    0.486380  -1.804506  4.236062
H    2.060003  -3.431787  5.031329
H    1.185031  -4.699281  4.121832
H    0.485523  -4.023389  5.622289
Ba    2.253693  -0.229629  -2.708031
