37
Energy: -246335.231985 eV PBE+vdW (tier 2 basis)
C    0.676285  -1.286515  -0.066786
C    0.219696  -0.466681  1.094685
O    0.854065  0.568021  1.455672
H    0.650587  -0.657147  -0.968599
H    0.067610  -2.179842  -0.241222
H    1.722488  -1.585439  0.079903
N    -0.895407  -0.848362  1.745061
C    -1.581015  -0.090310  2.808437
C    -0.773832  -0.205951  4.127677
O    0.162950  0.617094  4.345308
H    -1.350660  -1.695782  1.413075
H    -1.522346  0.974616  2.537164
C    -3.061378  -0.520354  2.844578
C    -3.986738  0.352886  3.710282
C    -5.437417  -0.165443  3.658717
N    -6.358060  0.612133  4.495290
C    -7.540132  1.148120  4.121246
N    -8.475684  1.375763  5.048584
N    -7.785495  1.467149  2.845091
H    -3.144615  -1.579047  3.148349
H    -3.416057  -0.491709  1.802304
H    -3.956051  1.395857  3.361277
H    -3.644254  0.361846  4.756955
H    -5.475667  -1.214730  3.992179
H    -5.815299  -0.162921  2.628725
H    -6.212662  0.551862  5.499211
H    -8.461658  0.910402  5.949427
H    -9.266989  1.983423  4.862159
H    -8.724161  1.701255  2.539610
H    -7.041128  1.597786  2.173038
N    -1.062329  -1.179157  4.978543
C    -0.340247  -1.439300  6.228419
H    -1.806714  -1.824644  4.729451
H    0.544026  -2.062131  6.040273
H    -1.005859  -1.969381  6.915523
H    -0.030925  -0.491430  6.678028
Ba    1.969070  1.866060  3.182366
