37
Energy: -246334.648912 eV PBE+vdW (tier 2 basis)
C    -2.166457  0.890148  1.500981
C    -1.238039  0.381143  2.559774
O    -0.571195  -0.677878  2.372157
H    -2.894389  0.102748  1.260826
H    -1.598638  1.084461  0.580689
H    -2.703966  1.802088  1.781233
N    -1.146088  1.097195  3.696154
C    -0.412661  0.822955  4.951777
C    1.118918  0.736960  4.770128
O    1.677425  -0.192769  4.116654
H    -1.709011  1.943238  3.711001
H    -0.594098  1.726472  5.550347
C    -0.979624  -0.363185  5.775523
C    -2.350115  -0.028172  6.402533
C    -2.761706  -0.880362  7.622034
N    -3.388826  -2.178261  7.336654
C    -4.675438  -2.499654  7.596475
N    -5.012102  -3.784694  7.759010
N    -5.619069  -1.555651  7.672721
H    -0.254558  -0.566521  6.579403
H    -1.025046  -1.266871  5.151582
H    -3.144580  -0.056919  5.642224
H    -2.314067  1.009322  6.771356
H    -3.462450  -0.305429  8.240412
H    -1.890243  -1.068611  8.266390
H    -2.771555  -2.967641  7.176280
H    -4.328047  -4.485585  8.021569
H    -5.983558  -4.078671  7.753602
H    -6.533826  -1.761316  8.060682
H    -5.469546  -0.615615  7.330045
N    1.832216  1.669530  5.387068
C    3.297066  1.730742  5.402485
H    1.337754  2.413048  5.873293
H    3.612718  2.288705  6.288914
H    3.669528  2.245756  4.507338
H    3.709070  0.718127  5.443245
Ba    1.636201  -1.693832  2.185440
