37
Energy: -246334.112508 eV PBE+vdW (tier 2 basis)
C    -0.149049  -0.558398  0.111845
C    -0.017240  0.133896  1.425446
O    1.134264  0.166776  2.016914
H    0.072580  0.163998  -0.689690
H    -1.155710  -0.951442  -0.063586
H    0.569443  -1.381525  0.046010
N    -1.053929  0.719560  2.002461
C    -2.354501  1.025661  1.372051
C    -2.068214  1.935592  0.133395
O    -1.102917  2.694213  0.158856
H    -0.846027  1.225823  2.862978
H    -2.826103  0.076814  1.072599
C    -3.237259  1.731892  2.425910
C    -4.676870  2.013910  1.967521
C    -5.514236  2.645609  3.089456
N    -6.866110  2.954768  2.611082
C    -7.951819  3.140325  3.385017
N    -9.159611  3.232014  2.815106
N    -7.837322  3.208541  4.716665
H    -2.746819  2.679191  2.703506
H    -3.261693  1.094945  3.324660
H    -5.163141  1.080967  1.642343
H    -4.662593  2.696279  1.103792
H    -5.019438  3.561673  3.453982
H    -5.602128  1.944729  3.932584
H    -6.968415  3.192442  1.629206
H    -9.321569  2.939618  1.858620
H    -9.961958  3.575343  3.331579
H    -8.659665  3.189823  5.310156
H    -6.958782  3.438876  5.163420
N    -2.943294  1.812765  -0.887109
C    -2.868946  2.619170  -2.105991
H    -3.658124  1.094089  -0.837246
H    -3.837724  3.090452  -2.308190
H    -2.590459  1.997201  -2.965941
H    -2.111397  3.393861  -1.959752
Ba    3.416504  0.230693  2.494311
