37
Energy: -246335.101609 eV PBE+vdW (tier 2 basis)
C    -0.417514  -0.559066  0.605409
C    -0.271376  -0.386612  2.082163
O    0.786549  0.093335  2.580799
H    0.421499  -1.149450  0.214914
H    -0.353330  0.432111  0.132635
H    -1.359234  -1.032370  0.308413
N    -1.305586  -0.744569  2.870061
C    -1.407116  -0.496252  4.315015
C    -0.592497  -1.552634  5.105809
O    0.669304  -1.448306  5.118239
H    -2.110859  -1.151131  2.403507
H    -0.845632  0.432150  4.500039
C    -2.862258  -0.192808  4.750777
C    -4.015660  -1.139709  4.355837
C    -5.359528  -0.552294  4.828237
N    -6.487908  -1.401520  4.438625
C    -7.707968  -1.393175  5.020453
N    -8.601294  -2.326851  4.677720
N    -8.015229  -0.483895  5.951587
H    -3.090158  0.802766  4.341481
H    -2.847140  -0.061592  5.843451
H    -3.908894  -2.151315  4.777959
H    -4.059112  -1.266280  3.261110
H    -5.477346  0.463197  4.413581
H    -5.358033  -0.470559  5.924921
H    -6.429056  -1.877209  3.543091
H    -8.333138  -3.166568  4.177325
H    -9.580584  -2.237281  4.928243
H    -8.865571  -0.570861  6.499240
H    -7.527252  0.401152  6.016269
N    -1.205210  -2.524818  5.761979
C    -0.511190  -3.552255  6.548242
H    -2.217982  -2.565130  5.724269
H    -1.253277  -4.105539  7.129495
H    0.204831  -3.081368  7.230417
H    0.020592  -4.247396  5.886967
Ba    2.630153  -0.286899  4.136723
