37
Energy: -246334.192147 eV PBE+vdW (tier 2 basis)
C    0.465176  1.192044  -0.048607
C    0.398614  0.727553  1.366975
O    1.439819  0.650895  2.080809
H    0.651931  2.276154  -0.091897
H    -0.431636  0.955399  -0.628621
H    1.334964  0.713743  -0.519974
N    -0.792275  0.371301  1.921571
C    -1.998602  1.196607  1.810680
C    -1.670781  2.544477  2.522359
O    -0.721628  2.573120  3.373347
H    -0.677672  -0.050880  2.843819
H    -2.193245  1.389673  0.746539
C    -3.190206  0.394840  2.406297
C    -4.598351  0.907863  2.058739
C    -5.721973  -0.135823  2.163745
N    -6.076085  -0.487400  3.546375
C    -6.880109  -1.525899  3.875183
N    -7.143528  -1.770142  5.163866
N    -7.380788  -2.327384  2.931188
H    -3.060269  0.310101  3.496506
H    -3.073073  -0.620102  1.997478
H    -4.620592  1.232479  1.008628
H    -4.862368  1.794892  2.654919
H    -5.412458  -1.055832  1.646080
H    -6.604212  0.266803  1.639570
H    -6.037596  0.263774  4.229714
H    -6.632814  -1.314214  5.910108
H    -7.872743  -2.419215  5.439938
H    -7.432346  -2.045267  1.960007
H    -7.865119  -3.184491  3.178196
N    -2.332466  3.657645  2.234976
C    -3.336098  3.936560  1.203529
H    -2.046492  4.463316  2.793790
H    -3.081575  4.888342  0.723731
H    -4.335230  4.027015  1.645828
H    -3.342632  3.156474  0.438386
Ba    1.690367  2.162590  4.027806
