37
Energy: -246333.754555 eV PBE+vdW (tier 2 basis)
C    0.357665  0.687439  0.105667
C    0.141533  0.949890  1.564244
O    0.976384  1.704560  2.206904
H    0.377485  1.638410  -0.444934
H    -0.417762  0.051843  -0.334276
H    1.326726  0.189306  -0.041646
N    -0.900307  0.393969  2.149129
C    -1.327886  0.398614  3.551578
C    -1.889284  -1.026712  3.782531
O    -2.569287  -1.537140  2.877599
H    -1.474112  -0.255388  1.595350
H    -0.448664  0.587389  4.180704
C    -2.426834  1.460456  3.879249
C    -3.432128  1.900616  2.796594
C    -4.342372  0.872776  2.097152
N    -5.068615  -0.057104  2.966289
C    -6.383825  -0.023258  3.241609
N    -7.002384  -1.143182  3.639766
N    -7.082316  1.114309  3.138849
H    -1.916350  2.372852  4.216836
H    -2.967778  1.085774  4.760707
H    -2.902917  2.431982  1.990131
H    -4.056432  2.668311  3.278412
H    -3.764029  0.243651  1.410044
H    -5.066465  1.413567  1.472612
H    -4.569689  -0.928123  3.151127
H    -6.607010  -2.057360  3.454285
H    -7.933581  -1.118763  4.040537
H    -8.095869  1.110987  3.167447
H    -6.629325  2.016232  3.075159
N    -1.634630  -1.591466  4.968184
C    -2.144099  -2.904691  5.369830
H    -1.070114  -1.082301  5.640995
H    -1.338668  -3.480347  5.838143
H    -2.494624  -3.432648  4.478902
H    -2.968285  -2.798494  6.086891
Ba    2.945884  2.963710  2.498274
