37
Energy: -246333.940835 eV PBE+vdW (tier 2 basis)
C    0.233898  0.934075  0.832560
C    -0.199440  0.477007  2.184949
O    0.717548  0.361437  3.095744
H    -0.559795  0.946561  0.087819
H    1.036529  0.285250  0.464839
H    0.630737  1.956431  0.935148
N    -1.476209  0.374241  2.578905
C    -2.586539  -0.151307  1.766990
C    -2.080458  -1.542370  1.236189
O    -0.865987  -1.720746  1.110818
H    -1.560810  0.162425  3.572369
H    -3.408173  -0.296239  2.482382
C    -3.070659  0.783215  0.622371
C    -4.549924  0.650386  0.205069
C    -5.548041  1.428212  1.076208
N    -6.901089  1.302543  0.521018
C    -7.891997  2.208739  0.614238
N    -8.970539  2.088687  -0.168594
N    -7.799765  3.236410  1.467403
H    -2.470546  0.592774  -0.275482
H    -2.867442  1.821956  0.921424
H    -4.842840  -0.410566  0.152218
H    -4.634604  1.029406  -0.823036
H    -5.277879  2.494152  1.076109
H    -5.534092  1.075428  2.121368
H    -7.129073  0.436768  0.041915
H    -8.969144  1.498505  -0.992583
H    -9.820996  2.607942  0.020907
H    -7.184501  3.206047  2.270241
H    -8.462425  4.003429  1.428535
N    -3.020860  -2.442900  0.915643
C    -2.707978  -3.760391  0.354275
H    -3.984512  -2.257357  1.169417
H    -3.535736  -4.082955  -0.284821
H    -2.557219  -4.501228  1.150135
H    -1.795170  -3.686162  -0.243290
Ba    2.760431  -0.172026  4.068945
