37
Energy: -246333.936338 eV PBE+vdW (tier 2 basis)
C    -3.345100  2.022412  2.971211
C    -2.016319  1.556215  2.476531
O    -1.032531  2.385798  2.348743
H    -3.278535  3.044021  3.353296
H    -3.733803  1.368079  3.762960
H    -4.080784  2.005076  2.151692
N    -1.835358  0.280348  2.152943
C    -2.853520  -0.798735  2.151534
C    -3.279467  -1.296644  3.557508
O    -4.454710  -1.654502  3.703858
H    -0.910883  0.032106  1.796843
H    -3.772674  -0.387625  1.713047
C    -2.318299  -1.949628  1.266927
C    -3.109156  -3.271671  1.228217
C    -4.491684  -3.280301  0.551781
N    -5.577976  -2.949572  1.478409
C    -6.829107  -3.416991  1.390265
N    -7.649380  -3.298160  2.446004
N    -7.275696  -4.001407  0.269974
H    -1.303149  -2.200571  1.618312
H    -2.211123  -1.562161  0.241606
H    -3.189475  -3.713752  2.231853
H    -2.479301  -3.967241  0.657227
H    -4.667299  -4.294926  0.167100
H    -4.498727  -2.598148  -0.315484
H    -5.322726  -2.422694  2.327718
H    -8.642465  -3.482008  2.369597
H    -7.287432  -3.068932  3.363395
H    -8.163012  -4.490576  0.250951
H    -6.775465  -3.927992  -0.606066
N    -2.353235  -1.344363  4.527910
C    -2.621372  -1.892698  5.861357
H    -1.392381  -1.113896  4.299092
H    -1.981625  -1.389960  6.593016
H    -2.421711  -2.971731  5.888657
H    -3.671518  -1.719814  6.112798
Ba    0.398923  4.257240  2.184168
