37
Energy: -246334.113986 eV PBE+vdW (tier 2 basis)
C    0.085615  0.412861  0.683920
C    -0.046926  -0.206062  2.034934
O    1.034915  -0.544903  2.676781
H    0.683142  -0.246170  0.039828
H    0.630464  1.363756  0.768743
H    -0.875611  0.603742  0.199826
N    -1.207622  -0.422315  2.606813
C    -2.576770  -0.016153  2.249992
C    -3.196550  0.201274  3.672385
O    -2.741769  -0.485819  4.595348
H    -1.252658  -0.807991  3.576170
H    -2.557475  0.919809  1.675551
C    -3.302411  -1.144938  1.467237
C    -4.789955  -0.860539  1.193482
C    -5.591087  -2.028307  0.595978
N    -5.421754  -2.182717  -0.855306
C    -6.323550  -2.751710  -1.677665
N    -7.369646  -3.421217  -1.182887
N    -6.176355  -2.634286  -3.004751
H    -3.210108  -2.070106  2.056459
H    -2.745288  -1.309245  0.530740
H    -4.916357  0.030981  0.558953
H    -5.284373  -0.629957  2.146879
H    -6.656909  -1.834106  0.777410
H    -5.328229  -2.965825  1.113879
H    -4.531633  -1.929618  -1.269651
H    -8.143796  -3.693924  -1.778990
H    -7.382541  -3.768189  -0.231734
H    -6.721104  -3.201025  -3.645405
H    -5.600051  -1.908568  -3.413351
N    -4.179104  1.103613  3.784384
C    -4.867751  1.397204  5.044147
H    -4.418687  1.667131  2.974540
H    -5.952362  1.339526  4.898256
H    -4.606337  2.402685  5.395812
H    -4.558993  0.660050  5.789564
Ba    3.009310  -0.927928  3.834939
