37
Energy: -246334.103266 eV PBE+vdW (tier 2 basis)
C    0.013924  0.490291  -0.059639
C    0.798494  -0.026515  1.099967
O    1.868076  -0.731930  0.864572
H    0.632778  1.194036  -0.634878
H    -0.909636  0.997193  0.231173
H    -0.235569  -0.342540  -0.730567
N    0.457408  0.203872  2.346801
C    -0.502912  1.161461  2.917040
C    0.217104  1.563842  4.248920
O    1.111702  0.815504  4.669637
H    1.090144  -0.087573  3.129515
H    -0.583849  2.034067  2.254962
C    -1.921075  0.594483  3.178838
C    -1.993454  -0.566217  4.188871
C    -3.315642  -0.685903  4.955732
N    -4.457038  -1.044641  4.100390
C    -5.748290  -0.971194  4.484448
N    -6.716929  -1.257919  3.605256
N    -6.069233  -0.585375  5.723578
H    -2.368260  0.310298  2.214757
H    -2.522766  1.440968  3.543758
H    -1.222814  -0.440564  4.963530
H    -1.758665  -1.524492  3.699813
H    -3.544841  0.276397  5.437603
H    -3.186992  -1.440504  5.748875
H    -4.265727  -1.641916  3.301767
H    -7.677461  -1.389522  3.902735
H    -6.531943  -1.328150  2.612212
H    -7.031454  -0.384736  5.974734
H    -5.399808  -0.619529  6.482509
N    -0.214771  2.672462  4.858311
C    0.348755  3.178438  6.113148
H    -0.898445  3.255351  4.384467
H    -0.461477  3.447434  6.799613
H    0.968198  4.064117  5.924958
H    0.965736  2.395195  6.560680
Ba    3.903555  -1.693177  0.296468
