37
Energy: -246334.999356 eV PBE+vdW (tier 2 basis)
C    -2.483740  -0.434534  -0.146157
C    -1.940032  -0.346741  1.245673
O    -1.153311  -1.234133  1.684470
H    -3.015286  -1.389899  -0.258421
H    -1.650319  -0.452850  -0.861714
H    -3.159559  0.384875  -0.412331
N    -2.322386  0.707279  1.993987
C    -2.037983  1.022825  3.411375
C    -0.532850  1.229540  3.679545
O    0.273868  0.250512  3.707656
H    -2.938173  1.364134  1.522866
H    -2.522308  1.994917  3.562127
C    -2.671534  0.037012  4.421932
C    -4.207573  0.133419  4.467219
C    -4.824144  -0.807451  5.519833
N    -6.290882  -0.792285  5.520669
C    -7.103622  -0.402594  6.524301
N    -8.366808  -0.839491  6.550266
N    -6.668236  0.415221  7.490786
H    -2.253459  0.270626  5.413722
H    -2.356520  -0.989640  4.186164
H    -4.628623  -0.114083  3.480536
H    -4.511550  1.169631  4.683848
H    -4.474185  -0.557918  6.530119
H    -4.504789  -1.844462  5.335530
H    -6.749729  -1.265523  4.747710
H    -9.067130  -0.395898  7.135737
H    -8.664215  -1.650902  6.019786
H    -7.216500  0.563812  8.331324
H    -5.851683  0.998906  7.369530
N    -0.092823  2.458072  3.921247
C    -0.825492  3.732958  3.929418
H    0.903175  2.508722  4.139578
H    -1.340326  3.903184  2.976864
H    -0.094933  4.535865  4.063040
H    -1.535510  3.779603  4.764330
Ba    0.992166  -1.848709  2.671429
