37
Energy: -246333.916285 eV PBE+vdW (tier 2 basis)
C    -1.766125  1.597791  2.091546
C    -1.194664  0.586009  3.040307
O    -0.008803  0.643436  3.422150
H    -1.789664  2.575464  2.593065
H    -2.772114  1.358634  1.730664
H    -1.087570  1.706736  1.236234
N    -2.043899  -0.389764  3.480735
C    -1.743437  -1.557266  4.326808
C    -1.178356  -1.215929  5.717099
O    -1.668278  -1.830644  6.752871
H    -3.001655  -0.334989  3.148729
H    -2.728886  -1.985558  4.550864
C    -0.954219  -2.711660  3.634569
C    0.439802  -2.449222  3.021625
C    0.394535  -2.144502  1.514543
N    1.728557  -1.812767  1.008889
C    2.255183  -2.178505  -0.175079
N    3.562654  -1.993778  -0.396255
N    1.497007  -2.739642  -1.124833
H    -1.626892  -3.120323  2.865385
H    -0.864187  -3.510718  4.385374
H    1.054449  -3.348228  3.164521
H    0.954422  -1.632421  3.544151
H    -0.302542  -1.321779  1.293611
H    0.038527  -3.036113  0.980360
H    2.271814  -1.151772  1.556914
H    3.951703  -2.044818  -1.331494
H    4.212378  -1.821750  0.361901
H    0.491914  -2.623316  -1.142771
H    1.921183  -3.171592  -1.938786
N    -0.210888  -0.345383  5.825396
C    0.409566  0.072979  7.076723
H    0.066159  0.109233  4.897423
H    1.189540  0.804975  6.849806
H    0.873144  -0.780956  7.589014
H    -0.325994  0.553361  7.737333
Ba    -2.519532  -2.629542  8.770344
