37
Energy: -246335.000254 eV PBE+vdW (tier 2 basis)
C    -2.738857  -3.786778  2.703632
C    -3.253964  -2.401349  2.484123
O    -4.309730  -2.194533  1.818496
H    -1.798725  -3.824183  3.263858
H    -2.600255  -4.287607  1.736319
H    -3.502322  -4.361171  3.248457
N    -2.567428  -1.376053  3.025985
C    -2.968656  0.042591  3.024486
C    -2.725887  0.650706  1.616820
O    -3.592525  0.458332  0.712849
H    -1.702236  -1.611316  3.506821
H    -4.062015  0.068072  3.152674
C    -2.291024  0.778239  4.199345
C    -2.747727  0.304731  5.604004
C    -3.762208  1.213993  6.325125
N    -3.196676  2.443330  6.897273
C    -2.595146  2.553848  8.102673
N    -2.103563  3.736518  8.484564
N    -2.456019  1.487724  8.899180
H    -2.477954  1.855801  4.083034
H    -1.198690  0.653578  4.120816
H    -1.866405  0.180609  6.247230
H    -3.200907  -0.695733  5.535476
H    -4.276861  0.642485  7.111998
H    -4.561617  1.535293  5.644429
H    -3.455187  3.318357  6.455212
H    -1.775150  3.893255  9.431682
H    -2.079616  4.535403  7.861582
H    -1.970472  1.564123  9.787081
H    -3.008095  0.650387  8.763674
N    -1.618051  1.338273  1.389726
C    -1.250464  1.943111  0.104874
H    -0.955777  1.443972  2.153601
H    -2.156350  2.207205  -0.446936
H    -0.647076  1.243846  -0.488592
H    -0.662538  2.845875  0.296459
Ba    -5.317828  -1.101931  -0.122028
