37
Energy: -246333.577596 eV PBE+vdW (tier 2 basis)
C    0.079450  1.084356  1.250922
C    -0.137780  0.171487  2.427469
O    0.765950  -0.243643  3.136952
H    0.960063  1.706259  1.448796
H    -0.782083  1.716757  1.001323
H    0.317599  0.494068  0.353055
N    -1.477651  -0.168771  2.784717
C    -2.457638  -0.567473  1.744210
C    -3.853847  -0.039861  2.147986
O    -3.918475  0.922543  2.987548
H    -1.417136  -0.879635  3.521816
H    -2.197209  -0.011547  0.829136
C    -2.399182  -2.082765  1.433194
C    -1.017944  -2.630597  0.986685
C    -0.257010  -3.410281  2.077069
N    0.962302  -4.031535  1.558321
C    2.226036  -3.848024  1.993245
N    3.157721  -4.752747  1.673317
N    2.564624  -2.781173  2.726483
H    -3.107577  -2.289133  0.618548
H    -2.772782  -2.646451  2.303658
H    -0.380010  -1.831249  0.582764
H    -1.186580  -3.312512  0.142110
H    -0.901911  -4.207741  2.477741
H    0.018823  -2.776637  2.929107
H    0.832047  -4.790034  0.894227
H    4.146495  -4.557342  1.787857
H    2.914102  -5.675513  1.330591
H    1.974250  -1.958669  2.812376
H    3.470932  -2.742480  3.179205
N    -4.932203  -0.549390  1.592503
C    -6.314560  -0.104173  1.807275
H    -4.806279  -1.314599  0.932840
H    -6.337291  0.661419  2.584483
H    -6.924274  -0.963189  2.110840
H    -6.713799  0.304136  0.870377
Ba    -2.612708  2.240604  4.453338
