37
Energy: -246333.691918 eV PBE+vdW (tier 2 basis)
C    -0.032474  1.127853  -0.740057
C    0.073863  0.283052  0.483498
O    1.240780  -0.091135  0.898302
H    0.133647  2.179496  -0.458378
H    -1.011785  1.060887  -1.223722
H    0.739772  0.837956  -1.460783
N    -1.000866  -0.096552  1.157231
C    -2.352449  0.499479  1.064930
C    -2.186282  2.028360  1.342619
O    -1.296687  2.383584  2.114145
H    -0.811416  -0.614302  2.015548
H    -2.752314  0.296605  0.062232
C    -3.219989  -0.182925  2.152524
C    -4.659088  0.335602  2.322847
C    -5.714918  -0.171823  1.319466
N    -6.277261  -1.493857  1.626510
C    -7.437103  -1.722957  2.273279
N    -8.010505  -2.929816  2.191889
N    -8.023560  -0.760492  2.994398
H    -2.700310  -0.028963  3.111225
H    -3.223150  -1.268692  1.963603
H    -4.661831  1.434240  2.306349
H    -4.983311  0.063962  3.337790
H    -5.311457  -0.230825  0.299441
H    -6.551103  0.538290  1.265027
H    -5.819376  -2.309315  1.234426
H    -8.764834  -3.197771  2.814880
H    -7.775121  -3.583374  1.453943
H    -7.526993  0.069085  3.291780
H    -8.976002  -0.866210  3.326906
N    -3.017845  2.898739  0.725039
C    -4.055849  2.678840  -0.276104
H    -2.865436  3.862623  1.020650
H    -4.051316  3.516019  -0.982929
H    -5.058263  2.623141  0.171531
H    -3.870452  1.765160  -0.851132
Ba    3.493830  -0.122403  1.515530
