37
Energy: -246334.235594 eV PBE+vdW (tier 2 basis)
C    1.284671  0.163728  2.076068
C    0.461534  0.580920  3.246551
O    0.991438  1.125325  4.258462
H    1.739987  1.035391  1.584193
H    0.737996  -0.434050  1.341115
H    2.122451  -0.436096  2.462717
N    -0.883253  0.358282  3.264796
C    -1.758164  0.747953  2.159499
C    -1.944897  2.295848  2.265809
O    -1.430525  2.919353  3.251830
H    -1.281476  0.563157  4.181235
H    -1.204276  0.575256  1.223793
C    -3.030222  -0.128748  2.075738
C    -4.009995  -0.121559  3.261557
C    -5.143531  -1.128183  2.991933
N    -6.100860  -1.190135  4.100020
C    -7.347754  -1.702302  4.017914
N    -8.180212  -1.572341  5.056825
N    -7.764537  -2.308340  2.901122
H    -2.663224  -1.152930  1.913315
H    -3.572404  0.140967  1.160110
H    -4.438551  0.880280  3.418405
H    -3.493937  -0.413088  4.191227
H    -4.705543  -2.123845  2.806926
H    -5.692426  -0.827290  2.087366
H    -5.742790  -1.040314  5.038172
H    -8.000110  -0.916151  5.807506
H    -9.040063  -2.107846  5.113866
H    -8.741244  -2.555994  2.779085
H    -7.113894  -2.697773  2.229947
N    -2.583330  2.965493  1.316965
C    -3.128644  2.499024  0.036741
H    -2.658368  3.968242  1.492205
H    -4.193431  2.250725  0.127955
H    -2.572236  1.634817  -0.338995
H    -3.024787  3.310474  -0.691043
Ba    0.434215  3.459372  4.869098
