37
Energy: -246333.960071 eV PBE+vdW (tier 2 basis)
C    -1.164300  -1.573693  0.381029
C    -0.794794  -0.268720  1.017241
O    0.121588  0.468160  0.474898
H    -0.280123  -2.225264  0.332644
H    -1.517989  -1.399328  -0.645110
H    -1.949372  -2.110594  0.923732
N    -1.424333  0.083728  2.122632
C    -1.292131  1.279628  2.974724
C    -1.405199  0.741461  4.426423
O    -2.474198  0.202001  4.753474
H    -2.135277  -0.565491  2.470368
H    -0.320370  1.748230  2.773190
C    -2.471059  2.243414  2.698252
C    -2.646405  3.358268  3.760161
C    -4.076857  3.500883  4.293561
N    -4.480573  2.321294  5.065264
C    -5.585046  2.237344  5.820061
N    -5.796247  1.134619  6.554030
N    -6.472605  3.238540  5.856877
H    -3.380099  1.626937  2.648319
H    -2.343180  2.677041  1.697764
H    -2.363344  4.328452  3.333769
H    -1.970718  3.204861  4.615215
H    -4.772661  3.663134  3.452587
H    -4.116871  4.390254  4.940650
H    -3.885672  1.487116  5.006022
H    -6.658257  0.993630  7.066846
H    -5.094625  0.407954  6.620307
H    -7.263631  3.218729  6.490020
H    -6.400112  4.040669  5.245211
N    -0.343839  0.894963  5.226864
C    -0.305498  0.449091  6.621490
H    0.473496  1.375470  4.864916
H    0.660313  -0.025182  6.825414
H    -1.107959  -0.275931  6.780429
H    -0.437581  1.298531  7.303812
Ba    1.735273  0.985254  -1.166768
