37
Energy: -246334.206946 eV PBE+vdW (tier 2 basis)
C    -2.265308  1.284723  -0.072829
C    -1.126852  1.087077  0.878265
O    0.005232  1.594538  0.642316
H    -3.184385  1.561160  0.455731
H    -2.468041  0.362525  -0.639818
H    -2.006490  2.073292  -0.785540
N    -1.294165  0.359350  2.016062
C    -1.961596  -0.952072  2.061897
C    -1.317398  -1.848993  0.953744
O    -0.235853  -1.484510  0.397136
H    -0.488375  0.430677  2.635879
H    -1.613563  -1.395396  3.009412
C    -3.507419  -0.931774  2.144168
C    -4.007026  -0.052075  3.308143
C    -5.427385  -0.335176  3.817757
N    -6.483751  0.125881  2.904332
C    -7.793381  -0.185832  3.049047
N    -8.679776  0.274921  2.159475
N    -8.200207  -0.977787  4.045190
H    -3.840148  -1.965302  2.329985
H    -3.954563  -0.633783  1.186778
H    -3.903874  1.015396  3.058603
H    -3.352282  -0.204611  4.179444
H    -5.534313  0.158959  4.797400
H    -5.557745  -1.416787  3.971370
H    -6.299189  0.987735  2.398569
H    -9.678297  0.215738  2.329154
H    -8.390312  0.700042  1.286970
H    -9.153922  -1.323550  4.078779
H    -7.640965  -1.119950  4.877622
N    -1.889145  -3.003896  0.660020
C    -1.338710  -3.989711  -0.278814
H    -2.748570  -3.250816  1.141678
H    -2.033147  -4.831297  -0.341700
H    -0.366859  -4.353269  0.075878
H    -1.224104  -3.545055  -1.273912
Ba    1.714852  -0.001709  -0.200677
