37
Energy: -246333.927983 eV PBE+vdW (tier 2 basis)
C    -0.355205  0.914731  0.376709
C    -0.271689  0.045500  1.593451
O    0.888978  -0.252446  2.086238
H    0.176631  0.435185  -0.457607
H    0.127017  1.882004  0.576397
H    -1.384576  1.104671  0.055678
N    -1.395803  -0.393508  2.122373
C    -1.632988  -1.298948  3.250314
C    -2.922152  -2.061521  2.857414
O    -3.781248  -1.460911  2.185672
H    -2.278673  -0.177598  1.638544
H    -0.784590  -1.991794  3.327267
C    -1.806707  -0.566444  4.615953
C    -2.544208  0.784539  4.657411
C    -4.038633  0.868368  4.320268
N    -4.890587  0.074847  5.222740
C    -6.069047  -0.491967  4.873182
N    -7.032043  -0.615166  5.795747
N    -6.261898  -0.959980  3.637422
H    -0.800252  -0.391149  5.021130
H    -2.280012  -1.283518  5.303083
H    -2.041150  1.507402  3.996849
H    -2.390491  1.186070  5.671102
H    -4.234668  0.547199  3.294567
H    -4.339703  1.925330  4.388588
H    -4.802759  0.295667  6.211899
H    -7.836683  -1.213254  5.641780
H    -7.042747  -0.046232  6.634858
H    -7.194566  -1.199318  3.320729
H    -5.478695  -1.124909  2.996709
N    -3.038267  -3.316516  3.298388
C    -4.205978  -4.163797  3.046469
H    -2.278836  -3.716072  3.841304
H    -3.875430  -5.199369  2.919644
H    -4.699729  -3.828672  2.129574
H    -4.913408  -4.117134  3.884618
Ba    3.246337  -0.312539  2.123382
