37
Energy: -246334.241708 eV PBE+vdW (tier 2 basis)
C    -0.015150  0.050362  -0.095267
C    0.048343  -0.108960  1.386127
O    1.142059  -0.359910  1.969571
H    0.556791  0.930345  -0.422888
H    -1.032861  0.101961  -0.492633
H    0.490381  -0.821038  -0.538094
N    -1.082832  -0.016749  2.142139
C    -2.012710  1.104083  2.009056
C    -1.409944  2.280680  2.846827
O    -0.210439  2.214479  3.255650
H    -0.913292  -0.301247  3.107066
H    -1.956452  1.445865  0.963705
C    -3.486331  0.703781  2.263780
C    -3.836444  0.202628  3.676360
C    -5.116774  -0.648052  3.769491
N    -6.360458  0.105584  3.569633
C    -7.562958  -0.251252  4.076491
N    -8.598343  0.587281  3.955271
N    -7.720436  -1.413747  4.715976
H    -3.700913  -0.083462  1.525443
H    -4.127042  1.552359  1.974222
H    -3.892838  1.035839  4.392334
H    -3.041160  -0.465741  4.040670
H    -5.156274  -1.077815  4.779171
H    -5.054853  -1.482798  3.050762
H    -6.393340  0.784916  2.816553
H    -8.469617  1.566338  3.729021
H    -9.548642  0.280929  4.136203
H    -8.565524  -1.605166  5.244761
H    -7.089645  -2.193379  4.574939
N    -2.159631  3.348870  3.063042
C    -1.699557  4.563031  3.749151
H    -3.099402  3.358722  2.677820
H    -0.938369  5.077678  3.149914
H    -1.284229  4.307589  4.730052
H    -2.554873  5.229911  3.884637
Ba    2.156914  1.338662  3.455686
