37
Energy: -246334.809699 eV PBE+vdW (tier 2 basis)
C    0.685323  -1.338550  1.144089
C    0.280244  -0.398259  2.231087
O    1.050158  0.529487  2.613488
H    -0.061893  -2.108938  0.926976
H    1.634478  -1.822692  1.409723
H    0.872788  -0.756001  0.230311
N    -0.935816  -0.554071  2.792299
C    -1.544221  0.370479  3.762001
C    -0.915260  0.165386  5.165170
O    0.151635  0.790273  5.437817
H    -1.499516  -1.327348  2.450408
H    -1.196844  1.375250  3.480413
C    -3.087140  0.410171  3.619666
C    -3.921281  -0.875859  3.808190
C    -5.298586  -0.830284  3.109898
N    -6.277283  0.085748  3.709081
C    -7.496779  -0.255131  4.186736
N    -8.462116  0.668293  4.232011
N    -7.744930  -1.491489  4.630654
H    -3.262632  0.791030  2.600958
H    -3.447500  1.194200  4.301358
H    -4.084779  -1.097435  4.874772
H    -3.409516  -1.754115  3.381957
H    -5.735184  -1.835873  3.096227
H    -5.168691  -0.545598  2.054407
H    -6.159640  1.074380  3.509010
H    -8.427100  1.508479  3.665354
H    -9.308994  0.520187  4.771728
H    -8.694410  -1.798343  4.814979
H    -7.004964  -2.143437  4.855286
N    -1.478168  -0.655505  6.038645
C    -0.948483  -0.933435  7.378455
H    -2.317040  -1.151153  5.755097
H    -1.766561  -1.286119  8.012606
H    -0.527901  -0.018130  7.804919
H    -0.171287  -1.707173  7.333752
Ba    2.202888  1.728578  4.400473
