37
Energy: -246335.085459 eV PBE+vdW (tier 2 basis)
C    1.678833  -2.501238  4.351399
C    0.899970  -1.270498  4.023402
O    1.427306  -0.311691  3.387192
H    2.002054  -2.969680  3.410106
H    1.115908  -3.235226  4.937263
H    2.591287  -2.227099  4.897169
N    -0.388389  -1.207090  4.410933
C    -1.343941  -0.148231  4.040101
C    -1.050628  1.131204  4.864751
O    -0.196729  1.955673  4.426048
H    -0.750985  -2.004626  4.928017
H    -1.117825  0.136847  3.001526
C    -2.777753  -0.717512  4.083049
C    -3.856123  0.221564  3.509000
C    -5.144297  -0.485605  3.045226
N    -6.011596  -1.010534  4.110552
C    -7.284707  -0.624594  4.353756
N    -8.121780  -1.470616  4.963412
N    -7.711150  0.596444  4.014907
H    -3.038216  -1.038371  5.106730
H    -2.748926  -1.638793  3.479476
H    -3.454852  0.719634  2.612481
H    -4.103048  1.022279  4.221778
H    -4.891230  -1.323965  2.378747
H    -5.737646  0.206917  2.435853
H    -5.758670  -1.912504  4.502239
H    -7.955929  -2.470954  4.976792
H    -9.005709  -1.152495  5.347772
H    -8.700092  0.823217  4.015776
H    -7.071404  1.342190  3.774917
N    -1.677809  1.314906  6.017000
C    -1.454361  2.446882  6.922251
H    -2.329500  0.597634  6.322626
H    -1.205574  3.337628  6.338721
H    -0.637283  2.225760  7.621458
H    -2.369638  2.628613  7.493183
Ba    1.946431  2.054928  3.163392
