37
Energy: -246333.609504 eV PBE+vdW (tier 2 basis)
C    1.045546  -0.569054  0.005970
C    0.631592  -0.397877  1.439057
O    1.428821  -0.121349  2.345803
H    0.291072  -1.061519  -0.617926
H    1.988015  -1.126582  -0.038853
H    1.246942  0.424269  -0.422263
N    -0.710555  -0.553077  1.713843
C    -1.250919  -0.194529  3.018945
C    -2.091868  -1.365373  3.546085
O    -1.555084  -2.529502  3.683364
H    -1.350399  -0.609166  0.924744
H    -0.368878  -0.160798  3.682897
C    -1.969371  1.172731  3.028823
C    -1.158008  2.401961  2.565189
C    -0.180426  3.047694  3.563300
N    1.160326  2.458439  3.541731
C    2.291398  3.117123  3.834276
N    3.469825  2.555682  3.523344
N    2.263992  4.318770  4.423155
H    -2.343003  1.373426  4.046417
H    -2.849369  1.112866  2.365838
H    -1.900838  3.175823  2.330234
H    -0.646153  2.204295  1.611791
H    -0.602456  3.011553  4.582124
H    -0.087695  4.108206  3.288939
H    1.270505  1.500770  3.187273
H    3.514263  1.745948  2.916529
H    4.345497  2.939787  3.857651
H    1.423342  4.687596  4.848747
H    3.104803  4.877376  4.516602
N    -3.353712  -1.171975  3.868822
C    -4.266544  -2.180667  4.410096
H    -3.725861  -0.233952  3.731172
H    -4.413315  -2.993893  3.687895
H    -5.233746  -1.707743  4.600478
H    -3.880930  -2.577090  5.357916
Ba    -0.603108  -4.654306  3.952949
