37
Energy: -246334.540804 eV PBE+vdW (tier 2 basis)
C    0.320631  0.353599  0.077653
C    -0.012856  -0.839120  0.920645
O    0.657293  -1.906733  0.812401
H    -0.337657  1.213319  0.240836
H    0.272885  0.061099  -0.980591
H    1.357311  0.661494  0.271014
N    -1.039343  -0.711236  1.783692
C    -1.711419  -1.698162  2.655288
C    -0.805663  -2.280276  3.756989
O    0.278140  -2.884255  3.492692
H    -1.471167  0.208774  1.787445
H    -2.470143  -1.096994  3.170815
C    -2.483040  -2.809498  1.893571
C    -3.679339  -2.231812  1.108662
C    -4.814895  -3.204486  0.754556
N    -4.525149  -4.053706  -0.410854
C    -5.334305  -5.058003  -0.822737
N    -5.010827  -5.758288  -1.915951
N    -6.428459  -5.380336  -0.127512
H    -2.850000  -3.519389  2.651363
H    -1.797044  -3.371070  1.245074
H    -3.338483  -1.712355  0.199278
H    -4.156554  -1.452543  1.722548
H    -5.718280  -2.603039  0.560437
H    -5.024014  -3.859259  1.613758
H    -3.946529  -3.638735  -1.135775
H    -5.668655  -6.399683  -2.346228
H    -4.110962  -5.658069  -2.369123
H    -6.969120  -6.207509  -0.358940
H    -6.843658  -4.744699  0.542453
N    -1.211018  -2.177023  5.016668
C    -2.403622  -1.518931  5.569203
H    -0.591178  -2.627373  5.691075
H    -3.324512  -2.008570  5.229867
H    -2.422022  -0.451427  5.318061
H    -2.356993  -1.605331  6.658427
Ba    2.184642  -3.362374  2.046241
