37
Energy: -246334.192756 eV PBE+vdW (tier 2 basis)
C    -0.391694  1.282940  1.313809
C    -0.079613  0.046049  2.095305
O    1.071886  -0.472677  2.053973
H    -0.899443  2.032037  1.932219
H    -1.051615  1.054712  0.461918
H    0.537531  1.707118  0.922733
N    -1.033638  -0.547544  2.863728
C    -2.413423  -0.782548  2.412418
C    -2.327677  -1.519657  1.034642
O    -1.229429  -2.034517  0.662247
H    -0.652461  -1.296256  3.440496
H    -2.797885  -1.544350  3.110018
C    -3.360956  0.448343  2.519255
C    -4.775521  0.094680  3.022035
C    -5.739770  1.280679  3.189284
N    -5.444310  2.081138  4.385923
C    -6.013540  3.278446  4.659784
N    -5.656449  3.935234  5.768466
N    -6.895467  3.823574  3.816728
H    -3.419245  0.982779  1.559744
H    -2.891032  1.140953  3.230134
H    -4.707814  -0.456211  3.974775
H    -5.281110  -0.602560  2.335538
H    -6.764718  0.879361  3.245798
H    -5.682680  1.940645  2.310730
H    -5.093832  1.573360  5.193701
H    -6.185441  4.733896  6.102860
H    -4.855947  3.654888  6.322452
H    -7.220827  4.775986  3.948920
H    -7.398251  3.267677  3.135812
N    -3.422571  -1.630911  0.300929
C    -3.503133  -2.373272  -0.963729
H    -4.276627  -1.202077  0.643328
H    -2.849465  -1.917994  -1.716976
H    -4.535662  -2.337494  -1.320380
H    -3.213640  -3.419154  -0.809311
Ba    1.256247  -2.501748  0.638795
