37
Energy: -246334.278844 eV PBE+vdW (tier 2 basis)
C    -0.801323  1.730848  -0.500255
C    -0.366931  0.914197  0.670767
O    0.831155  0.934305  1.074084
H    0.005842  1.718774  -1.244159
H    -0.937868  2.783474  -0.205787
H    -1.725434  1.369604  -0.961812
N    -1.260855  0.128296  1.331298
C    -2.582641  0.606512  1.735898
C    -2.346635  1.762009  2.763492
O    -1.198974  1.929639  3.278677
H    -0.813262  -0.469982  2.027180
H    -3.087429  1.033415  0.855891
C    -3.410312  -0.596856  2.263759
C    -4.910983  -0.343421  2.486816
C    -5.714301  -1.573456  2.951738
N    -6.029746  -2.513086  1.869790
C    -7.101399  -3.334921  1.848296
N    -7.407096  -3.985305  0.719499
N    -7.866532  -3.488397  2.933452
H    -2.957284  -0.962968  3.199363
H    -3.260561  -1.389484  1.514648
H    -5.379794  0.065635  1.577733
H    -5.047104  0.404044  3.281747
H    -6.669052  -1.215291  3.359023
H    -5.175767  -2.087458  3.765730
H    -5.335574  -2.673609  1.147672
H    -8.068677  -4.754631  0.718155
H    -7.046730  -3.691428  -0.180828
H    -8.764866  -3.957132  2.873932
H    -7.527280  -3.277642  3.864069
N    -3.363315  2.560566  3.050697
C    -3.307132  3.682961  3.995191
H    -4.235782  2.423419  2.547385
H    -4.329782  3.976812  4.247200
H    -2.794079  4.542095  3.544115
H    -2.784395  3.378237  4.907195
Ba    1.333794  1.999160  3.253140
