37
Energy: -246334.977515 eV PBE+vdW (tier 2 basis)
C    -0.572331  -0.215760  -0.418072
C    -0.778069  -0.201791  1.062570
O    -0.275489  -1.106124  1.792043
H    0.504001  -0.230726  -0.636595
H    -1.030463  0.632072  -0.937829
H    -0.990169  -1.149178  -0.822069
N    -1.508532  0.801629  1.582327
C    -1.981383  1.009861  2.970199
C    -0.804151  1.085195  3.967831
O    -0.283551  0.035381  4.453887
H    -1.868896  1.468803  0.904829
H    -2.436826  2.007297  2.938423
C    -3.092537  0.019719  3.385532
C    -3.938109  0.522167  4.571580
C    -5.230476  -0.291951  4.743834
N    -6.050649  0.257785  5.828760
C    -7.109169  -0.355823  6.396977
N    -7.674251  0.178805  7.484596
N    -7.574956  -1.507581  5.899633
H    -2.662359  -0.967838  3.602799
H    -3.737518  -0.105630  2.503420
H    -4.211646  1.575539  4.392758
H    -3.358730  0.493698  5.506763
H    -4.993487  -1.338727  4.986414
H    -5.793541  -0.280826  3.794973
H    -5.928253  1.239984  6.055228
H    -8.581994  -0.131103  7.815246
H    -7.216504  0.905190  8.023050
H    -8.279648  -2.039687  6.399666
H    -7.398735  -1.782052  4.941201
N    -0.354062  2.282876  4.323366
C    -0.782264  3.612130  3.863029
H    0.400415  2.263375  5.010082
H    -0.723402  3.693447  2.771660
H    -0.098918  4.350270  4.292353
H    -1.796170  3.848271  4.209183
Ba    0.911822  -1.995695  3.701354
