37
Energy: -246333.929067 eV PBE+vdW (tier 2 basis)
C    0.826344  0.884646  -0.681739
C    0.652354  0.562350  0.766360
O    1.588992  -0.049883  1.418067
H    0.509791  1.908504  -0.918893
H    0.209458  0.208192  -1.294753
H    1.870457  0.757356  -0.978951
N    -0.468040  0.888615  1.396746
C    -1.666550  1.519379  0.801050
C    -1.572973  3.043702  0.515092
O    -2.076264  3.428172  -0.547445
H    -0.517981  0.640693  2.385533
H    -1.786328  1.088638  -0.199986
C    -2.910833  1.171829  1.653538
C    -4.204350  1.900356  1.248146
C    -4.758663  1.516400  -0.136756
N    -5.919201  2.316053  -0.521127
C    -5.900619  3.399319  -1.320146
N    -7.063362  3.910713  -1.748721
N    -4.747489  3.961954  -1.692389
H    -2.707026  1.419008  2.707066
H    -3.059858  0.081809  1.609890
H    -4.055848  2.988856  1.296297
H    -4.961908  1.668292  2.009839
H    -5.069950  0.462514  -0.144802
H    -4.002835  1.626694  -0.924678
H    -6.820913  2.042636  -0.143805
H    -7.106252  4.814946  -2.203656
H    -7.933321  3.397606  -1.669403
H    -4.741135  4.664559  -2.422353
H    -3.847622  3.732994  -1.263931
N    -1.015558  3.894295  1.398444
C    -0.487125  3.651313  2.737258
H    -1.032842  4.862285  1.080518
H    -0.458059  4.606632  3.270432
H    0.536548  3.251789  2.713397
H    -1.136031  2.984061  3.317259
Ba    3.488301  -1.268080  2.096835
