37
Energy: -246334.336403 eV PBE+vdW (tier 2 basis)
C    -1.181212  2.929216  -0.787328
C    -0.650669  2.100067  0.336141
O    0.340201  2.487082  1.018367
H    -1.815508  3.741155  -0.397925
H    -1.760391  2.353055  -1.515598
H    -0.332790  3.407954  -1.292273
N    -1.231881  0.908393  0.643088
C    -2.680856  0.750219  0.752922
C    -3.146628  1.615119  1.976281
O    -2.291210  2.230519  2.683377
H    -0.710223  0.391279  1.353110
H    -3.148325  1.175097  -0.148387
C    -3.052148  -0.743551  0.902593
C    -2.678676  -1.658024  -0.284159
C    -3.758584  -1.774989  -1.372503
N    -3.335003  -2.726356  -2.404769
C    -4.135655  -3.539980  -3.122171
N    -3.595741  -4.551560  -3.810044
N    -5.461740  -3.357327  -3.135052
H    -4.127787  -0.827915  1.115395
H    -2.554768  -1.123674  1.808220
H    -2.490165  -2.664188  0.114369
H    -1.730178  -1.319399  -0.730631
H    -3.977708  -0.794022  -1.827849
H    -4.688333  -2.155490  -0.925466
H    -2.347150  -2.750160  -2.639486
H    -4.119056  -5.038739  -4.530055
H    -2.659181  -4.889040  -3.618601
H    -6.076130  -4.058775  -3.535600
H    -5.876023  -2.456723  -2.930307
N    -4.441720  1.689976  2.231751
C    -5.032348  2.456447  3.336786
H    -5.083493  1.195476  1.618245
H    -6.104720  2.247232  3.367726
H    -4.883337  3.531773  3.180344
H    -4.581191  2.155545  4.288751
Ba    -0.090755  3.278784  3.329951
