37
Energy: -246333.951550 eV PBE+vdW (tier 2 basis)
C    -0.595699  0.896498  0.978595
C    -0.149900  0.412044  2.323437
O    1.024682  -0.121959  2.451772
H    0.102846  1.659384  0.607014
H    -1.601396  1.328751  0.992851
H    -0.596031  0.060159  0.265025
N    -0.977284  0.545209  3.339721
C    -0.843734  0.099831  4.730651
C    -2.300572  -0.221143  5.150750
O    -3.208250  0.441917  4.610963
H    -1.931754  0.892419  3.162469
H    -0.204450  -0.790876  4.746547
C    -0.232684  1.187093  5.673040
C    -1.196427  2.181900  6.345721
C    -1.812314  3.262939  5.438449
N    -2.791470  4.092258  6.138984
C    -4.127741  3.923474  6.124014
N    -4.907425  4.864183  6.673734
N    -4.682021  2.842743  5.565179
H    0.546837  1.722932  5.110448
H    0.292112  0.649149  6.474025
H    -0.633032  2.684947  7.145136
H    -2.000411  1.634626  6.859800
H    -2.311098  2.831948  4.562093
H    -1.029917  3.934450  5.057819
H    -2.434523  4.842768  6.721934
H    -4.547733  5.778400  6.921881
H    -5.896199  4.706129  6.830049
H    -4.146910  2.018667  5.282100
H    -5.683860  2.809754  5.415462
N    -2.518106  -1.137279  6.096899
C    -1.542015  -1.989958  6.779540
H    -3.501364  -1.274862  6.326766
H    -2.073886  -2.575071  7.534953
H    -0.778573  -1.397474  7.298124
H    -1.067438  -2.695660  6.085094
Ba    3.087119  -0.993538  1.724435
