37
Energy: -246333.782734 eV PBE+vdW (tier 2 basis)
C    0.784671  -0.674025  0.343980
C    0.336931  -0.253199  1.710933
O    1.033792  -0.615558  2.745337
H    0.123416  -0.315643  -0.451616
H    0.819640  -1.771431  0.286348
H    1.795041  -0.287247  0.148763
N    -0.755203  0.470696  1.806169
C    -1.487793  1.013256  2.959188
C    -2.962215  0.921264  2.480559
O    -3.177834  1.194050  1.294492
H    -1.286725  0.681818  0.944892
H    -1.283621  0.400081  3.843448
C    -1.064879  2.497877  3.186808
C    -2.071783  3.434802  3.891691
C    -2.997958  4.181649  2.917695
N    -3.802304  5.175989  3.635210
C    -4.910766  5.772621  3.157518
N    -5.612209  6.593938  3.948413
N    -5.333124  5.527692  1.911530
H    -0.817511  2.922818  2.203012
H    -0.126842  2.485040  3.756730
H    -1.482769  4.180952  4.446019
H    -2.671319  2.901405  4.642667
H    -3.678659  3.484968  2.409999
H    -2.383938  4.676066  2.145686
H    -3.385925  5.597804  4.460341
H    -6.331248  7.202639  3.573536
H    -5.441831  6.648644  4.945574
H    -6.232424  5.868897  1.590332
H    -4.719999  5.130604  1.210902
N    -3.927731  0.606675  3.363235
C    -3.794449  0.118507  4.735200
H    -4.852333  0.540940  2.939129
H    -4.751534  0.259238  5.247159
H    -3.040174  0.685742  5.292161
H    -3.546909  -0.951820  4.766391
Ba    2.793004  -1.768946  3.779215
