37
Energy: -246334.759635 eV PBE+vdW (tier 2 basis)
C    1.878657  0.731767  0.725012
C    0.857375  -0.303842  1.075403
O    0.993405  -1.498810  0.684893
H    1.935055  0.811573  -0.370345
H    2.868578  0.401043  1.066790
H    1.670322  1.722088  1.143269
N    -0.199915  0.090877  1.813242
C    -1.411409  -0.658320  2.219356
C    -1.078858  -1.833258  3.168544
O    -0.507174  -2.881741  2.750328
H    -0.177610  1.065251  2.100380
H    -1.984396  0.073289  2.806236
C    -2.292153  -1.117591  1.032524
C    -2.801599  0.025856  0.130150
C    -4.065368  0.779910  0.574434
N    -5.287514  0.017982  0.275985
C    -6.538710  0.417695  0.597549
N    -7.577970  -0.368665  0.299032
N    -6.738038  1.570467  1.245771
H    -3.133419  -1.694666  1.445964
H    -1.713158  -1.819019  0.418091
H    -2.971708  -0.371447  -0.882046
H    -2.007216  0.773570  -0.004690
H    -4.084894  1.745628  0.043433
H    -4.047042  0.994528  1.654679
H    -5.223554  -0.660158  -0.477831
H    -8.532450  -0.029696  0.359467
H    -7.454025  -1.323707  -0.015702
H    -7.660897  1.821307  1.586167
H    -6.047496  2.311005  1.236829
N    -1.451706  -1.701000  4.434669
C    -1.260043  -2.712361  5.478482
H    -1.876613  -0.822852  4.720625
H    -2.068178  -2.619125  6.210429
H    -0.299673  -2.559780  5.988212
H    -1.285950  -3.709722  5.031349
Ba    1.172899  -3.861848  1.238619
