37
Energy: -246334.296148 eV PBE+vdW (tier 2 basis)
C    -0.286064  0.468550  -0.162410
C    0.316951  1.088917  1.053185
O    1.318765  1.855459  0.965481
H    0.535749  0.045025  -0.757995
H    -0.760424  1.230305  -0.798404
H    -1.007253  -0.323871  0.057494
N    -0.188386  0.818108  2.290663
C    -1.619384  0.923701  2.576877
C    -1.916675  2.445679  2.801570
O    -1.045615  3.313046  2.483475
H    0.407858  1.193668  3.028833
H    -2.154784  0.666396  1.649671
C    -2.106612  -0.063518  3.661703
C    -1.443703  0.051662  5.042498
C    -2.048943  -0.857991  6.125555
N    -1.763987  -2.281389  5.899081
C    -2.408437  -3.300123  6.513016
N    -3.356268  -3.058630  7.424176
N    -2.114346  -4.559940  6.173943
H    -1.960350  -1.070998  3.247083
H    -3.198634  0.041536  3.764049
H    -1.536984  1.079029  5.427192
H    -0.362032  -0.150340  4.974865
H    -3.141388  -0.730508  6.147513
H    -1.651850  -0.540426  7.103221
H    -0.851681  -2.511097  5.515054
H    -3.941577  -3.809733  7.775989
H    -3.404836  -2.179143  7.924034
H    -1.579882  -4.779031  5.341565
H    -2.427184  -5.344972  6.735590
N    -3.101779  2.792184  3.274988
C    -3.556411  4.176852  3.455354
H    -3.770488  2.054003  3.475983
H    -4.511821  4.161028  3.986195
H    -3.697485  4.664439  2.482779
H    -2.826042  4.739650  4.046558
Ba    1.051588  4.270093  1.453990
