37
Energy: -246333.888229 eV PBE+vdW (tier 2 basis)
C    0.308100  -0.888096  -0.158922
C    -0.201642  -0.762982  1.249419
O    -0.006019  -1.613986  2.123648
H    1.392983  -0.706110  -0.159745
H    -0.154031  -0.185246  -0.861309
H    0.159327  -1.915311  -0.510775
N    -0.916633  0.383500  1.542372
C    -1.209860  0.718889  2.931193
C    -2.657894  1.206721  3.024477
O    -3.620844  0.425947  2.669037
H    -0.888500  1.138367  0.860662
H    -1.199062  -0.254582  3.452215
C    -0.157612  1.652444  3.574444
C    1.282408  1.103486  3.584648
C    1.529722  -0.025849  4.599944
N    2.912905  -0.498659  4.583510
C    3.359599  -1.667273  4.087298
N    2.586796  -2.436649  3.313338
N    4.606996  -2.060203  4.379844
H    -0.458494  1.870676  4.612729
H    -0.137653  2.611984  3.031334
H    1.949110  1.943910  3.824517
H    1.575564  0.772961  2.577909
H    0.874315  -0.886323  4.419159
H    1.314923  0.327865  5.619049
H    3.607292  0.098230  5.022768
H    2.872371  -3.386565  3.106594
H    1.702517  -2.121297  2.907924
H    5.142999  -1.626877  5.122763
H    5.051666  -2.822777  3.882100
N    -2.913400  2.416709  3.476967
C    -4.241561  3.010101  3.646837
H    -2.111917  2.988032  3.738491
H    -4.121309  4.021710  4.043655
H    -4.834804  2.424160  4.360163
H    -4.760427  3.073223  2.682157
Ba    -5.334427  -1.040208  2.040344
