37
Energy: -246334.049015 eV PBE+vdW (tier 2 basis)
C    -0.631232  1.023402  -0.326510
C    -0.032401  0.114555  0.694929
O    1.251127  -0.016248  0.788856
H    0.141041  1.634575  -0.799969
H    -1.389498  1.683583  0.115732
H    -1.136679  0.435190  -1.108631
N    -0.817464  -0.576614  1.514192
C    -2.298561  -0.626430  1.496351
C    -3.015693  0.626630  2.065189
O    -4.114171  0.917038  1.582395
H    -0.346224  -1.198188  2.173457
H    -2.613553  -0.666719  0.445872
C    -2.749234  -1.914373  2.229618
C    -4.261126  -2.056670  2.472812
C    -5.112036  -2.210937  1.198772
N    -6.545951  -2.239328  1.477804
C    -7.380917  -1.185923  1.407234
N    -8.702281  -1.396143  1.491889
N    -6.910626  0.054204  1.247869
H    -2.254335  -1.943353  3.214252
H    -2.376728  -2.779829  1.659454
H    -4.630305  -1.205651  3.061790
H    -4.405106  -2.944660  3.104470
H    -4.862061  -3.147899  0.682012
H    -4.928255  -1.398277  0.484385
H    -6.948818  -3.123622  1.770774
H    -9.351674  -0.628740  1.617326
H    -9.102154  -2.321802  1.393914
H    -5.923294  0.296041  1.361407
H    -7.546924  0.810842  1.026475
N    -2.423718  1.302001  3.065304
C    -3.052282  2.439906  3.741798
H    -1.559186  0.941983  3.454515
H    -2.276394  3.133540  4.080172
H    -3.639809  2.107334  4.607422
H    -3.714952  2.949553  3.036639
Ba    3.590869  -0.011571  0.482209
