37
Energy: -246334.095483 eV PBE+vdW (tier 2 basis)
C    -0.209498  -0.098586  -0.341701
C    -0.111439  -0.075981  1.148741
O    1.066990  -0.121296  1.693173
H    0.257829  0.809553  -0.749800
H    -1.232085  -0.159333  -0.721003
H    0.353380  -0.958853  -0.727981
N    -1.176272  -0.003412  1.922517
C    -2.588950  0.173835  1.533058
C    -3.222147  0.902327  2.737786
O    -2.802274  0.613777  3.876915
H    -1.060258  0.023915  2.945756
H    -2.624425  0.801172  0.635214
C    -3.311503  -1.170951  1.241430
C    -3.609383  -2.083442  2.448744
C    -4.989147  -1.817224  3.081994
N    -5.225501  -2.568890  4.313443
C    -5.128825  -2.083601  5.563697
N    -5.657964  -2.782797  6.577510
N    -4.516033  -0.918496  5.806021
H    -2.696886  -1.716579  0.512150
H    -4.244423  -0.931776  0.708729
H    -2.826741  -1.994296  3.215547
H    -3.582529  -3.126995  2.107099
H    -5.781276  -2.097592  2.373747
H    -5.144147  -0.754386  3.304978
H    -5.556325  -3.524233  4.220134
H    -5.454286  -2.551126  7.542730
H    -6.333034  -3.521990  6.418471
H    -4.613345  -0.478674  6.713645
H    -3.917303  -0.445782  5.123969
N    -4.222536  1.760931  2.510827
C    -4.762894  2.212943  1.223840
H    -4.589160  2.206621  3.350412
H    -5.645511  2.826664  1.424900
H    -5.082382  1.370295  0.599499
H    -4.039989  2.832287  0.676685
Ba    3.358613  -0.066822  2.159853
