37
Energy: -246334.324304 eV PBE+vdW (tier 2 basis)
C    -1.079633  0.813938  0.059977
C    -0.583442  0.395820  1.408172
O    0.651308  0.225062  1.614275
H    -0.230697  1.127296  -0.554622
H    -1.796664  1.639591  0.133965
H    -1.583619  -0.021554  -0.450782
N    -1.449874  0.199292  2.440623
C    -2.696635  -0.575533  2.335619
C    -2.337001  -1.968983  1.716750
O    -1.120275  -2.311076  1.594125
H    -0.958905  0.060057  3.322860
H    -2.968229  -0.794151  3.381222
C    -3.905214  0.158334  1.710647
C    -4.240117  1.481834  2.422020
C    -5.549053  2.098650  1.903287
N    -5.867852  3.328363  2.634932
C    -6.716591  4.291100  2.219480
N    -6.789659  5.440182  2.899740
N    -7.460000  4.117711  1.120586
H    -4.778853  -0.506943  1.795438
H    -3.751908  0.321213  0.635384
H    -3.419320  2.202234  2.294318
H    -4.333932  1.295322  3.504557
H    -6.370221  1.368669  2.006290
H    -5.450801  2.350262  0.836764
H    -5.565766  3.385858  3.602903
H    -7.549399  6.095444  2.749238
H    -6.085187  5.705669  3.578232
H    -7.984125  4.890286  0.722834
H    -7.673802  3.195350  0.762171
N    -3.319390  -2.787462  1.382965
C    -3.129978  -4.154581  0.880859
H    -4.275811  -2.470008  1.510297
H    -2.617447  -4.768766  1.630787
H    -2.546388  -4.142014  -0.046780
H    -4.113353  -4.586164  0.677830
Ba    1.391289  -2.145865  1.653605
