37
Energy: -246333.993935 eV PBE+vdW (tier 2 basis)
C    0.291868  -1.392655  0.503859
C    0.098945  -0.500413  1.691851
O    1.027476  -0.430606  2.592719
H    1.194150  -1.088845  -0.045702
H    -0.553311  -1.371352  -0.191894
H    0.428230  -2.430881  0.838971
N    -1.024142  0.184617  1.777132
C    -1.518996  1.115729  2.804766
C    -3.031261  0.803792  2.888892
O    -3.661403  0.778704  1.818159
H    -1.714441  0.054073  1.029503
H    -0.991586  0.920233  3.747406
C    -1.303887  2.576296  2.332635
C    -1.953529  3.661214  3.211362
C    -3.421027  4.021735  2.922002
N    -3.622965  4.635324  1.601986
C    -4.563151  4.289978  0.695697
N    -5.000057  5.216157  -0.168646
N    -5.039224  3.043950  0.635553
H    -1.674037  2.659474  1.299581
H    -0.219946  2.748809  2.284299
H    -1.353420  4.577433  3.113165
H    -1.886948  3.394726  4.277851
H    -3.755694  4.738450  3.686594
H    -4.090046  3.159257  2.999162
H    -3.225794  5.563162  1.480812
H    -5.529060  4.958264  -0.994292
H    -4.889072  6.207664  0.010586
H    -5.863131  2.844422  0.079857
H    -4.561104  2.247254  1.069929
N    -3.561553  0.609194  4.100865
C    -4.981809  0.334591  4.334152
H    -2.951616  0.650684  4.911273
H    -5.080631  -0.483905  5.055014
H    -5.443902  0.042708  3.387323
H    -5.489057  1.222425  4.733416
Ba    3.100129  -1.021711  3.548462
