37
Energy: -246335.141092 eV PBE+vdW (tier 2 basis)
C    -0.059965  -2.333212  0.311641
C    -0.189830  -1.179598  1.250422
O    0.702098  -0.283903  1.315953
H    0.897268  -2.843034  0.482956
H    -0.031600  -1.944778  -0.717141
H    -0.874741  -3.060153  0.393113
N    -1.290347  -1.105087  2.023709
C    -1.647494  0.029793  2.892699
C    -0.749778  0.022945  4.157195
O    0.357206  0.634580  4.122499
H    -1.968435  -1.857909  1.932364
H    -1.357630  0.946531  2.357287
C    -3.176354  0.057752  3.103824
C    -3.679776  1.317241  3.834987
C    -5.158995  1.669706  3.613920
N    -6.089582  0.747614  4.281611
C    -7.418503  0.695449  4.024255
N    -8.174952  -0.200611  4.667203
N    -7.970428  1.501292  3.112818
H    -3.519904  -0.860439  3.609807
H    -3.622182  0.022832  2.097660
H    -3.119207  2.192081  3.472164
H    -3.467544  1.263952  4.914427
H    -5.380960  1.653665  2.536848
H    -5.319175  2.697982  3.977074
H    -5.817440  0.416820  5.203141
H    -7.768391  -0.965070  5.192960
H    -9.188192  -0.153220  4.640730
H    -8.931106  1.367130  2.813556
H    -7.523333  2.360722  2.817628
N    -1.151551  -0.643985  5.229159
C    -0.384015  -0.778447  6.471991
H    -2.035386  -1.142042  5.172522
H    0.269067  -1.659868  6.428182
H    -1.080950  -0.894793  7.307298
H    0.220646  0.119518  6.625218
Ba    2.247463  1.113546  2.577323
