37
Energy: -246333.127273 eV PBE+vdW (tier 2 basis)
C    0.099646  0.392249  -0.566043
C    -0.007665  0.812215  0.864318
O    1.060921  0.979754  1.577929
H    -0.288453  -0.629427  -0.701698
H    1.142493  0.407441  -0.892401
H    -0.486784  1.047080  -1.225057
N    -1.197424  1.020425  1.411326
C    -2.509149  0.749830  0.782836
C    -3.142103  1.827578  -0.142562
O    -4.141765  1.447677  -0.756468
H    -1.198054  1.316767  2.387479
H    -2.340672  -0.080425  0.084034
C    -3.527569  0.222886  1.823341
C    -4.274649  1.212859  2.735047
C    -5.364180  2.090668  2.078654
N    -6.264722  1.375648  1.174959
C    -7.557839  1.082832  1.383686
N    -8.332150  0.761783  0.338831
N    -8.088376  1.099451  2.613868
H    -3.002688  -0.513138  2.449689
H    -4.261718  -0.363110  1.255330
H    -3.584062  1.894970  3.258497
H    -4.734926  0.607234  3.529367
H    -4.913032  2.903724  1.494929
H    -5.953396  2.586480  2.860674
H    -5.885332  1.220709  0.237370
H    -8.044537  0.959090  -0.612391
H    -9.245474  0.340939  0.466375
H    -9.091759  1.056028  2.751000
H    -7.512596  1.112150  3.444778
N    -2.635020  3.070707  -0.308466
C    -1.617021  3.814129  0.427577
H    -3.152510  3.594538  -1.013479
H    -1.759489  4.877941  0.213083
H    -0.596239  3.549925  0.116234
H    -1.720381  3.687657  1.512042
Ba    3.267208  0.914919  2.402877
