37
Energy: -246334.206642 eV PBE+vdW (tier 2 basis)
C    0.231393  1.024358  -0.350463
C    -0.017233  -0.173763  0.506794
O    0.081068  -1.338277  0.028001
H    1.293454  1.297040  -0.239955
H    -0.361467  1.900564  -0.067655
H    0.068689  0.785726  -1.405544
N    -0.313222  -0.029158  1.828192
C    -1.332141  0.907656  2.336606
C    -2.578573  0.805019  1.400654
O    -2.728019  -0.223426  0.670263
H    -0.281385  -0.918085  2.325183
H    -1.675262  0.443154  3.276622
C    -0.821659  2.315313  2.724940
C    0.323022  2.237938  3.756121
C    0.616742  3.517959  4.551798
N    1.311515  4.550889  3.768797
C    1.510410  5.817547  4.203164
N    2.154404  6.687926  3.417592
N    1.038172  6.214631  5.388290
H    -1.659356  2.861669  3.187356
H    -0.524545  2.891146  1.837916
H    1.245561  1.872525  3.279388
H    0.070057  1.479970  4.513089
H    1.227384  3.233774  5.424541
H    -0.324169  3.948125  4.926240
H    1.979734  4.220773  3.078043
H    2.472269  7.584202  3.771024
H    2.347679  6.488198  2.443659
H    1.066062  7.192628  5.658319
H    0.792790  5.553949  6.115466
N    -3.485465  1.765338  1.433845
C    -4.752767  1.737588  0.692572
H    -3.315668  2.565133  2.036323
H    -5.352065  0.870925  0.995434
H    -4.562487  1.694114  -0.386090
H    -5.306022  2.652025  0.920782
Ba    -2.115886  -2.372368  -0.502865
