37
Energy: -246333.924707 eV PBE+vdW (tier 2 basis)
C    -2.007806  -1.234784  0.982459
C    -0.971645  -0.794738  1.962617
O    -0.244524  -1.663289  2.587330
H    -1.928960  -0.681459  0.036920
H    -1.916571  -2.304436  0.778202
H    -3.015854  -1.042197  1.382301
N    -0.792999  0.498936  2.207748
C    -1.586021  1.625823  1.662707
C    -1.298439  1.990183  0.181971
O    -2.232930  2.453338  -0.478712
H    -0.085009  0.732989  2.905591
H    -2.639801  1.319091  1.667162
C    -1.391473  2.849338  2.592578
C    -1.998163  4.173631  2.099678
C    -3.535455  4.190676  2.011694
N    -4.055071  5.434990  1.448960
C    -4.383554  5.636326  0.159235
N    -5.029967  6.760843  -0.179896
N    -4.080470  4.731937  -0.776088
H    -0.309641  3.013611  2.726456
H    -1.800659  2.593730  3.582590
H    -1.569706  4.445232  1.124918
H    -1.674964  4.957522  2.799186
H    -3.977623  4.076193  3.010971
H    -3.918431  3.363326  1.400576
H    -4.159398  6.225853  2.076357
H    -5.147197  7.030066  -1.149503
H    -5.465842  7.355612  0.514724
H    -4.474571  4.815522  -1.705705
H    -3.439648  3.951855  -0.612014
N    -0.052218  1.812871  -0.289762
C    0.349703  2.206258  -1.643308
H    0.674744  1.507686  0.348207
H    0.683242  3.251823  -1.667394
H    1.167645  1.561036  -1.977961
H    -0.505063  2.090682  -2.316142
Ba    0.712024  -3.597719  3.542683
