37
Energy: -246334.530606 eV PBE+vdW (tier 2 basis)
C    -0.185522  -2.552376  0.639082
C    -0.816863  -1.424946  1.397912
O    -1.395869  -0.484075  0.781114
H    -0.941936  -3.044428  0.012753
H    0.290249  -3.306879  1.274254
H    0.565981  -2.136392  -0.046642
N    -0.738153  -1.473318  2.742111
C    -1.109803  -0.490893  3.780424
C    -2.618154  -0.187594  3.857388
O    -3.299946  0.139741  2.839557
H    -0.269844  -2.299856  3.103156
H    -0.857568  -1.009206  4.713992
C    -0.260315  0.810430  3.765208
C    1.214257  0.534208  4.130116
C    2.026360  1.725893  4.669272
N    2.594685  2.592475  3.629885
C    3.709821  3.338901  3.780068
N    4.271655  3.493402  4.982316
N    4.264431  3.916821  2.706718
H    -0.701214  1.488860  4.512506
H    -0.363632  1.307701  2.790108
H    1.753103  0.073514  3.289349
H    1.231539  -0.211097  4.940208
H    2.870812  1.317945  5.241068
H    1.407825  2.316425  5.366278
H    2.057964  2.756233  2.785427
H    5.201011  3.890713  5.075802
H    3.758211  3.335396  5.840831
H    4.073118  3.589433  1.767483
H    4.978619  4.630785  2.805005
N    -3.198294  -0.233558  5.050515
C    -2.628763  -0.594166  6.356074
H    -4.186381  0.021829  5.042791
H    -3.432075  -0.541747  7.096288
H    -1.843223  0.108996  6.658471
H    -2.242395  -1.620934  6.352358
Ba    -3.646426  0.417030  0.440137
