37
Energy: -246334.317558 eV PBE+vdW (tier 2 basis)
C    0.401235  -1.431905  2.141141
C    -0.473475  -1.858970  3.274347
O    -0.056183  -2.671321  4.147705
H    1.085776  -0.631931  2.465147
H    -0.161144  -1.077571  1.271689
H    1.027643  -2.283776  1.849005
N    -1.740747  -1.374830  3.382476
C    -2.053755  0.044024  3.225047
C    -1.361539  0.801767  4.412267
O    -0.730571  0.150855  5.300428
H    -2.267817  -1.827073  4.131664
H    -1.595976  0.403065  2.290623
C    -3.584718  0.259725  3.197963
C    -4.348708  -0.419797  2.041949
C    -4.468643  0.416344  0.758120
N    -5.364869  -0.262494  -0.184351
C    -5.554748  0.067030  -1.477585
N    -6.276472  -0.738985  -2.262771
N    -4.999710  1.174534  -1.985934
H    -3.798151  1.338550  3.202226
H    -3.990908  -0.112268  4.151268
H    -5.365604  -0.621849  2.410703
H    -3.902829  -1.398392  1.809440
H    -3.489804  0.550217  0.271728
H    -4.866243  1.414482  1.011064
H    -6.013067  -0.940671  0.205239
H    -6.521796  -1.681470  -1.981528
H    -6.612384  -0.432084  -3.169607
H    -5.038223  1.360743  -2.982723
H    -4.728095  1.949155  -1.393803
N    -1.447314  2.120494  4.448657
C    -0.857767  2.967228  5.493935
H    -1.947816  2.592686  3.700806
H    0.237229  2.916845  5.456134
H    -1.208112  2.647823  6.481743
H    -1.172023  3.999546  5.320108
Ba    0.465851  -1.775690  6.402325
