37
Energy: -246333.155259 eV PBE+vdW (tier 2 basis)
C    -0.842527  -0.721875  0.515287
C    -1.056947  -0.927622  1.974619
O    -0.397772  -1.869381  2.580418
H    -1.297729  0.192792  0.129196
H    -1.274987  -1.572937  -0.032466
H    0.234642  -0.710517  0.306411
N    -1.909644  -0.205772  2.685615
C    -2.816337  0.923977  2.325932
C    -3.508807  0.778998  0.944525
O    -3.269960  1.577294  0.033636
H    -1.941699  -0.459105  3.673926
H    -3.624246  0.827099  3.067750
C    -2.191952  2.312213  2.594322
C    -0.878233  2.773395  1.937435
C    -0.886293  3.235214  0.466298
N    -2.000192  4.108312  0.101156
C    -1.956038  5.428067  -0.132586
N    -2.952350  6.009083  -0.814818
N    -0.937244  6.179319  0.307801
H    -2.037604  2.366369  3.682302
H    -2.989630  3.041454  2.389917
H    -0.096895  2.001917  2.033280
H    -0.522031  3.606576  2.561816
H    -0.944577  2.377901  -0.213403
H    0.059426  3.746061  0.240649
H    -2.851848  3.601372  -0.139246
H    -3.063476  7.016483  -0.833962
H    -3.599581  5.463959  -1.371588
H    -0.812615  7.132055  -0.014903
H    -0.293818  5.845590  1.012449
N    -4.399673  -0.226282  0.806128
C    -4.955296  -1.105348  1.833861
H    -4.867848  -0.221905  -0.099019
H    -5.668111  -1.782092  1.353822
H    -5.499218  -0.543827  2.606606
H    -4.181257  -1.723340  2.307577
Ba    0.914184  -3.692374  3.277332
