37
Energy: -246334.126531 eV PBE+vdW (tier 2 basis)
C    -0.225047  1.036366  -0.775009
C    -0.092032  0.703127  0.675087
O    1.092127  0.718421  1.208262
H    0.089929  2.077346  -0.938306
H    -1.236276  0.917020  -1.170411
H    0.450109  0.394239  -1.356563
N    -1.133682  0.404193  1.426214
C    -2.566600  0.430959  1.071720
C    -3.283226  0.730462  2.407304
O    -2.817541  0.229885  3.449160
H    -0.993383  0.193089  2.424193
H    -2.729690  1.246574  0.356294
C    -3.062867  -0.900699  0.444542
C    -3.190818  -2.115526  1.385943
C    -4.586183  -2.236401  2.029258
N    -4.681092  -3.298760  3.029008
C    -4.637953  -3.132247  4.362337
N    -5.018778  -4.141331  5.158319
N    -4.224953  -1.978298  4.900420
H    -2.380048  -1.146357  -0.380663
H    -4.031258  -0.689780  -0.034712
H    -2.421988  -2.091101  2.171335
H    -3.001443  -3.026513  0.802309
H    -5.333983  -2.452354  1.253587
H    -4.904858  -1.301114  2.505836
H    -4.851260  -4.241403  2.692480
H    -4.838068  -4.125626  6.155200
H    -5.561177  -4.921494  4.805463
H    -4.367903  -1.805910  5.888513
H    -3.731323  -1.255386  4.369929
N    -4.391626  1.473428  2.338756
C    -5.226110  1.805189  3.494989
H    -4.676180  1.841727  1.435454
H    -6.087435  1.127503  3.565324
H    -4.622920  1.727811  4.403975
H    -5.593461  2.830918  3.389637
Ba    3.360549  1.030339  1.690194
