37
Energy: -246335.028465 eV PBE+vdW (tier 2 basis)
C    -0.025489  -0.100758  -0.173546
C    -0.079595  -0.453015  1.276370
O    0.976511  -0.570406  1.963244
H    0.589284  -0.838947  -0.706267
H    0.480492  0.869072  -0.283433
H    -1.010013  -0.046191  -0.649675
N    -1.285758  -0.640780  1.847812
C    -1.497072  -0.905959  3.278860
C    -0.971209  -2.319353  3.653525
O    0.183127  -2.385979  4.182148
H    -2.104503  -0.553390  1.251278
H    -0.815522  -0.239778  3.828205
C    -2.942514  -0.584139  3.712244
C    -3.233886  0.921921  3.860156
C    -4.714664  1.171360  4.204203
N    -5.054279  2.597106  4.278690
C    -5.695775  3.230930  5.283352
N    -6.360082  4.361596  5.023060
N    -5.667734  2.756510  6.534443
H    -3.122085  -1.088969  4.673379
H    -3.655395  -1.029690  3.002725
H    -2.990636  1.450502  2.924745
H    -2.593350  1.358623  4.640906
H    -4.980327  0.698025  5.157656
H    -5.361915  0.706310  3.443783
H    -5.004650  3.115382  3.406001
H    -6.646215  4.610725  4.082666
H    -6.646943  4.988725  5.767666
H    -6.286776  3.130903  7.245498
H    -4.963120  2.099871  6.842640
N    -1.655149  -3.433520  3.429215
C    -2.954443  -3.651166  2.784676
H    -1.183758  -4.273600  3.767663
H    -3.091315  -2.978429  1.932878
H    -3.778251  -3.534424  3.499393
H    -2.971570  -4.677617  2.405396
Ba    2.460577  -1.626451  3.607448
