37
Energy: -246335.036569 eV PBE+vdW (tier 2 basis)
C    -1.228419  -2.927691  -0.173319
C    -0.893333  -2.006368  0.951095
O    0.279054  -1.552014  1.103014
H    -0.552390  -3.792962  -0.152232
H    -1.043600  -2.404661  -1.123083
H    -2.265129  -3.279683  -0.158610
N    -1.869632  -1.652948  1.809008
C    -1.716337  -0.649052  2.873824
C    -0.772299  -1.181374  3.985048
O    0.427526  -0.764193  3.978067
H    -2.800664  -2.024375  1.634622
H    -1.145211  0.188217  2.445880
C    -3.105185  -0.115656  3.282949
C    -3.091740  0.990370  4.351568
C    -4.508231  1.545820  4.578260
N    -4.510970  2.611011  5.584562
C    -5.465593  3.555800  5.718613
N    -6.592359  3.494948  5.000623
N    -5.265107  4.576482  6.559484
H    -3.753503  -0.941176  3.608660
H    -3.554746  0.282268  2.359576
H    -2.429155  1.812320  4.041259
H    -2.695821  0.597119  5.302356
H    -5.184901  0.728681  4.881790
H    -4.889912  1.968144  3.637144
H    -3.842326  2.540708  6.345508
H    -7.237229  4.278428  4.980381
H    -6.925442  2.626203  4.601173
H    -6.026621  5.184736  6.841492
H    -4.345720  4.796432  6.924522
N    -1.159069  -2.062344  4.900701
C    -2.440329  -2.753175  5.076531
H    -0.427540  -2.302722  5.570807
H    -2.869353  -3.045072  4.113380
H    -3.153582  -2.138352  5.639748
H    -2.253137  -3.667095  5.648717
Ba    2.266003  -0.803776  2.299884
