37
Energy: -246335.163625 eV PBE+vdW (tier 2 basis)
C    -1.243032  0.655159  -0.491664
C    -1.653317  -0.035498  0.767252
O    -2.607413  -0.867079  0.776047
H    -0.436615  1.382661  -0.352371
H    -2.110997  1.160079  -0.935814
H    -0.915325  -0.105377  -1.215622
N    -0.973136  0.240072  1.896462
C    -1.139414  -0.440829  3.193400
C    -2.454826  0.037131  3.865456
O    -3.535519  -0.555762  3.577145
H    -0.230711  0.931978  1.825550
H    -1.308737  -1.506909  2.979299
C    0.158961  -0.294323  4.014452
C    0.210514  -1.155713  5.288573
C    1.420398  -0.879267  6.203058
N    2.724173  -1.327964  5.694939
C    3.490302  -2.302877  6.232978
N    2.947357  -3.276480  6.971415
N    4.808360  -2.300620  6.008621
H    0.330238  0.767135  4.268991
H    0.985580  -0.575335  3.343488
H    0.186577  -2.221830  5.016035
H    -0.683253  -0.972856  5.904913
H    1.254843  -1.354452  7.177912
H    1.501782  0.198447  6.410044
H    3.208890  -0.705549  5.056288
H    3.527942  -3.893973  7.529116
H    1.953640  -3.464749  6.966466
H    5.300422  -1.463434  5.716647
H    5.379290  -3.114666  6.212193
N    -2.417065  1.065776  4.698596
C    -3.581062  1.653976  5.369281
H    -1.517763  1.509158  4.865100
H    -3.979902  2.491026  4.781393
H    -3.272980  2.025865  6.351375
H    -4.353421  0.890692  5.494076
Ba    -4.731781  -1.632613  1.687907
