37
Energy: -246335.059854 eV PBE+vdW (tier 2 basis)
C    -0.980828  -2.238857  -0.730921
C    -0.664502  -1.662718  0.608325
O    0.528756  -1.417619  0.954750
H    -0.414671  -3.169234  -0.872934
H    -0.636654  -1.537675  -1.505268
H    -2.046633  -2.438902  -0.882311
N    -1.679594  -1.396411  1.452618
C    -1.527689  -0.703899  2.742119
C    -0.768523  -1.605454  3.751971
O    0.463846  -1.360278  3.938550
H    -2.622825  -1.588141  1.122935
H    -0.826640  0.128176  2.579163
C    -2.884307  -0.104917  3.168108
C    -2.861883  0.700810  4.478053
C    -4.225341  1.367348  4.729314
N    -4.222230  2.142393  5.973021
C    -5.078946  3.141700  6.272136
N    -6.118425  3.411661  5.475155
N    -4.865673  3.884063  7.364146
H    -3.649755  -0.891297  3.227649
H    -3.188712  0.558492  2.343317
H    -2.084328  1.478280  4.435025
H    -2.613875  0.042032  5.326535
H    -5.016412  0.598521  4.758065
H    -4.453057  2.055371  3.901977
H    -3.653067  1.797592  6.739938
H    -6.669198  4.253674  5.608402
H    -6.493871  2.723632  4.834313
H    -5.583520  4.499584  7.731829
H    -3.974730  3.881967  7.846973
N    -1.342760  -2.620801  4.387136
C    -2.703407  -3.158775  4.289231
H    -0.715837  -3.108376  5.028363
H    -3.398979  -2.609829  4.936334
H    -2.677317  -4.200442  4.623797
H    -3.060134  -3.149669  3.255088
Ba    2.450727  -1.241007  2.443095
