37
Energy: -246335.005886 eV PBE+vdW (tier 2 basis)
C    0.103793  2.152126  1.534530
C    -0.152731  0.709279  1.834960
O    0.737026  -0.161968  1.607953
H    1.011656  2.480087  2.058154
H    -0.723361  2.816558  1.805115
H    0.305673  2.254519  0.458423
N    -1.353075  0.386963  2.351397
C    -1.960172  -0.935260  2.627214
C    -1.165750  -1.750615  3.675068
O    -0.054597  -2.291916  3.402138
H    -1.975527  1.176202  2.504004
H    -2.921890  -0.680229  3.094333
C    -2.283613  -1.732970  1.341673
C    -3.205003  -2.936045  1.609538
C    -3.733236  -3.663074  0.362405
N    -4.809554  -2.916901  -0.306002
C    -5.325478  -3.235223  -1.515175
N    -6.278972  -2.462636  -2.046377
N    -4.863888  -4.288734  -2.196943
H    -1.351928  -2.064080  0.861037
H    -2.761147  -1.028521  0.645108
H    -4.063946  -2.628597  2.230219
H    -2.673154  -3.691557  2.206150
H    -4.098983  -4.654370  0.675603
H    -2.919591  -3.815498  -0.362420
H    -5.414729  -2.361402  0.292099
H    -6.818810  -2.766170  -2.850112
H    -6.508103  -1.554071  -1.661072
H    -5.156134  -4.455505  -3.154585
H    -4.377719  -5.048701  -1.736974
N    -1.731367  -1.884063  4.867988
C    -1.166940  -2.639627  5.989586
H    -2.610781  -1.402356  5.037731
H    -1.988118  -3.039798  6.592260
H    -0.550972  -1.985999  6.621268
H    -0.558919  -3.464056  5.607378
Ba    2.163411  -1.962211  2.370750
