37
Energy: -246334.749226 eV PBE+vdW (tier 2 basis)
C    -2.609108  -0.653195  -0.003662
C    -2.126702  -0.723830  1.410586
O    -1.381488  -1.671554  1.789291
H    -1.745376  -0.641799  -0.682301
H    -3.238381  0.217423  -0.215961
H    -3.174753  -1.568322  -0.229585
N    -2.518727  0.255805  2.251441
C    -2.271352  0.401747  3.703778
C    -0.763571  0.537407  4.011742
O    -0.011177  -0.482773  4.043907
H    -3.089046  0.982367  1.828704
H    -2.740272  1.359739  3.958168
C    -2.923021  -0.707177  4.561809
C    -4.466477  -0.729995  4.562663
C    -5.119927  0.199506  5.599582
N    -6.578818  0.058970  5.563931
C    -7.423668  0.221965  6.602608
N    -8.690586  -0.190218  6.488567
N    -7.001527  0.769180  7.748640
H    -2.545818  -0.603525  5.590746
H    -2.562441  -1.680723  4.206768
H    -4.791400  -1.757042  4.778415
H    -4.847677  -0.496975  3.555009
H    -4.836677  1.252449  5.428249
H    -4.777012  -0.080888  6.605966
H    -7.009752  -0.107184  4.659443
H    -9.404015  0.108251  7.145550
H    -8.981605  -0.830842  5.758809
H    -7.584465  0.745218  8.579071
H    -6.188699  1.371244  7.783701
N    -0.265567  1.740376  4.269210
C    -0.934066  3.048387  4.266700
H    0.727324  1.740138  4.506535
H    -0.164237  3.817079  4.380251
H    -1.631199  3.142255  5.108882
H    -1.450882  3.230922  3.317589
Ba    0.616166  -2.554384  2.881200
