37
Energy: -246335.164075 eV PBE+vdW (tier 2 basis)
C    -0.846067  0.011241  0.320904
C    -0.485700  -0.224381  1.753137
O    0.343358  -1.128355  2.067728
H    -1.295332  -0.907992  -0.082313
H    0.066300  0.198041  -0.261051
H    -1.542748  0.842176  0.169147
N    -1.072044  0.556289  2.678628
C    -1.038599  0.483239  4.158068
C    0.383621  0.702331  4.724151
O    1.278309  -0.189832  4.651813
H    -1.713072  1.252160  2.306024
H    -1.639724  1.349851  4.466534
C    -1.745868  -0.774375  4.715787
C    -2.205894  -0.611582  6.176864
C    -3.161181  -1.737345  6.608044
N    -3.623424  -1.539395  7.985040
C    -4.802949  -1.955000  8.491296
N    -5.191696  -1.515586  9.693247
N    -5.594759  -2.778660  7.794915
H    -1.097799  -1.654957  4.603284
H    -2.621749  -0.946680  4.073280
H    -2.730038  0.349647  6.294647
H    -1.335078  -0.586961  6.851864
H    -2.668186  -2.718559  6.506314
H    -4.044191  -1.734155  5.953147
H    -2.954577  -1.172609  8.655413
H    -4.765811  -0.706515  10.130552
H    -5.949791  -1.962474  10.198331
H    -6.546984  -2.958794  8.096377
H    -5.230068  -3.378625  7.065539
N    0.608514  1.869422  5.314810
C    1.877887  2.274078  5.924768
H    -0.140222  2.557602  5.314164
H    2.516215  2.776123  5.185704
H    2.392752  1.393743  6.319183
H    1.668989  2.972254  6.741027
Ba    2.378605  -1.830371  3.163635
