37
Energy: -246333.686951 eV PBE+vdW (tier 2 basis)
C    -0.315644  1.078184  1.278967
C    -0.260425  -0.052915  2.248229
O    0.835981  -0.215653  2.924494
H    0.512437  0.991273  0.566762
H    -0.192798  2.015715  1.843151
H    -1.244790  1.124604  0.712663
N    -1.307000  -0.808712  2.581910
C    -2.435840  -1.213663  1.727399
C    -1.792963  -1.888484  0.467207
O    -0.675770  -1.523235  0.097520
H    -1.105250  -1.463024  3.336464
H    -2.943663  -1.985984  2.316214
C    -3.487872  -0.088787  1.424610
C    -3.776071  0.219071  -0.055323
C    -4.756334  1.377060  -0.290439
N    -6.143373  1.011301  0.034857
C    -7.169400  1.883725  0.115097
N    -8.380526  1.446270  0.480496
N    -6.978344  3.183905  -0.133435
H    -3.153961  0.827951  1.929797
H    -4.419584  -0.371508  1.932483
H    -4.148319  -0.673421  -0.581440
H    -2.848530  0.485917  -0.582888
H    -4.685329  1.676922  -1.348584
H    -4.477875  2.243377  0.328570
H    -6.401824  0.038054  -0.097969
H    -8.516747  0.526728  0.882696
H    -9.206827  2.023588  0.368696
H    -6.184453  3.511044  -0.669997
H    -7.708376  3.862462  0.055856
N    -2.511254  -2.842794  -0.153888
C    -3.750537  -3.479399  0.289778
H    -2.041179  -3.249755  -0.960535
H    -4.143851  -4.077568  -0.537618
H    -4.517558  -2.740475  0.554645
H    -3.586403  -4.151152  1.144030
Ba    3.058574  -0.403787  3.586029
