37
Energy: -246335.035478 eV PBE+vdW (tier 2 basis)
C    1.271820  -1.843194  1.974308
C    0.703846  -0.458730  1.957776
O    1.468246  0.549497  1.979529
H    0.515489  -2.634747  1.953691
H    1.888419  -1.959934  2.876845
H    1.944562  -1.972663  1.115590
N    -0.637007  -0.339560  1.917408
C    -1.494630  0.864547  1.999531
C    -1.276700  1.836533  0.817930
O    -0.220475  2.524066  0.699502
H    -1.142116  -1.220655  1.876988
H    -2.510967  0.461047  1.889271
C    -1.443809  1.583388  3.371065
C    -1.928630  0.675731  4.517334
C    -1.934473  1.297014  5.926101
N    -3.120028  2.117530  6.201938
C    -3.715341  2.245516  7.406884
N    -4.926513  2.809918  7.484783
N    -3.117290  1.801487  8.517050
H    -2.070727  2.484517  3.279675
H    -0.421005  1.933209  3.571207
H    -1.269401  -0.202158  4.575456
H    -2.935418  0.285618  4.299954
H    -1.015014  1.882382  6.093544
H    -1.937966  0.473918  6.652497
H    -3.473251  2.720905  5.466935
H    -5.532042  2.889371  6.676310
H    -5.310096  3.111554  8.374440
H    -3.630962  1.725179  9.389132
H    -2.116198  1.657609  8.565995
N    -2.275897  1.942240  -0.048045
C    -2.292675  2.835307  -1.209993
H    -3.086879  1.341787  0.077831
H    -1.703222  3.730550  -0.994080
H    -3.328448  3.121045  -1.417380
H    -1.882445  2.325126  -2.091462
Ba    2.226244  2.600050  0.911457
