37
Energy: -246335.141021 eV PBE+vdW (tier 2 basis)
C    0.850900  0.578993  0.796889
C    0.835182  0.942615  2.244845
O    1.408650  1.990470  2.663565
H    0.349015  1.378001  0.231465
H    0.358093  -0.373755  0.577111
H    1.887469  0.540814  0.436802
N    0.182574  0.132617  3.100731
C    -0.060649  0.415473  4.525953
C    1.248469  0.209956  5.331505
O    2.047657  1.183196  5.453988
H    -0.251616  -0.698536  2.706240
H    -0.263811  1.494038  4.607217
C    -1.316495  -0.348546  4.996575
C    -1.781833  0.033600  6.414965
C    -3.257838  -0.252947  6.731712
N    -3.562488  -1.684362  6.872623
C    -4.818079  -2.192614  6.888521
N    -4.987935  -3.514933  6.994224
N    -5.880934  -1.392915  6.763401
H    -1.170787  -1.438283  4.905145
H    -2.111184  -0.097430  4.277002
H    -1.664906  1.119338  6.551655
H    -1.140455  -0.426225  7.183237
H    -3.888488  0.149661  5.925556
H    -3.514090  0.282111  7.660700
H    -2.863016  -2.252584  7.342413
H    -5.898927  -3.916656  7.190015
H    -4.220479  -4.164777  6.872160
H    -6.809754  -1.779606  6.628339
H    -5.831149  -0.401349  6.963258
N    1.509004  -0.982204  5.847276
C    2.727978  -1.328618  6.585930
H    0.839499  -1.727811  5.679273
H    2.497897  -2.133592  7.290117
H    3.081289  -0.452959  7.137371
H    3.511829  -1.671232  5.897792
Ba    2.930410  3.132049  4.184428
