37
Energy: -246334.436921 eV PBE+vdW (tier 2 basis)
C    -0.539049  2.174079  0.819545
C    -0.940500  1.575086  2.130796
O    -1.382140  2.305883  3.065398
H    -1.451953  2.528243  0.315841
H    -0.024597  1.475065  0.151760
H    0.091994  3.056582  0.979543
N    -0.816283  0.241479  2.268379
C    -1.419526  -0.661004  3.261985
C    -1.134817  -0.289366  4.728107
O    -0.280825  0.587188  5.057922
H    -0.479544  -0.234402  1.435425
H    -2.515455  -0.596559  3.142611
C    -1.022080  -2.120010  2.905803
C    0.444892  -2.529754  3.127608
C    0.675155  -3.962830  2.617162
N    2.061081  -4.393658  2.820057
C    2.487229  -5.674498  2.801144
N    3.747064  -5.952241  3.154607
N    1.656007  -6.665247  2.460857
H    -1.303542  -2.267830  1.850444
H    -1.678084  -2.797177  3.466616
H    0.703068  -2.477353  4.196148
H    1.125464  -1.841292  2.600942
H    0.408645  -4.018332  1.547647
H    0.020201  -4.658101  3.163258
H    2.784268  -3.681824  2.786064
H    4.323568  -5.281671  3.649313
H    4.160516  -6.859374  2.966110
H    1.924287  -7.635287  2.591755
H    0.819829  -6.498453  1.914819
N    -1.839762  -0.911731  5.675573
C    -2.944295  -1.872737  5.578210
H    -1.546043  -0.674869  6.622942
H    -2.577912  -2.906337  5.621505
H    -3.523598  -1.722255  4.661846
H    -3.612615  -1.710538  6.430396
Ba    -0.495294  3.078880  5.191805
