37
Energy: -246334.238973 eV PBE+vdW (tier 2 basis)
C    0.067306  -0.192731  -0.211245
C    -0.164380  0.206448  1.211850
O    0.735378  0.801151  1.869395
H    0.984370  0.280374  -0.574160
H    -0.770306  0.105661  -0.852518
H    0.184064  -1.284149  -0.301487
N    -1.351239  -0.059274  1.824285
C    -2.037126  -1.360750  1.762614
C    -0.992353  -2.458438  2.152291
O    0.104944  -2.120809  2.693695
H    -1.420714  0.397125  2.732709
H    -2.741785  -1.332752  2.609755
C    -2.882744  -1.621569  0.491948
C    -3.837185  -0.454814  0.179123
C    -4.722887  -0.628507  -1.063635
N    -5.868438  -1.520282  -0.825978
C    -6.684601  -1.984267  -1.801206
N    -7.700097  -2.792225  -1.477796
N    -6.461286  -1.675711  -3.082085
H    -3.472741  -2.536487  0.658862
H    -2.235926  -1.825195  -0.372710
H    -3.249143  0.458924  0.016107
H    -4.471432  -0.232713  1.053321
H    -4.131527  -1.043180  -1.893750
H    -5.079508  0.368977  -1.367502
H    -6.284215  -1.477003  0.100696
H    -8.431965  -3.014010  -2.144547
H    -7.789794  -3.195694  -0.552957
H    -6.987035  -2.125166  -3.824879
H    -5.898522  -0.877369  -3.348846
N    -1.300594  -3.728389  1.952633
C    -0.459345  -4.861718  2.358298
H    -2.189581  -3.942785  1.511095
H    -0.975506  -5.787464  2.091853
H    -0.292908  -4.843283  3.441705
H    0.504641  -4.827622  1.837418
Ba    1.968507  -0.615560  3.492826
