37
Energy: -246334.257751 eV PBE+vdW (tier 2 basis)
C    -0.046790  -0.023819  0.388817
C    -0.541916  -0.143475  1.790218
O    0.126543  -0.762360  2.668026
H    0.885249  0.557687  0.347520
H    -0.778214  0.398847  -0.305836
H    0.214026  -1.037582  0.048934
N    -1.745838  0.386442  2.148620
C    -2.114114  1.765903  1.831508
C    -1.429057  2.666636  2.912855
O    -0.556794  2.171764  3.690261
H    -2.019820  0.091648  3.086076
H    -1.610559  2.025217  0.887170
C    -3.631542  1.948372  1.588733
C    -4.564817  1.625751  2.767309
C    -6.035512  1.391386  2.381066
N    -6.722941  2.606688  1.922832
C    -7.880781  2.607702  1.220151
N    -8.394181  3.771848  0.807876
N    -8.492784  1.462292  0.906347
H    -3.870354  1.291749  0.739022
H    -3.812205  2.968616  1.216737
H    -4.500737  2.399269  3.549492
H    -4.256048  0.686446  3.250901
H    -6.558247  0.965375  3.252600
H    -6.078471  0.653252  1.567128
H    -6.533468  3.460111  2.441019
H    -9.341678  3.834186  0.450067
H    -7.855089  4.629361  0.822396
H    -9.269779  1.450019  0.253112
H    -8.324804  0.607002  1.422032
N    -1.746557  3.950601  2.951165
C    -1.124389  4.936634  3.843934
H    -2.417808  4.295073  2.270887
H    -1.667579  5.880591  3.750548
H    -0.076235  5.100794  3.564729
H    -1.178353  4.592199  4.882263
Ba    1.116013  0.481947  4.563608
