37
Energy: -246334.867741 eV PBE+vdW (tier 2 basis)
C    1.366621  1.031464  0.489810
C    0.760376  -0.119753  1.226797
O    1.471350  -1.106998  1.575388
H    2.203886  1.438887  1.072137
H    0.660340  1.838004  0.267474
H    1.789901  0.658573  -0.454123
N    -0.556299  -0.060531  1.500140
C    -1.458195  -1.083026  2.078506
C    -1.035245  -1.475921  3.511438
O    -0.083389  -2.288893  3.716972
H    -1.023525  0.781459  1.173916
H    -2.417777  -0.558447  2.158799
C    -1.681987  -2.298697  1.149625
C    -2.997802  -3.044069  1.441942
C    -3.273462  -4.155649  0.411466
N    -4.508941  -4.900258  0.676689
C    -5.589011  -5.000782  -0.126091
N    -6.422999  -6.034451  0.026995
N    -5.842590  -4.082556  -1.066449
H    -0.824566  -2.983939  1.209397
H    -1.698656  -1.909302  0.121012
H    -3.837934  -2.331914  1.435352
H    -2.973803  -3.487502  2.450124
H    -2.443906  -4.878977  0.400230
H    -3.328242  -3.744290  -0.604858
H    -4.492260  -5.541895  1.464078
H    -7.351858  -6.028140  -0.381934
H    -6.145553  -6.879973  0.513131
H    -6.544530  -4.250027  -1.779568
H    -5.436031  -3.157248  -1.035317
N    -1.704322  -0.958560  4.535146
C    -2.808917  0.011894  4.533709
H    -1.390721  -1.284594  5.449970
H    -3.027829  0.269247  5.573928
H    -3.717417  -0.416687  4.092945
H    -2.529061  0.933961  4.011230
Ba    2.297354  -2.704407  3.191993
