37
Energy: -246333.778876 eV PBE+vdW (tier 2 basis)
C    0.271101  1.204551  0.987161
C    -0.122177  0.536271  2.259950
O    0.812253  0.133402  3.068616
H    -0.529418  1.791079  0.529547
H    0.579723  0.433634  0.263843
H    1.135505  1.852856  1.170347
N    -1.380067  0.298587  2.602875
C    -2.699474  0.586259  1.959515
C    -2.670497  0.659146  0.405052
O    -2.823901  1.732294  -0.191696
H    -1.474273  -0.167211  3.506958
H    -3.296650  -0.303608  2.213247
C    -3.415627  1.788586  2.598843
C    -2.720574  3.167578  2.517287
C    -3.667348  4.308678  2.127424
N    -4.112970  4.142185  0.742723
C    -4.999226  4.926509  0.116162
N    -5.353199  4.645452  -1.146815
N    -5.543305  5.980778  0.736780
H    -3.627439  1.540893  3.648634
H    -4.401062  1.824080  2.111515
H    -1.888918  3.159774  1.799932
H    -2.287861  3.426723  3.491925
H    -3.135169  5.266377  2.243175
H    -4.537495  4.320233  2.804905
H    -3.688431  3.364086  0.224996
H    -5.959550  5.258648  -1.678008
H    -4.970581  3.843856  -1.631474
H    -5.259189  6.258384  1.666652
H    -6.243421  6.556536  0.283890
N    -2.491575  -0.517039  -0.221483
C    -2.514508  -0.653101  -1.679842
H    -2.514294  -1.371384  0.326929
H    -2.057843  0.231558  -2.133502
H    -3.544601  -0.748006  -2.048000
H    -1.951340  -1.547026  -1.964366
Ba    2.775661  -0.494451  4.198146
