37
Energy: -246333.824506 eV PBE+vdW (tier 2 basis)
C    2.080970  0.066202  1.480419
C    0.925502  -0.629720  2.108666
O    1.124434  -1.769179  2.704929
H    1.778061  0.901970  0.841964
H    2.639101  -0.651678  0.865069
H    2.758400  0.414086  2.274969
N    -0.309527  -0.147103  2.105561
C    -0.908208  1.100401  1.536086
C    -0.771223  1.133657  -0.015356
O    0.262239  1.569091  -0.527380
H    -0.980884  -0.744196  2.587261
H    -1.969846  1.001837  1.802605
C    -0.382201  2.395869  2.179966
C    -1.241852  3.621733  1.777750
C    -0.658207  4.554748  0.707710
N    0.320350  5.488495  1.288535
C    1.078054  6.341450  0.571719
N    1.895842  7.194445  1.202760
N    1.045714  6.320131  -0.764582
H    0.665832  2.555438  1.894060
H    -0.408651  2.266213  3.269928
H    -1.479979  4.211658  2.675241
H    -2.222794  3.288277  1.408599
H    -1.483679  5.123917  0.250324
H    -0.160023  3.964817  -0.075640
H    0.176731  5.736616  2.263361
H    2.358856  7.947427  0.706628
H    2.022648  7.166628  2.206912
H    1.680852  6.887475  -1.314294
H    0.326864  5.818746  -1.269610
N    -1.839821  0.677820  -0.697492
C    -1.906185  0.636970  -2.157946
H    -2.666903  0.392332  -0.183074
H    -2.206136  -0.363367  -2.490746
H    -0.916457  0.874307  -2.556971
H    -2.634754  1.367504  -2.531369
Ba    1.932978  -3.785720  3.564905
