37
Energy: -246333.926105 eV PBE+vdW (tier 2 basis)
C    0.322518  0.621840  1.089966
C    -0.084351  0.355888  2.497031
O    0.805721  0.464504  3.439658
H    -0.431348  0.318754  0.355905
H    1.252859  0.079131  0.877108
H    0.536775  1.696100  0.982795
N    -1.318544  0.020970  2.849329
C    -2.561205  -0.179200  2.043725
C    -2.366938  -1.311845  0.985399
O    -2.028305  -1.015588  -0.160739
H    -1.438920  -0.116637  3.852356
H    -3.293642  -0.505406  2.793202
C    -3.077382  1.105878  1.378478
C    -4.497078  0.918989  0.814768
C    -4.949811  2.139659  -0.004451
N    -6.322432  2.032340  -0.506497
C    -6.698819  1.711262  -1.756228
N    -7.952787  1.962984  -2.151516
N    -5.836982  1.147260  -2.612678
H    -2.395309  1.386853  0.564509
H    -3.070520  1.917746  2.120716
H    -5.210610  0.752415  1.636309
H    -4.531974  0.022330  0.178455
H    -4.281295  2.312708  -0.859284
H    -4.904882  3.051119  0.608055
H    -7.068460  2.282603  0.135090
H    -8.334032  1.548304  -2.994537
H    -8.551700  2.606334  -1.646795
H    -6.052861  1.082658  -3.600935
H    -4.976556  0.717536  -2.299736
N    -2.592265  -2.579593  1.389956
C    -3.042435  -3.061118  2.693983
H    -2.463602  -3.271091  0.653482
H    -3.085006  -4.153582  2.656886
H    -4.049633  -2.701287  2.944938
H    -2.343241  -2.791001  3.497570
Ba    2.767489  0.734842  4.681466
