37
Energy: -246334.722033 eV PBE+vdW (tier 2 basis)
C    1.130793  -0.233643  0.486276
C    0.270905  -0.502239  1.682272
O    0.149482  -1.678319  2.134309
H    0.766447  -0.840866  -0.354223
H    2.157465  -0.566074  0.691844
H    1.155003  0.818213  0.182895
N    -0.350426  0.551682  2.244086
C    -1.335963  0.616677  3.345993
C    -0.796043  0.100433  4.697871
O    -0.488486  -1.112267  4.892377
H    -0.149987  1.445903  1.804303
H    -1.492261  1.696417  3.477627
C    -2.724464  0.020041  2.994370
C    -3.469472  0.887522  1.955330
C    -5.004245  0.767687  1.929806
N    -5.513034  -0.339801  1.111536
C    -6.732343  -0.365689  0.533074
N    -7.011339  -1.310580  -0.374396
N    -7.655540  0.547762  0.846618
H    -3.305434  -0.008425  3.929303
H    -2.609331  -1.021539  2.662144
H    -3.070199  0.730479  0.942609
H    -3.273408  1.944680  2.191469
H    -5.401991  1.694386  1.494327
H    -5.389879  0.693021  2.960604
H    -4.974552  -1.197279  1.061146
H    -7.962984  -1.475346  -0.685260
H    -6.278952  -1.808934  -0.865606
H    -8.498121  0.648583  0.289751
H    -7.610192  1.088189  1.701904
N    -0.721873  0.995191  5.674079
C    -0.306983  0.702766  7.049438
H    -0.947093  1.963305  5.460010
H    -0.745518  1.454190  7.712559
H    0.786415  0.745731  7.138143
H    -0.661532  -0.290699  7.339058
Ba    0.499132  -3.176158  4.026353
