37
Energy: -246333.827966 eV PBE+vdW (tier 2 basis)
C    -0.129911  -0.533627  0.224936
C    -0.442618  -1.531717  1.285855
O    0.357565  -2.547291  1.418419
H    -0.093619  -1.038134  -0.747576
H    0.864523  -0.110434  0.434026
H    -0.858320  0.273125  0.156135
N    -1.411524  -1.394432  2.185735
C    -2.672632  -0.638701  2.089500
C    -3.436241  -1.207228  0.848329
O    -2.793639  -1.627285  -0.113649
H    -1.425739  -2.137580  2.882554
H    -3.214964  -0.931569  2.995487
C    -2.522477  0.921270  2.127329
C    -3.174583  1.725863  0.988323
C    -3.077738  3.233380  1.259665
N    -3.757146  3.995693  0.205870
C    -3.681502  5.329091  0.037205
N    -4.222581  5.890455  -1.050820
N    -3.046866  6.091868  0.934959
H    -1.452125  1.161330  2.184385
H    -2.945172  1.258089  3.083663
H    -4.236397  1.452410  0.895326
H    -2.707137  1.493932  0.019131
H    -2.023873  3.549519  1.293381
H    -3.530797  3.455010  2.241210
H    -4.448860  3.506192  -0.352957
H    -4.509590  5.337449  -1.849634
H    -4.356833  6.893401  -1.116765
H    -2.870915  7.073767  0.751790
H    -2.864110  5.765694  1.875506
N    -4.782885  -1.196672  0.907654
C    -5.640615  -0.876462  2.049510
H    -5.230677  -1.592733  0.083375
H    -6.677915  -0.859176  1.702545
H    -5.418859  0.114445  2.466606
H    -5.566946  -1.630462  2.845609
Ba    1.801455  -4.347119  1.124522
