37
Energy: -246333.765250 eV PBE+vdW (tier 2 basis)
C    1.602291  0.802598  0.420572
C    0.967791  0.734582  1.777399
O    1.561081  1.114564  2.800965
H    1.830849  1.851530  0.188373
H    0.989302  0.382805  -0.384493
H    2.567177  0.279796  0.458796
N    -0.312923  0.243271  1.846777
C    -1.051245  -0.061708  3.079643
C    -1.402927  1.206988  3.888083
O    -2.625650  1.444037  4.251729
H    -0.782777  0.039921  0.971357
H    -2.011560  -0.479866  2.752211
C    -0.336812  -1.080517  4.019146
C    0.224782  -2.366608  3.387986
C    -0.809458  -3.409599  2.922608
N    -0.275520  -4.777893  2.888279
C    0.127595  -5.476985  1.813139
N    0.395617  -4.858401  0.652833
N    0.242521  -6.806441  1.895879
H    -1.049626  -1.340568  4.817974
H    0.503269  -0.573538  4.508945
H    0.848602  -2.833107  4.164040
H    0.917609  -2.115649  2.570941
H    -1.225093  -3.181378  1.931564
H    -1.660511  -3.432678  3.618981
H    -0.246157  -5.273229  3.774633
H    0.542950  -5.396030  -0.194509
H    0.681442  -3.888627  0.633211
H    -0.191217  -7.334667  2.645034
H    0.771555  -7.335328  1.210483
N    -0.423098  2.010355  4.214161
C    -0.579450  3.238681  4.976098
H    0.528000  1.724790  3.804162
H    0.401794  3.707090  5.097656
H    -0.977525  3.029861  5.981114
H    -1.226038  3.955246  4.444660
Ba    -4.477762  2.572805  5.118395
