37
Energy: -246333.929516 eV PBE+vdW (tier 2 basis)
C    -1.088925  1.713657  0.683627
C    -0.303528  0.631329  1.355326
O    0.983139  0.734267  1.460609
H    -0.418130  2.479967  0.287360
H    -1.782687  2.196685  1.387636
H    -1.692080  1.315294  -0.143662
N    -0.911205  -0.437775  1.854850
C    -2.358915  -0.756672  1.803946
C    -2.885167  -1.265669  3.186476
O    -3.688225  -2.199774  3.234972
H    -0.302755  -1.141155  2.276253
H    -2.882688  0.190669  1.613900
C    -2.718534  -1.730054  0.670120
C    -2.131937  -3.157870  0.773580
C    -3.132518  -4.257542  0.395437
N    -4.224023  -4.295839  1.369594
C    -5.265050  -5.136135  1.335699
N    -6.213700  -5.047327  2.279703
N    -5.376303  -6.056336  0.368741
H    -2.433662  -1.270993  -0.286893
H    -3.816347  -1.768363  0.661920
H    -1.770919  -3.368912  1.791707
H    -1.265766  -3.263999  0.107856
H    -2.604216  -5.223928  0.377771
H    -3.531629  -4.069745  -0.615778
H    -4.168811  -3.609216  2.133115
H    -6.988705  -5.697953  2.319151
H    -6.152121  -4.359114  3.019283
H    -6.165529  -6.690456  0.331718
H    -4.660122  -6.180777  -0.333888
N    -2.446595  -0.614374  4.279608
C    -2.940621  -0.925196  5.625217
H    -1.903889  0.234006  4.163567
H    -2.266994  -0.477199  6.361077
H    -2.960698  -2.010565  5.764038
H    -3.954420  -0.530987  5.772411
Ba    3.239549  1.418229  1.355890
