37
Energy: -246334.183364 eV PBE+vdW (tier 2 basis)
C    0.327101  -0.710920  0.178354
C    0.094869  -0.106369  1.527709
O    1.071220  0.394833  2.160538
H    -0.475714  -0.481571  -0.528235
H    0.413969  -1.805649  0.253651
H    1.272633  -0.322844  -0.214120
N    -1.141117  -0.037418  2.097092
C    -2.086202  -1.157651  2.246439
C    -1.414961  -2.155682  3.241980
O    -0.145362  -2.187266  3.331850
H    -1.128446  0.570125  2.917993
H    -2.964115  -0.717429  2.739495
C    -2.563480  -1.770090  0.899413
C    -3.950912  -2.438317  0.909238
C    -4.431780  -2.714115  -0.527113
N    -5.748704  -3.357416  -0.529983
C    -6.655745  -3.292143  -1.527586
N    -7.893580  -3.752917  -1.318014
N    -6.337225  -2.749477  -2.708070
H    -1.817868  -2.477587  0.513138
H    -2.598580  -0.924198  0.197954
H    -4.687224  -1.788050  1.405084
H    -3.918153  -3.387794  1.463975
H    -3.696517  -3.341950  -1.058147
H    -4.520848  -1.762290  -1.070323
H    -5.938001  -4.039849  0.197889
H    -8.531064  -3.921710  -2.089170
H    -8.250604  -3.922639  -0.384726
H    -7.055836  -2.548035  -3.396036
H    -5.377767  -2.692236  -3.026302
N    -2.146923  -2.942028  4.022027
C    -3.591838  -2.987070  4.258587
H    -1.592770  -3.573577  4.602614
H    -3.767010  -2.977383  5.340749
H    -4.020260  -3.908510  3.846435
H    -4.091709  -2.120352  3.820680
Ba    2.109407  -1.107012  3.808134
