37
Energy: -246333.920871 eV PBE+vdW (tier 2 basis)
C    -1.629089  1.779786  -0.975035
C    -0.888922  0.873573  -0.043863
O    0.216051  0.324764  -0.419722
H    -2.558693  2.171908  -0.548771
H    -1.874594  1.240539  -1.900879
H    -0.990984  2.633794  -1.244034
N    -1.391509  0.655402  1.165403
C    -0.812807  -0.142365  2.259893
C    -1.196952  -1.643710  2.242463
O    -0.404967  -2.438258  2.764834
H    -2.238375  1.179374  1.385921
H    0.277263  -0.129362  2.137865
C    -1.187924  0.540171  3.600174
C    -0.633743  -0.134272  4.872244
C    -1.611060  -1.130926  5.524308
N    -1.036197  -1.832071  6.669990
C    -0.474119  -3.053135  6.645481
N    -0.217429  -3.668798  5.485948
N    -0.175209  -3.657584  7.803710
H    -2.286930  0.617797  3.666344
H    -0.808928  1.570257  3.550024
H    -0.408154  0.653413  5.603450
H    0.320323  -0.634395  4.655650
H    -1.970010  -1.884594  4.811814
H    -2.502012  -0.599616  5.886331
H    -1.057479  -1.355748  7.566173
H    0.039367  -4.648562  5.482284
H    -0.269572  -3.198272  4.579940
H    -0.540661  -3.324459  8.688204
H    0.394414  -4.494892  7.832128
N    -2.382030  -1.991410  1.711191
C    -2.899032  -3.361749  1.725475
H    -2.993207  -1.267872  1.347789
H    -3.499105  -3.532385  0.826199
H    -3.527941  -3.536640  2.608529
H    -2.057312  -4.059890  1.742595
Ba    2.096625  -0.215842  -1.736562
