37
Energy: -246333.912214 eV PBE+vdW (tier 2 basis)
C    0.176468  -0.151993  -0.483234
C    0.144184  0.165849  0.973995
O    1.240814  0.399634  1.622657
H    1.205285  -0.216972  -0.844720
H    -0.354637  0.622995  -1.056450
H    -0.336899  -1.100515  -0.696745
N    -1.016312  0.222149  1.616971
C    -2.353157  -0.047059  1.039153
C    -2.854771  1.011692  0.013733
O    -3.497797  0.600116  -0.946843
H    -0.973583  0.445471  2.612423
H    -2.271703  -0.966868  0.446152
C    -3.369058  -0.252889  2.188606
C    -4.849245  -0.299156  1.763448
C    -5.241956  -1.495804  0.876878
N    -6.579043  -1.350891  0.294016
C    -7.714130  -1.944152  0.697772
N    -8.776477  -1.957993  -0.117263
N    -7.799002  -2.530739  1.899348
H    -3.265418  0.581360  2.901651
H    -3.097573  -1.170788  2.733015
H    -5.109321  0.628132  1.233760
H    -5.454289  -0.298224  2.681792
H    -5.197256  -2.445075  1.428436
H    -4.553844  -1.585236  0.026740
H    -6.641525  -0.776789  -0.541743
H    -9.701731  -2.190711  0.225692
H    -8.690781  -1.759382  -1.107238
H    -8.582419  -3.130659  2.131342
H    -7.141521  -2.327387  2.639759
N    -2.577933  2.310426  0.265371
C    -3.083560  3.399704  -0.573899
H    -2.140035  2.558278  1.146135
H    -2.338279  4.200006  -0.625641
H    -4.020551  3.807289  -0.172341
H    -3.270349  3.007886  -1.577796
Ba    3.477122  0.630493  2.307075
