37
Energy: -246333.788723 eV PBE+vdW (tier 2 basis)
C    0.132181  -0.886528  -0.866681
C    0.458728  -0.327159  0.476496
O    1.578158  -0.643810  1.046446
H    0.502620  -0.190481  -1.635980
H    -0.944441  -1.012038  -1.024567
H    0.623993  -1.854019  -1.006195
N    -0.372347  0.493779  1.096680
C    -1.622076  1.064215  0.552502
C    -1.267848  1.936445  -0.686196
O    -0.162043  2.471511  -0.751572
H    -0.038103  0.874179  1.981248
H    -2.273242  0.225162  0.270496
C    -2.353211  1.879088  1.645359
C    -1.704392  3.226395  2.047151
C    -2.315595  4.486611  1.419817
N    -3.627089  4.795737  2.011737
C    -4.457029  5.767370  1.582536
N    -5.648659  5.927727  2.170286
N    -4.112122  6.546180  0.550347
H    -2.456887  1.228577  2.526062
H    -3.381055  2.041523  1.292510
H    -0.638885  3.242548  1.776063
H    -1.731326  3.334511  3.141813
H    -2.442352  4.357754  0.334734
H    -1.620677  5.326096  1.583117
H    -3.793852  4.453478  2.953527
H    -6.215391  6.751656  2.001920
H    -6.017850  5.246164  2.822583
H    -4.772814  7.205036  0.152485
H    -3.146875  6.641503  0.260043
N    -2.233554  2.089171  -1.621829
C    -3.521010  1.401171  -1.727838
H    -1.943680  2.665435  -2.409517
H    -4.034051  1.774611  -2.618805
H    -4.170502  1.601935  -0.866204
H    -3.403685  0.314875  -1.847764
Ba    3.718757  -1.452559  1.527020
