37
Energy: -246334.269050 eV PBE+vdW (tier 2 basis)
C    -0.318805  -0.103442  -0.898125
C    -0.110982  -0.265046  0.571840
O    1.026838  -0.545823  1.042634
H    0.030966  0.888061  -1.226906
H    -1.362282  -0.225926  -1.204343
H    0.303567  -0.842649  -1.418334
N    -1.153666  -0.104047  1.432814
C    -2.074305  1.030724  1.342827
C    -1.229807  2.326994  1.554709
O    -0.037832  2.227770  1.991065
H    -0.902062  -0.342162  2.393553
H    -2.503362  1.059107  0.330463
C    -3.190577  0.888561  2.405111
C    -4.128705  -0.327159  2.239145
C    -5.323900  -0.086298  1.297511
N    -6.206373  -1.250120  1.169845
C    -7.430144  -1.402668  1.715696
N    -7.826351  -0.641445  2.743862
N    -8.261097  -2.321678  1.214329
H    -3.776849  1.817493  2.432668
H    -2.704099  0.828450  3.391045
H    -4.509459  -0.595076  3.234964
H    -3.559329  -1.203878  1.895498
H    -4.985440  0.168536  0.282076
H    -5.929258  0.764462  1.639939
H    -5.910192  -1.987633  0.537914
H    -7.163557  -0.182512  3.354840
H    -8.797484  -0.633342  3.037657
H    -9.080806  -2.628412  1.728060
H    -8.127668  -2.717653  0.290337
N    -1.742535  3.515383  1.273910
C    -3.052518  3.862553  0.716894
H    -1.127031  4.302288  1.485328
H    -3.737989  4.185762  1.510975
H    -3.484942  3.017645  0.173526
H    -2.920957  4.691183  0.012650
Ba    2.252433  1.226003  2.285840
