37
Energy: -246333.685969 eV PBE+vdW (tier 2 basis)
C    0.390323  0.828473  0.628688
C    0.239200  0.135316  1.954933
O    1.166222  -0.442269  2.531472
H    1.028164  1.714857  0.758854
H    -0.557299  1.148721  0.181575
H    0.918365  0.164307  -0.066075
N    -1.012662  0.191856  2.533205
C    -1.238994  -0.323906  3.881157
C    -2.552907  -1.111101  3.857761
O    -2.600811  -2.262675  3.279237
H    -1.705615  0.808825  2.117789
H    -0.443639  -1.073738  4.025804
C    -1.122000  0.718849  5.016203
C    0.325242  1.116924  5.387784
C    0.949605  2.257588  4.563762
N    2.300301  2.591433  5.013014
C    3.453321  2.129955  4.494537
N    3.462856  1.162832  3.570531
N    4.610224  2.661775  4.912121
H    -1.563447  0.279735  5.923804
H    -1.711814  1.620261  4.776102
H    0.972412  0.229059  5.345791
H    0.316982  1.436814  6.439174
H    0.344945  3.170156  4.659231
H    0.996895  2.030942  3.492929
H    2.379734  3.212570  5.812067
H    4.324959  0.939673  3.087105
H    2.642832  0.607541  3.317396
H    4.639804  3.519406  5.451125
H    5.502036  2.247265  4.667956
N    -3.630662  -0.598481  4.416406
C    -4.955102  -1.222209  4.466576
H    -3.524782  0.304249  4.876117
H    -5.647768  -0.528286  4.950345
H    -4.921329  -2.147295  5.056354
H    -5.319370  -1.430212  3.453139
Ba    -2.603766  -4.410113  2.334265
