37
Energy: -246334.338546 eV PBE+vdW (tier 2 basis)
C    -3.284877  1.615960  -0.276736
C    -2.249915  1.409749  0.779139
O    -1.799371  2.382146  1.449768
H    -3.042444  2.543354  -0.812413
H    -4.276281  1.769610  0.177066
H    -3.346608  0.790821  -0.992822
N    -1.762526  0.163704  1.032278
C    -2.632126  -0.997945  1.203769
C    -3.330068  -0.835592  2.599355
O    -3.119956  0.204259  3.295701
H    -0.974616  0.181780  1.681925
H    -3.428593  -0.939626  0.445336
C    -1.847755  -2.317887  1.012697
C    -1.283607  -2.455259  -0.414500
C    -0.286895  -3.603689  -0.644307
N    -0.921233  -4.914628  -0.831647
C    -0.395655  -5.930969  -1.547783
N    -1.156860  -6.992958  -1.839250
N    0.867755  -5.879714  -1.980719
H    -2.512769  -3.160579  1.255031
H    -1.031229  -2.358831  1.752130
H    -0.740057  -1.532017  -0.661522
H    -2.101845  -2.530122  -1.147364
H    0.441709  -3.644288  0.183035
H    0.269017  -3.380845  -1.564873
H    -1.752096  -5.135029  -0.293759
H    -0.748477  -7.850732  -2.195372
H    -2.168361  -6.951751  -1.798924
H    1.210288  -6.545834  -2.665508
H    1.556285  -5.269799  -1.557399
N    -4.156743  -1.784944  3.004002
C    -4.907468  -1.755080  4.265925
H    -4.314853  -2.579632  2.391227
H    -5.414682  -2.715450  4.388949
H    -5.658230  -0.955540  4.247270
H    -4.224218  -1.600187  5.108103
Ba    -2.400594  2.561323  3.846884
