37
Energy: -246334.210625 eV PBE+vdW (tier 2 basis)
C    0.510127  1.698899  0.562984
C    0.368074  0.925569  1.828928
O    1.382238  0.564371  2.491361
H    1.164223  1.114820  -0.103219
H    1.032935  2.649173  0.739562
H    -0.435530  1.881660  0.045517
N    -0.864684  0.569848  2.288481
C    -1.973626  1.521200  2.422447
C    -1.488216  2.627690  3.406337
O    -0.552337  2.349946  4.226222
H    -0.805712  -0.081520  3.072455
H    -2.177382  1.970345  1.441196
C    -3.220543  0.729494  2.900847
C    -4.554528  1.489507  2.933810
C    -5.767362  0.636461  3.342849
N    -6.203483  -0.275335  2.275802
C    -7.094076  -1.279462  2.445620
N    -7.392861  -2.072664  1.411248
N    -7.645901  -1.507265  3.641568
H    -3.010937  0.323227  3.904146
H    -3.296008  -0.133624  2.222879
H    -4.761246  1.960087  1.959145
H    -4.508635  2.309705  3.663275
H    -6.587493  1.319924  3.615930
H    -5.520334  0.034353  4.229895
H    -6.108802  0.064360  1.322535
H    -8.184315  -2.706724  1.443088
H    -6.850178  -2.064001  0.555761
H    -8.205294  -2.338116  3.805665
H    -7.680208  -0.792798  4.358454
N    -2.005709  3.848505  3.382474
C    -2.966653  4.463463  2.462155
H    -1.627172  4.472540  4.097312
H    -2.560338  5.424063  2.124785
H    -3.921187  4.648368  2.969281
H    -3.135647  3.831624  1.587318
Ba    1.768470  1.505603  4.756190
