37
Energy: -246334.233274 eV PBE+vdW (tier 2 basis)
C    0.080413  -2.394427  0.815329
C    0.242412  -1.542578  2.033701
O    1.331966  -1.541134  2.673879
H    -0.537200  -3.279332  1.037080
H    1.065236  -2.742253  0.489188
H    -0.401468  -1.850149  -0.004456
N    -0.769814  -0.743501  2.477135
C    -2.165997  -1.180380  2.635274
C    -2.159991  -2.459366  3.546172
O    -1.084706  -2.818400  4.118818
H    -0.454536  -0.132047  3.229365
H    -2.630705  -0.391055  3.246871
C    -2.984561  -1.313849  1.327622
C    -2.957673  -0.090156  0.385986
C    -4.001304  0.994090  0.704218
N    -3.950444  2.058781  -0.302454
C    -4.991411  2.794736  -0.742105
N    -4.854916  3.524914  -1.853967
N    -6.160780  2.783564  -0.090732
H    -4.031048  -1.524509  1.597418
H    -2.648330  -2.195881  0.770012
H    -3.146147  -0.451322  -0.634338
H    -1.949316  0.352648  0.382478
H    -3.845936  1.417006  1.711296
H    -5.007713  0.552190  0.674730
H    -3.037334  2.313193  -0.667184
H    -4.104652  3.357818  -2.514930
H    -5.519186  4.254410  -2.091101
H    -6.987743  3.199997  -0.506394
H    -6.220325  2.542520  0.890646
N    -3.303092  -3.101505  3.718587
C    -3.523898  -4.265998  4.581315
H    -4.117195  -2.757769  3.215490
H    -2.608167  -4.491279  5.130224
H    -3.811014  -5.130461  3.970241
H    -4.331200  -4.045092  5.289493
Ba    1.348197  -2.884296  4.760253
