37
Energy: -246334.137916 eV PBE+vdW (tier 2 basis)
C    -0.752846  1.528635  -0.252964
C    -0.375260  1.156388  1.142577
O    0.741148  1.619786  1.628280
H    0.070750  1.270940  -0.932418
H    -0.895830  2.617109  -0.314936
H    -1.663235  1.038394  -0.606431
N    -1.123959  0.386136  1.898185
C    -2.516751  -0.050531  1.715855
C    -3.024557  -0.116976  3.193017
O    -2.174789  -0.194083  4.091440
H    -0.874281  0.214383  2.899071
H    -3.064281  0.724274  1.162979
C    -2.689059  -1.401176  0.976903
C    -2.303161  -2.665533  1.761235
C    -2.697947  -3.931397  0.987979
N    -2.433095  -5.135419  1.783748
C    -2.471759  -6.398416  1.319498
N    -2.092722  -7.407537  2.113724
N    -2.859736  -6.650049  0.064028
H    -2.129948  -1.353082  0.029776
H    -3.750900  -1.461972  0.692883
H    -2.821124  -2.666352  2.733409
H    -1.224102  -2.682171  1.974253
H    -2.124579  -4.000367  0.051063
H    -3.769476  -3.878200  0.728760
H    -2.384890  -5.024249  2.791711
H    -2.283979  -8.372806  1.869287
H    -1.599486  -7.245239  2.983380
H    -2.766133  -7.578025  -0.334278
H    -3.384644  -5.974616  -0.476862
N    -4.349943  -0.124528  3.372376
C    -4.990117  -0.192606  4.688591
H    -4.951903  0.014981  2.566118
H    -5.766004  -0.966242  4.684515
H    -5.447953  0.771886  4.940512
H    -4.229535  -0.436258  5.434671
Ba    2.589878  2.810159  2.368731
