37
Energy: -246334.173952 eV PBE+vdW (tier 2 basis)
C    -0.931697  0.792165  0.088916
C    -1.666585  -0.508332  0.064635
O    -1.630815  -1.240598  -0.964276
H    -1.348580  1.525483  0.784885
H    -0.867803  1.221096  -0.915991
H    0.100504  0.575646  0.409458
N    -2.350263  -0.943352  1.159347
C    -3.316951  -0.111662  1.902561
C    -4.006306  0.853429  0.895120
O    -4.109065  0.500917  -0.321494
H    -2.622022  -1.922195  1.075086
H    -4.140137  -0.811461  2.130071
C    -2.872149  0.374442  3.303465
C    -1.631918  1.265408  3.476894
C    -1.360458  1.486228  4.976779
N    -0.148721  2.280002  5.198844
C    0.157393  2.924506  6.345977
N    -0.607440  2.782918  7.433678
N    1.220658  3.734970  6.378396
H    -3.746660  0.841531  3.787438
H    -2.714233  -0.549630  3.880075
H    -1.752633  2.241504  2.982427
H    -0.758349  0.769967  3.026123
H    -1.274897  0.506054  5.476289
H    -2.205515  2.023765  5.431888
H    0.613016  2.165569  4.537249
H    -0.472730  3.379798  8.243550
H    -1.211628  1.980402  7.561374
H    1.598639  4.074501  7.256654
H    1.670331  4.061581  5.531059
N    -4.535583  1.973955  1.356339
C    -5.349516  2.918840  0.585363
H    -4.434019  2.162985  2.349937
H    -5.177570  2.760881  -0.481205
H    -6.413428  2.772225  0.812360
H    -5.063843  3.940877  0.855626
Ba    -3.659527  -0.930959  -2.363056
