37
Energy: -246335.232803 eV PBE+vdW (tier 2 basis)
C    1.345057  0.940576  0.846232
C    1.028132  1.180741  2.285505
O    1.237750  2.307716  2.823462
H    1.165603  -0.089925  0.522433
H    2.392579  1.203748  0.649262
H    0.728648  1.617215  0.236107
N    0.499671  0.168762  2.998825
C    -0.013449  0.255707  4.378848
C    1.177637  0.331734  5.369120
O    1.675978  1.463503  5.639599
H    0.368807  -0.714659  2.510889
H    -0.520625  1.227498  4.476328
C    -1.041455  -0.873315  4.593519
C    -1.859015  -0.792956  5.894783
C    -2.864045  -1.958372  5.983937
N    -3.632378  -1.965079  7.233311
C    -4.975476  -2.024183  7.362024
N    -5.501738  -2.513752  8.489203
N    -5.786403  -1.590600  6.389924
H    -0.547641  -1.858432  4.516648
H    -1.730183  -0.829403  3.735184
H    -2.399266  0.164294  5.943535
H    -1.194849  -0.822889  6.772705
H    -2.333760  -2.920741  5.905063
H    -3.567042  -1.932639  5.141923
H    -3.110438  -2.168973  8.081000
H    -6.476677  -2.360803  8.726398
H    -4.966455  -3.099482  9.120590
H    -6.779607  -1.796281  6.412258
H    -5.468121  -0.957686  5.668184
N    1.661819  -0.789303  5.882504
C    2.816840  -0.870343  6.782394
H    1.233241  -1.665980  5.598103
H    2.861008  0.029693  7.401802
H    3.746970  -0.967356  6.207120
H    2.704389  -1.749880  7.423208
Ba    2.219494  3.651846  4.595069
