37
Energy: -246334.149454 eV PBE+vdW (tier 2 basis)
C    -0.246820  0.678610  0.976321
C    0.072090  -0.383481  1.980343
O    1.283479  -0.637128  2.247188
H    0.577616  1.400963  0.980606
H    -1.184378  1.199109  1.183457
H    -0.301680  0.252285  -0.037233
N    -0.891093  -1.061270  2.672839
C    -2.017351  -1.812990  2.086518
C    -1.379670  -3.071360  1.419243
O    -0.213227  -2.980088  0.917830
H    -0.468806  -1.568709  3.452799
H    -2.621188  -2.136263  2.945446
C    -2.915904  -0.988121  1.128420
C    -4.307987  -1.570744  0.809572
C    -5.424070  -1.327097  1.839358
N    -5.962781  0.036143  1.725109
C    -6.867019  0.585936  2.567295
N    -7.251641  1.852345  2.380834
N    -7.344255  -0.111988  3.603722
H    -2.387899  -0.836033  0.179143
H    -3.036007  0.003632  1.587141
H    -4.251875  -2.648871  0.619099
H    -4.633127  -1.153500  -0.155725
H    -5.059572  -1.466624  2.869446
H    -6.223124  -2.065610  1.662408
H    -5.904033  0.464989  0.805486
H    -8.055958  2.237760  2.864848
H    -6.775281  2.466235  1.730330
H    -7.929889  0.333528  4.303008
H    -7.323047  -1.124090  3.616706
N    -2.016108  -4.236792  1.394712
C    -3.264843  -4.670750  2.027377
H    -1.511368  -4.969048  0.891980
H    -3.067599  -5.583955  2.601644
H    -4.021061  -4.897386  1.265620
H    -3.647095  -3.908546  2.710089
Ba    2.284788  -2.575502  1.098057
