37
Energy: -246334.041781 eV PBE+vdW (tier 2 basis)
C    0.317319  -0.363146  1.137473
C    -0.157246  0.504336  2.254480
O    0.724230  1.047998  3.043044
H    1.004933  0.206997  0.498076
H    -0.493341  -0.755751  0.518415
H    0.884028  -1.208829  1.551419
N    -1.428975  0.744438  2.475569
C    -2.653499  0.330955  1.766897
C    -3.637560  1.473185  2.161886
O    -3.491065  2.000163  3.267378
H    -1.714339  1.363092  3.261546
H    -2.472422  0.309543  0.683616
C    -3.120728  -1.045195  2.314357
C    -4.512621  -1.572100  1.921392
C    -4.683508  -1.987958  0.447551
N    -5.734791  -2.991823  0.234328
C    -7.012759  -2.769515  -0.116934
N    -7.740358  -3.765769  -0.631340
N    -7.555884  -1.549230  0.021723
H    -3.099697  -0.970789  3.411001
H    -2.358645  -1.791820  2.039836
H    -5.287418  -0.848039  2.215354
H    -4.686134  -2.461082  2.544504
H    -3.755661  -2.444204  0.074503
H    -4.896229  -1.132466  -0.208985
H    -5.456349  -3.965365  0.311086
H    -8.752722  -3.714834  -0.674059
H    -7.309016  -4.606455  -0.999895
H    -8.464872  -1.345421  -0.379620
H    -7.215758  -0.908517  0.727033
N    -4.607613  1.785804  1.284965
C    -5.567949  2.864186  1.545316
H    -4.527846  1.441103  0.334013
H    -6.428315  2.743900  0.880297
H    -5.114973  3.848536  1.369666
H    -5.897729  2.811696  2.587404
Ba    2.405053  2.011404  4.326693
