37
Energy: -246334.557836 eV PBE+vdW (tier 2 basis)
C    0.229171  1.828707  1.444779
C    0.104039  0.358213  1.681391
O    1.129171  -0.382822  1.699169
H    0.910547  2.260589  2.190355
H    -0.723972  2.366492  1.478334
H    0.694432  1.988516  0.461398
N    -1.131274  -0.142750  1.875408
C    -1.551905  -1.555557  2.016889
C    -0.872421  -2.209926  3.244882
O    0.272565  -2.744041  3.150091
H    -1.886574  0.536492  1.838888
H    -2.624931  -1.490136  2.235969
C    -1.369208  -2.375833  0.722575
C    -2.224767  -3.661378  0.639448
C    -3.587044  -3.451344  -0.042402
N    -4.288865  -4.731904  -0.181917
C    -5.575081  -4.887365  -0.558857
N    -6.138107  -6.097976  -0.492742
N    -6.296362  -3.835085  -0.963927
H    -0.310454  -2.640051  0.613043
H    -1.601497  -1.713833  -0.123818
H    -2.371158  -4.105752  1.636661
H    -1.661169  -4.403653  0.055612
H    -3.421086  -2.995084  -1.033233
H    -4.224702  -2.769783  0.541995
H    -3.722471  -5.574741  -0.164341
H    -7.021491  -6.296036  -0.951001
H    -5.707939  -6.861545  0.016416
H    -7.294438  -3.923864  -1.125251
H    -5.855580  -2.998158  -1.324912
N    -1.518017  -2.206525  4.405574
C    -2.821668  -1.616334  4.738626
H    -1.022312  -2.672158  5.166284
H    -2.973311  -1.726294  5.816156
H    -3.640179  -2.139025  4.228041
H    -2.846453  -0.546084  4.502938
Ba    2.588510  -2.147972  2.496478
