37
Energy: -246332.984163 eV PBE+vdW (tier 2 basis)
C    -0.459343  -0.357518  0.062843
C    -0.299973  -0.304065  1.551412
O    0.799686  -0.328123  2.118392
H    0.061307  0.499804  -0.384202
H    -1.502162  -0.359726  -0.272044
H    0.038504  -1.261998  -0.311654
N    -1.456454  -0.234857  2.303827
C    -1.358813  -0.148049  3.757654
C    -2.473595  -1.006646  4.362727
O    -3.668132  -0.556397  4.547525
H    -2.334398  -0.058523  1.827449
H    -0.411952  -0.662401  3.984651
C    -1.258811  1.288553  4.330558
C    -0.261826  1.430954  5.508578
C    1.106148  2.040757  5.165522
N    1.874581  1.230930  4.221075
C    3.181245  1.390102  3.944408
N    3.952975  2.215764  4.659909
N    3.706824  0.686671  2.932503
H    -2.256712  1.632132  4.638471
H    -0.969801  1.950781  3.502883
H    -0.111958  0.459199  6.005674
H    -0.694407  2.090944  6.271441
H    1.664589  2.124903  6.109601
H    0.965543  3.062142  4.771741
H    1.365994  0.662288  3.531143
H    4.943655  2.309814  4.468320
H    3.586634  2.758961  5.429855
H    3.113660  0.099829  2.354381
H    4.689663  0.744249  2.695670
N    -2.176564  -2.255818  4.666790
C    -3.107712  -3.259920  5.181228
H    -1.218841  -2.556267  4.493358
H    -2.569264  -4.203395  5.307033
H    -3.929128  -3.423861  4.471236
H    -3.498220  -2.956587  6.161738
Ba    -5.894354  0.029200  5.087163
