37
Energy: -246333.911714 eV PBE+vdW (tier 2 basis)
C    -0.549187  0.961529  2.304393
C    0.203685  -0.097337  1.568862
O    1.472500  0.029420  1.350712
H    -1.209377  1.508074  1.612342
H    0.139605  1.677723  2.759406
H    -1.188778  0.533873  3.087755
N    -0.428236  -1.177771  1.122278
C    -1.890842  -1.433975  1.163604
C    -2.421069  -1.913959  2.535213
O    -3.616660  -1.722434  2.781821
H    0.138601  -1.847479  0.599776
H    -2.397441  -0.477520  0.977850
C    -2.250782  -2.418891  0.018682
C    -3.686008  -2.348997  -0.560883
C    -4.746501  -3.350870  -0.066969
N    -5.484761  -2.898251  1.109760
C    -6.758787  -3.201811  1.385258
N    -7.380560  -2.566990  2.391448
N    -7.433593  -4.110823  0.667170
H    -2.009310  -3.448178  0.327685
H    -1.571518  -2.178725  -0.813218
H    -3.583045  -2.546925  -1.635922
H    -4.086047  -1.326881  -0.490987
H    -4.280882  -4.334100  0.118337
H    -5.468520  -3.483964  -0.884227
H    -4.947481  -2.378018  1.816830
H    -8.266553  -2.894293  2.757111
H    -6.976723  -1.742392  2.817296
H    -8.436517  -4.216170  0.768032
H    -6.961086  -4.784322  0.078728
N    -1.569339  -2.523664  3.377581
C    -1.987769  -3.084975  4.665053
H    -0.620628  -2.705231  3.069749
H    -1.164883  -3.000524  5.381680
H    -2.267790  -4.141290  4.561143
H    -2.850503  -2.522185  5.032217
Ba    3.687915  0.801854  1.081523
