37
Energy: -246334.653975 eV PBE+vdW (tier 2 basis)
C    0.103219  -0.890014  -0.538109
C    -0.325662  -0.876878  0.891637
O    0.514997  -0.754745  1.829608
H    -0.725838  -1.001910  -1.244574
H    0.821275  -1.706165  -0.696779
H    0.636490  0.046139  -0.756440
N    -1.639357  -0.994813  1.170233
C    -2.214911  -0.904562  2.520675
C    -1.807415  -2.140749  3.367930
O    -0.837104  -1.995070  4.175661
H    -2.274810  -1.104180  0.383811
H    -1.695966  -0.079582  3.031238
C    -3.721020  -0.564869  2.469710
C    -3.993249  0.906235  2.099160
C    -5.462603  1.231558  1.767352
N    -6.387896  1.259052  2.908529
C    -7.027294  2.351640  3.380993
N    -8.162546  2.200647  4.071642
N    -6.532814  3.578212  3.183130
H    -4.150503  -0.795674  3.455941
H    -4.228692  -1.225164  1.750530
H    -3.415101  1.174792  1.201101
H    -3.636838  1.566785  2.904399
H    -5.857295  0.506215  1.040178
H    -5.515031  2.206592  1.267117
H    -6.772664  0.370909  3.213896
H    -8.555430  2.963712  4.613249
H    -8.722952  1.358545  4.001957
H    -7.096591  4.403081  3.359462
H    -5.577969  3.731852  2.887236
N    -2.403937  -3.321532  3.264110
C    -3.478000  -3.778298  2.377257
H    -2.038834  -4.019774  3.913418
H    -3.381467  -3.340208  1.379434
H    -4.465424  -3.553236  2.798468
H    -3.388799  -4.864277  2.274345
Ba    1.519033  -1.259264  4.008494
