37
Energy: -246334.135559 eV PBE+vdW (tier 2 basis)
C    0.401311  1.112321  -0.341427
C    0.206952  1.017418  1.135180
O    1.229313  0.709756  1.880803
H    0.850201  0.179856  -0.708996
H    1.108430  1.923759  -0.565561
H    -0.524737  1.296580  -0.891782
N    -0.951718  1.235653  1.712716
C    -2.222783  1.746816  1.175412
C    -2.798613  2.502332  2.417171
O    -2.487494  2.071227  3.534049
H    -1.042558  1.198958  2.750210
H    -2.025385  2.435745  0.342551
C    -3.154071  0.591988  0.721940
C    -4.454032  1.080313  0.058819
C    -5.329633  -0.016852  -0.566741
N    -6.124752  -0.753403  0.424715
C    -7.292881  -1.373802  0.172779
N    -8.040123  -1.816247  1.193173
N    -7.720348  -1.540410  -1.083221
H    -3.355519  -0.039829  1.601272
H    -2.594997  -0.031812  0.007139
H    -4.197917  1.767047  -0.762741
H    -5.065433  1.659900  0.765496
H    -4.707173  -0.714278  -1.151998
H    -6.033949  0.464449  -1.258903
H    -5.736917  -0.884423  1.352775
H    -7.908292  -1.473600  2.137182
H    -8.817855  -2.448635  1.039891
H    -8.669702  -1.841585  -1.275403
H    -7.093764  -1.474796  -1.875682
N    -3.602877  3.546643  2.179683
C    -4.227367  4.342896  3.239088
H    -3.718827  3.864349  1.222401
H    -5.301021  4.445458  3.045105
H    -3.774971  5.341218  3.282957
H    -4.073250  3.833958  4.193924
Ba    3.199123  0.352821  3.057078
