37
Energy: -246334.600864 eV PBE+vdW (tier 2 basis)
C    -0.527839  0.251676  -0.133535
C    -0.348254  -0.159712  1.290300
O    0.791964  -0.458592  1.749227
H    -0.149161  -0.541016  -0.793086
H    0.087449  1.142235  -0.325511
H    -1.567145  0.470766  -0.399581
N    -1.433362  -0.202897  2.090276
C    -1.382897  -0.502666  3.527983
C    -1.016883  -1.994223  3.764412
O    0.194029  -2.253204  4.049075
H    -2.330721  0.034656  1.676037
H    -0.502147  0.023722  3.924783
C    -2.617663  0.029338  4.287175
C    -2.604836  1.560518  4.467280
C    -3.590878  2.098914  5.522734
N    -5.010923  2.101792  5.141993
C    -5.782239  3.200658  4.983276
N    -7.107845  3.099508  5.128920
N    -5.241523  4.381022  4.663679
H    -2.613106  -0.450254  5.278413
H    -3.544800  -0.295074  3.793033
H    -2.773670  2.070152  3.506448
H    -1.604185  1.868745  4.808658
H    -3.311406  3.126345  5.786823
H    -3.498586  1.519423  6.453510
H    -5.523391  1.235188  5.270862
H    -7.730235  3.838787  4.818775
H    -7.532704  2.335601  5.642649
H    -5.781127  5.237672  4.730674
H    -4.296413  4.462896  4.312830
N    -1.893621  -2.984705  3.662623
C    -3.311124  -2.973899  3.292015
H    -1.500416  -3.900662  3.884361
H    -3.948814  -2.807099  4.168981
H    -3.556147  -3.953864  2.870289
H    -3.513430  -2.220790  2.524878
Ba    2.407047  -1.766960  3.061738
