37
Energy: -246335.089942 eV PBE+vdW (tier 2 basis)
C    -1.689618  -0.984622  -0.471566
C    -1.077151  -0.751202  0.869961
O    0.151787  -0.476325  0.992189
H    -1.156208  -1.799411  -0.979802
H    -1.549075  -0.084190  -1.086485
H    -2.756679  -1.227081  -0.431513
N    -1.865727  -0.833934  1.960421
C    -1.418913  -0.545094  3.331227
C    -0.428553  -1.637061  3.823275
O    0.811543  -1.367115  3.753139
H    -2.842507  -1.075587  1.814113
H    -0.782817  0.350540  3.274024
C    -2.602453  -0.234801  4.270736
C    -3.211950  1.165548  4.067310
C    -4.383445  1.409547  5.033275
N    -4.960418  2.742965  4.839137
C    -5.700772  3.415937  5.744557
N    -6.096700  2.825508  6.877653
N    -6.015554  4.695285  5.514104
H    -2.235547  -0.325293  5.304177
H    -3.384929  -0.999487  4.159708
H    -3.566683  1.277558  3.029803
H    -2.444018  1.936579  4.230133
H    -4.025369  1.342039  6.071196
H    -5.154536  0.633601  4.888676
H    -4.946744  3.127045  3.899265
H    -6.516457  3.368072  7.625556
H    -6.157178  1.818412  6.961806
H    -6.731786  5.168135  6.055145
H    -5.538350  5.244844  4.809008
N    -0.817719  -2.819242  4.282260
C    -2.154291  -3.409431  4.407130
H    -0.044293  -3.405856  4.598931
H    -2.629275  -3.122186  5.353197
H    -2.041807  -4.498044  4.395587
H    -2.790321  -3.131052  3.561678
Ba    2.386516  -0.638600  1.997991
