37
Energy: -246334.060344 eV PBE+vdW (tier 2 basis)
C    -2.261181  0.283526  0.517274
C    -1.660440  0.628704  1.846923
O    -0.731612  1.448970  1.961485
H    -2.957895  -0.561171  0.545863
H    -1.452038  0.068677  -0.191614
H    -2.786920  1.166655  0.127800
N    -2.195956  0.017566  2.951085
C    -1.645174  0.084800  4.311190
C    -1.805840  1.488160  4.932676
O    -2.421433  1.637279  6.066632
H    -2.966757  -0.625161  2.803317
H    -2.274713  -0.580941  4.915269
C    -0.169793  -0.395901  4.429509
C    0.079709  -1.789605  3.832948
C    1.535638  -2.239595  4.051984
N    1.814389  -3.576143  3.516028
C    2.683324  -3.899669  2.539889
N    3.122375  -2.983440  1.667926
N    3.110351  -5.163663  2.435162
H    0.086452  -0.393850  5.500905
H    0.490602  0.336219  3.945930
H    -0.140915  -1.786956  2.755841
H    -0.597873  -2.528269  4.290161
H    1.771583  -2.258584  5.126588
H    2.240939  -1.529181  3.601316
H    1.409456  -4.359705  4.019897
H    3.911123  -3.178097  1.061248
H    2.652732  -2.097214  1.540967
H    3.025762  -5.821288  3.201903
H    3.575433  -5.496149  1.597298
N    -1.289882  2.501275  4.287124
C    -1.349445  3.891565  4.715651
H    -0.884026  2.236928  3.333106
H    -0.809248  4.504452  3.988540
H    -0.868332  4.019747  5.695565
H    -2.389247  4.249090  4.752950
Ba    -3.591243  2.394688  7.931469
