37
Energy: -246333.800137 eV PBE+vdW (tier 2 basis)
C    -0.146026  0.415743  0.336284
C    -0.451896  0.216565  1.781811
O    0.465526  0.533498  2.640946
H    0.828659  -0.020115  0.095113
H    -0.096113  1.500981  0.151634
H    -0.889355  -0.016091  -0.332400
N    -1.683370  -0.034599  2.257109
C    -2.622959  -1.033216  1.713767
C    -1.750373  -2.236618  1.204191
O    -0.517699  -2.171660  1.287873
H    -1.718686  0.035009  3.272599
H    -3.141248  -1.406925  2.610114
C    -3.768691  -0.529946  0.798900
C    -3.457140  -0.114495  -0.645310
C    -4.685462  -0.040193  -1.565210
N    -5.615537  1.036731  -1.197476
C    -6.884359  1.139370  -1.645661
N    -7.671743  2.115514  -1.177458
N    -7.369962  0.257977  -2.525920
H    -4.269024  0.286620  1.339071
H    -4.512436  -1.342792  0.777463
H    -2.788939  -0.851059  -1.116684
H    -2.925851  0.849311  -0.674051
H    -5.235927  -0.991754  -1.519078
H    -4.335286  0.098770  -2.600913
H    -5.210391  1.887456  -0.818267
H    -8.554524  2.340824  -1.623122
H    -7.425857  2.650251  -0.353235
H    -8.359276  0.237532  -2.750241
H    -6.761697  -0.302850  -3.109852
N    -2.417635  -3.297431  0.731346
C    -1.753773  -4.537056  0.317409
H    -3.429963  -3.311262  0.796567
H    -2.383497  -5.049329  -0.416051
H    -1.588501  -5.200576  1.176174
H    -0.788635  -4.293877  -0.135948
Ba    2.508825  0.525709  3.750403
