37
Energy: -246335.066497 eV PBE+vdW (tier 2 basis)
C    -2.932371  0.048738  -0.326892
C    -2.357169  -0.224180  1.028280
O    -1.863805  -1.356658  1.298237
H    -3.733844  -0.677692  -0.521874
H    -2.162132  -0.120877  -1.091485
H    -3.330949  1.061635  -0.446047
N    -2.390720  0.780467  1.926194
C    -2.012791  0.806480  3.355938
C    -0.510290  0.549157  3.588611
O    0.015833  -0.578989  3.342459
H    -2.787465  1.647963  1.576246
H    -2.203519  1.844823  3.651882
C    -2.888032  -0.089411  4.266944
C    -4.335432  0.421904  4.387056
C    -5.147637  -0.341209  5.445400
N    -6.488680  0.238878  5.576474
C    -7.548202  -0.351305  6.166365
N    -8.756303  0.212457  6.063041
N    -7.404555  -1.507139  6.825695
H    -2.415973  -0.098582  5.261944
H    -2.869054  -1.125479  3.900842
H    -4.849927  0.352222  3.417260
H    -4.312809  1.489003  4.664840
H    -4.618431  -0.305084  6.412935
H    -5.255787  -1.396810  5.154848
H    -6.593726  1.223646  5.351896
H    -9.527706  -0.078696  6.654263
H    -8.951076  0.939557  5.384338
H    -8.216885  -2.022667  7.148365
H    -6.508522  -1.799825  7.194889
N    0.228758  1.525348  4.099774
C    -0.145127  2.902355  4.454976
H    1.199383  1.262692  4.276130
H    -0.582316  3.429934  3.599301
H    0.768106  3.431179  4.742247
H    -0.831216  2.921549  5.310662
Ba    0.120368  -2.605389  1.976964
