37
Energy: -246335.005912 eV PBE+vdW (tier 2 basis)
C    -1.273440  1.582022  0.951140
C    -0.830678  0.669201  2.049354
O    -0.231300  -0.413667  1.785164
H    -1.991987  1.042251  0.317050
H    -0.415323  1.831839  0.313133
H    -1.738659  2.508269  1.304002
N    -1.095065  1.042158  3.315724
C    -0.898569  0.297222  4.581575
C    0.603736  0.032350  4.853144
O    1.231428  -0.887879  4.255088
H    -1.565907  1.937917  3.411612
H    -1.247572  0.999205  5.351567
C    -1.757170  -0.985170  4.668626
C    -2.027212  -1.502044  6.100315
C    -3.288517  -0.901505  6.745452
N    -3.525053  -1.486434  8.068633
C    -4.724986  -1.649186  8.663641
N    -4.818280  -2.421249  9.751487
N    -5.820804  -1.066016  8.164298
H    -1.268677  -1.778428  4.089198
H    -2.708350  -0.782716  4.156017
H    -1.151884  -1.322223  6.746705
H    -2.154018  -2.592110  6.057648
H    -4.158790  -1.131791  6.114168
H    -3.211244  0.196741  6.823418
H    -2.712132  -1.720039  8.630540
H    -4.090016  -3.079181  10.004833
H    -5.639068  -2.396449  10.347611
H    -6.742359  -1.314259  8.509497
H    -5.766044  -0.248786  7.569417
N    1.192893  0.808642  5.754045
C    2.603007  0.721255  6.144762
H    0.644355  1.552618  6.177486
H    2.935657  -0.319018  6.088615
H    2.705725  1.082614  7.172329
H    3.223741  1.343939  5.487081
Ba    1.612562  -1.959094  2.052624
