37
Energy: -246333.860804 eV PBE+vdW (tier 2 basis)
C    -0.390675  -1.631408  -0.141927
C    -0.579077  -2.432443  1.102477
O    0.146631  -3.484799  1.283095
H    -1.155540  -0.864582  -0.288880
H    -0.411199  -2.312981  -1.003020
H    0.589900  -1.137761  -0.117178
N    -1.539615  -2.151073  1.982778
C    -2.021222  -0.787933  2.257318
C    -0.735881  0.075546  2.545768
O    0.354849  -0.495501  2.640765
H    -1.551440  -2.774607  2.790462
H    -2.526656  -0.400488  1.359816
C    -3.005764  -0.828104  3.443434
C    -4.365262  -1.499517  3.142510
C    -5.505343  -0.566313  2.711976
N    -6.049894  0.174514  3.860517
C    -7.003375  1.126086  3.783747
N    -7.395790  1.759938  4.894843
N    -7.527266  1.467308  2.600668
H    -3.160429  0.196406  3.805194
H    -2.506114  -1.346631  4.276360
H    -4.697635  -2.068828  4.023985
H    -4.250099  -2.253993  2.351138
H    -6.297020  -1.177426  2.248864
H    -5.158044  0.160812  1.960997
H    -5.918710  -0.249307  4.774610
H    -6.901491  1.654363  5.772935
H    -8.229113  2.338036  4.907473
H    -8.164234  2.253098  2.521555
H    -7.471053  0.850534  1.799619
N    -0.875403  1.408871  2.656766
C    -2.058604  2.243017  2.478052
H    -0.005596  1.887527  2.885593
H    -1.744652  3.212752  2.077401
H    -2.584321  2.420817  3.427219
H    -2.750813  1.799523  1.753120
Ba    2.134918  -4.678544  1.536314
