37
Energy: -246333.830525 eV PBE+vdW (tier 2 basis)
C    -2.981603  1.631199  -0.002122
C    -2.270813  1.122068  1.218168
O    -1.066217  0.908367  1.276246
H    -4.062713  1.443789  -0.002777
H    -2.521750  1.216193  -0.906019
H    -2.843000  2.723252  -0.050435
N    -3.079915  0.873381  2.356148
C    -2.371137  0.873169  3.658975
C    -3.155964  -0.024364  4.618885
O    -3.559517  -1.155473  4.168086
H    -3.948340  1.414419  2.354244
H    -1.440035  0.315266  3.457497
C    -1.981383  2.286490  4.147472
C    -0.699972  2.331980  5.005269
C    0.621220  2.289323  4.222799
N    0.894772  3.553338  3.518295
C    1.540589  3.679340  2.336490
N    2.272790  4.773907  2.106445
N    1.430393  2.740083  1.390017
H    -2.824599  2.756108  4.678184
H    -1.829263  2.918571  3.260539
H    -0.670295  1.498571  5.724353
H    -0.719141  3.240882  5.624422
H    0.630727  1.473174  3.490643
H    1.444256  2.090366  4.925665
H    0.940158  4.376582  4.114883
H    2.601627  5.365813  2.861830
H    2.576062  5.021988  1.170316
H    2.049400  2.748660  0.587138
H    0.677784  2.055330  1.391530
N    -3.367670  0.341748  5.864157
C    -4.029509  -0.452651  6.904528
H    -3.045656  1.268039  6.138003
H    -4.234098  -1.455558  6.525676
H    -4.967004  0.036260  7.197581
H    -3.372088  -0.514375  7.779802
Ba    -4.006110  -2.282836  2.147227
