37
Energy: -246334.019957 eV PBE+vdW (tier 2 basis)
C    -0.192222  -0.991495  -0.178675
C    -0.146329  -0.333467  1.160607
O    0.966482  -0.253499  1.815502
H    -0.761770  -0.397688  -0.905420
H    -0.691487  -1.970628  -0.101588
H    0.818279  -1.151287  -0.563396
N    -1.254665  0.166454  1.696964
C    -2.630582  0.050199  1.154918
C    -2.968849  1.024344  -0.001821
O    -3.852454  0.680231  -0.791967
H    -1.159915  0.575072  2.628055
H    -2.729496  -0.950384  0.713542
C    -3.634714  0.165885  2.327216
C    -5.097269  -0.176335  1.966264
C    -5.968612  1.038911  1.591684
N    -7.304432  0.659511  1.137174
C    -7.675382  0.463998  -0.141739
N    -8.971964  0.267414  -0.420559
N    -6.773505  0.465250  -1.127112
H    -3.573412  1.175851  2.766584
H    -3.300220  -0.536675  3.104217
H    -5.554376  -0.669974  2.834334
H    -5.119713  -0.913358  1.151228
H    -5.504747  1.653608  0.810667
H    -6.100422  1.692404  2.464675
H    -8.010145  0.495994  1.847737
H    -9.276085  -0.020166  -1.343055
H    -9.697575  0.446587  0.263172
H    -5.765046  0.489392  -0.960773
H    -7.079445  0.478512  -2.092750
N    -2.308230  2.194408  -0.068068
C    -2.599936  3.216906  -1.076101
H    -1.646770  2.427481  0.664176
H    -1.684136  3.769909  -1.306544
H    -3.362223  3.920497  -0.716517
H    -2.967043  2.726497  -1.982283
Ba    3.162734  -0.511405  2.640365
