37
Energy: -246335.315828 eV PBE+vdW (tier 2 basis)
C    1.282087  -0.535604  -0.217402
C    0.795909  0.216667  0.977233
O    0.745693  1.481738  0.978453
H    0.609078  -0.321271  -1.060816
H    1.326573  -1.619294  -0.067115
H    2.276214  -0.169682  -0.505758
N    0.398272  -0.485813  2.054655
C    -0.251742  0.066401  3.257904
C    0.804669  0.791980  4.131090
O    1.068864  2.005533  3.886249
H    0.474494  -1.498647  1.992751
H    -0.931348  0.864068  2.921653
C    -1.081175  -1.050570  3.923396
C    -2.018511  -0.598203  5.057050
C    -2.916702  -1.758169  5.521378
N    -3.838109  -1.327964  6.576692
C    -4.482050  -2.149908  7.432475
N    -5.168428  -1.626032  8.453727
N    -4.414013  -3.477656  7.285440
H    -0.419383  -1.860553  4.277503
H    -1.686749  -1.499355  3.120481
H    -2.652768  0.226364  4.693464
H    -1.448594  -0.212852  5.915474
H    -2.296181  -2.572635  5.923790
H    -3.478786  -2.154410  4.658542
H    -4.169667  -0.368566  6.545436
H    -5.825320  -2.183537  8.989550
H    -5.044421  -0.662737  8.742992
H    -4.764868  -4.097667  8.008369
H    -4.188609  -3.905082  6.395619
N    1.422826  0.118431  5.089475
C    2.479079  0.661479  5.949757
H    1.182871  -0.861382  5.213308
H    2.299405  1.726392  6.121432
H    3.463593  0.525181  5.483240
H    2.463770  0.129624  6.905629
Ba    1.300022  3.613725  2.003888
