37
Energy: -246334.277898 eV PBE+vdW (tier 2 basis)
C    -1.043889  -1.548004  1.965898
C    -0.263290  -0.627783  2.846800
O    0.900535  -0.929263  3.233868
H    -0.733315  -1.426689  0.915861
H    -2.125612  -1.391429  2.024328
H    -0.806729  -2.581387  2.246689
N    -0.803069  0.558965  3.245726
C    -1.470975  1.455255  2.301177
C    -0.375528  1.972714  1.301940
O    0.833010  1.604655  1.434882
H    -0.203088  1.048336  3.912114
H    -2.180899  0.860847  1.705437
C    -2.242397  2.585853  3.016114
C    -3.587088  2.192939  3.671767
C    -3.504772  1.682323  5.122972
N    -4.819441  1.378511  5.696619
C    -5.525437  2.135764  6.559886
N    -6.533769  1.583676  7.242312
N    -5.224022  3.426192  6.753785
H    -2.458695  3.365002  2.273439
H    -1.574348  3.073135  3.745816
H    -4.102359  1.444549  3.050086
H    -4.235125  3.080990  3.651337
H    -3.009036  2.417381  5.772770
H    -2.908280  0.761756  5.185808
H    -5.229071  0.480099  5.460356
H    -6.632260  0.578619  7.333544
H    -7.223667  2.154493  7.719669
H    -5.640510  3.945335  7.519518
H    -4.704432  3.962550  6.071900
N    -0.755979  2.762413  0.313223
C    0.139772  3.308444  -0.714736
H    -1.742417  2.996100  0.233618
H    -0.416697  4.043412  -1.302065
H    0.490017  2.510999  -1.381842
H    0.997587  3.800692  -0.244093
Ba    2.813608  0.241654  2.158349
