37
Energy: -246333.734218 eV PBE+vdW (tier 2 basis)
C    -3.090684  -0.688538  0.607088
C    -1.814642  0.082913  0.520049
O    -1.603841  0.888511  -0.474721
H    -2.896081  -1.770482  0.550016
H    -3.761770  -0.413586  -0.210330
H    -3.603217  -0.518103  1.564710
N    -0.884553  -0.049940  1.456380
C    -0.993520  -0.911240  2.653716
C    -1.963059  -0.360593  3.749405
O    -2.808903  -1.139608  4.172088
H    -0.046405  0.521649  1.348576
H    -1.497094  -1.832267  2.336054
C    0.392948  -1.300279  3.206507
C    0.264573  -2.276370  4.389715
C    1.621041  -2.737804  4.935751
N    1.412193  -3.627558  6.083864
C    2.310098  -4.492080  6.587804
N    1.923844  -5.385668  7.506755
N    3.579108  -4.482318  6.160749
H    0.951380  -0.404552  3.519643
H    0.967546  -1.771136  2.393490
H    -0.319487  -3.156585  4.082642
H    -0.302523  -1.794371  5.201009
H    2.227062  -1.865705  5.234878
H    2.175861  -3.292612  4.164456
H    0.548869  -3.513631  6.606614
H    0.945211  -5.583509  7.679715
H    2.600390  -5.904447  8.055517
H    4.221907  -5.220342  6.426171
H    3.978729  -3.672975  5.703101
N    -1.826463  0.908269  4.213639
C    -0.892560  1.959276  3.833537
H    -2.519691  1.139503  4.923070
H    -0.885702  2.716576  4.623893
H    -1.181769  2.461918  2.897638
H    0.135972  1.587511  3.745494
Ba    -1.813918  2.079644  -2.481792
