37
Energy: -246333.934727 eV PBE+vdW (tier 2 basis)
C    0.459474  -1.060080  0.944060
C    -0.021830  0.198109  1.599867
O    0.327000  1.345278  1.108161
H    1.558675  -1.083106  0.949672
H    0.121275  -1.086166  -0.101586
H    0.101040  -1.968376  1.439594
N    -0.788056  0.088080  2.666895
C    -1.408166  1.108296  3.534248
C    -1.254756  0.510283  4.956762
O    -1.764555  -0.600432  5.159800
H    -1.006048  -0.861128  2.986439
H    -0.870482  2.056869  3.407386
C    -2.903221  1.238993  3.151448
C    -3.801916  2.110421  4.047279
C    -4.135911  1.589053  5.460411
N    -4.599741  0.200853  5.518946
C    -5.844052  -0.218626  5.800366
N    -6.035725  -1.486009  6.191431
N    -6.898013  0.599801  5.688173
H    -3.319312  0.222130  3.095828
H    -2.945986  1.640283  2.128948
H    -4.739690  2.252839  3.490445
H    -3.375212  3.118302  4.167827
H    -4.895204  2.239631  5.912952
H    -3.264261  1.660447  6.123352
H    -3.858080  -0.501397  5.499043
H    -6.963359  -1.893455  6.226115
H    -5.270904  -2.053848  6.536324
H    -7.799719  0.347570  6.076837
H    -6.842374  1.481130  5.195422
N    -0.577575  1.230949  5.862380
C    -0.360938  0.795515  7.243613
H    -0.209332  2.136457  5.589924
H    0.687215  0.954768  7.518917
H    -0.598491  -0.269179  7.315804
H    -0.999268  1.361535  7.934733
Ba    1.449715  2.733474  -0.427785
