37
Energy: -246333.213337 eV PBE+vdW (tier 2 basis)
C    -0.079172  1.623871  -0.064288
C    -0.090828  1.192322  1.363883
O    0.963745  1.338857  2.100878
H    -0.635286  2.568694  -0.172201
H    -0.575579  0.897044  -0.719911
H    0.944683  1.782523  -0.411959
N    -1.188024  0.675451  1.903060
C    -2.478147  0.398685  1.228282
C    -3.265247  1.666584  0.799114
O    -3.680003  1.689615  -0.367230
H    -1.131476  0.432566  2.892891
H    -2.235253  -0.058983  0.262066
C    -3.285883  -0.630799  2.065203
C    -4.827040  -0.573732  2.050379
C    -5.603753  -0.652945  0.726768
N    -5.226819  -1.770669  -0.149563
C    -5.040525  -1.672023  -1.483512
N    -5.243666  -2.752459  -2.251121
N    -4.612533  -0.532662  -2.035419
H    -2.998947  -0.527437  3.124016
H    -2.947029  -1.631201  1.763000
H    -5.177919  0.342242  2.549175
H    -5.157501  -1.394645  2.703924
H    -5.508537  0.272303  0.153751
H    -6.671291  -0.749756  0.974753
H    -5.448108  -2.702875  0.190866
H    -4.945352  -2.772944  -3.219788
H    -5.814063  -3.528415  -1.934699
H    -4.704383  -0.389526  -3.034688
H    -4.291691  0.263248  -1.471125
N    -3.491848  2.672601  1.664059
C    -3.174198  2.764479  3.085327
H    -4.019096  3.443371  1.255041
H    -3.851530  3.491997  3.543695
H    -2.145084  3.110603  3.258249
H    -3.334821  1.809580  3.599664
Ba    3.126609  1.694591  2.970343
