37
Energy: -246335.104084 eV PBE+vdW (tier 2 basis)
C    -1.905766  3.272389  3.515645
C    -2.031042  1.916846  2.899621
O    -2.697386  1.742020  1.839602
H    -2.903233  3.696406  3.689476
H    -1.402218  3.934560  2.795952
H    -1.343892  3.278485  4.455513
N    -1.401207  0.886520  3.499116
C    -1.263535  -0.472032  2.956919
C    -2.554246  -1.295227  3.213217
O    -3.585501  -1.005451  2.538151
H    -0.910743  1.097379  4.363165
H    -1.260015  -0.360851  1.861662
C    0.106720  -1.097002  3.319441
C    0.612953  -1.064365  4.777869
C    1.989372  -1.750338  4.871587
N    2.540711  -1.679741  6.226802
C    3.852151  -1.765598  6.542196
N    4.761086  -2.072215  5.610624
N    4.240405  -1.511903  7.796087
H    0.846711  -0.573581  2.696162
H    0.098002  -2.133101  2.947402
H    -0.084825  -1.556726  5.476032
H    0.726248  -0.028786  5.135205
H    2.690447  -1.241962  4.193844
H    1.903681  -2.799798  4.542580
H    1.892331  -1.762914  7.004053
H    5.753149  -1.979048  5.804725
H    4.512797  -2.566560  4.762457
H    3.636883  -1.037896  8.458227
H    5.167811  -1.763691  8.122182
N    -2.548319  -2.282891  4.095032
C    -3.687112  -3.151830  4.407700
H    -1.682636  -2.464692  4.592830
H    -3.355530  -4.196018  4.404895
H    -4.463732  -3.012589  3.653080
H    -4.089669  -2.903537  5.397874
Ba    -4.583852  0.533739  0.869074
