37
Energy: -246333.266229 eV PBE+vdW (tier 2 basis)
C    -1.552559  -1.100058  -1.027044
C    -0.471211  -1.254398  -0.008614
O    0.710555  -1.654504  -0.362961
H    -1.942868  -0.071832  -1.041734
H    -2.409647  -1.750459  -0.795896
H    -1.182622  -1.351741  -2.023953
N    -0.711554  -0.981505  1.267007
C    -2.013304  -0.538787  1.812194
C    -2.424152  0.920828  1.448317
O    -3.594877  1.099857  1.136585
H    0.073378  -1.083440  1.910318
H    -2.779801  -1.142886  1.310268
C    -2.135809  -0.787371  3.334808
C    -3.618568  -0.940262  3.731564
C    -3.906121  -1.036232  5.234773
N    -3.986038  0.292130  5.863168
C    -4.139618  0.498798  7.186870
N    -4.221419  1.749895  7.657345
N    -4.172181  -0.533315  8.036487
H    -1.658788  0.030062  3.896080
H    -1.600057  -1.714161  3.594149
H    -4.007775  -1.859936  3.272430
H    -4.218642  -0.127236  3.293313
H    -3.122951  -1.617772  5.744525
H    -4.863253  -1.566300  5.366114
H    -4.278603  1.054181  5.257783
H    -4.507387  1.938133  8.611623
H    -4.051535  2.553443  7.065234
H    -4.173666  -0.384566  9.039670
H    -4.345748  -1.478298  7.717903
N    -1.513902  1.928282  1.519132
C    -0.131733  1.921069  1.979135
H    -1.910869  2.828598  1.256948
H    0.149495  2.945987  2.241668
H    0.570029  1.575312  1.205192
H    -0.001393  1.314850  2.885354
Ba    2.517861  -2.501587  -1.595968
