37
Energy: -246334.990567 eV PBE+vdW (tier 2 basis)
C    0.267302  1.982110  1.518500
C    0.047637  0.522413  1.755062
O    0.975883  -0.311764  1.542578
H    0.524511  2.131580  0.459916
H    1.132448  2.320305  2.104652
H    -0.597431  2.606824  1.765023
N    -1.162170  0.136652  2.200560
C    -1.707554  -1.224898  2.404164
C    -0.864919  -2.029949  3.418345
O    0.183281  -2.648667  3.060456
H    -1.833096  0.889314  2.332250
H    -2.682960  -1.043133  2.871816
C    -1.974531  -1.975407  1.080490
C    -2.980483  -3.131475  1.236254
C    -3.445570  -3.677707  -0.124041
N    -4.431163  -4.749392  0.046431
C    -5.394810  -5.084277  -0.836590
N    -6.355740  -5.937776  -0.466685
N    -5.411640  -4.553962  -2.064714
H    -1.029887  -2.333364  0.647694
H    -2.378336  -1.230064  0.379601
H    -3.865799  -2.779655  1.788439
H    -2.534803  -3.947155  1.828531
H    -2.581624  -4.040230  -0.706071
H    -3.922352  -2.868943  -0.696290
H    -4.302082  -5.384194  0.828551
H    -6.965326  -6.374316  -1.150283
H    -6.530154  -6.158213  0.507090
H    -6.217525  -4.673361  -2.669874
H    -4.577393  -4.171911  -2.492203
N    -1.272326  -2.077236  4.681413
C    -2.425149  -1.418001  5.312894
H    -0.689057  -2.650948  5.291286
H    -3.372976  -1.826988  4.941584
H    -2.393835  -0.332510  5.164141
H    -2.372482  -1.611544  6.388039
Ba    2.398111  -2.199157  2.052995
