37
Energy: -246333.859312 eV PBE+vdW (tier 2 basis)
C    1.165029  1.626509  2.080561
C    0.420631  0.639426  2.910956
O    0.722873  0.516105  4.167862
H    0.964697  1.536270  1.008974
H    2.242287  1.501452  2.251273
H    0.895549  2.640757  2.411919
N    -0.551213  -0.121886  2.425746
C    -1.180105  -0.165040  1.069982
C    -0.137805  -0.539218  -0.028959
O    0.309428  0.338390  -0.778830
H    -0.981128  -0.739601  3.113629
H    -1.898885  -0.991323  1.156646
C    -1.947696  1.125845  0.733509
C    -3.090051  0.960920  -0.288909
C    -2.728865  0.523450  -1.718153
N    -1.813746  1.422130  -2.422988
C    -2.116342  2.224986  -3.453592
N    -1.126714  2.720552  -4.211274
N    -3.383886  2.552349  -3.736917
H    -1.237756  1.890703  0.391048
H    -2.399141  1.498948  1.663464
H    -3.618473  1.924602  -0.331606
H    -3.825333  0.235661  0.093583
H    -3.648688  0.416816  -2.307229
H    -2.268167  -0.475157  -1.726012
H    -0.831883  1.328593  -2.156478
H    -1.293704  3.469820  -4.872981
H    -0.204841  2.301359  -4.212216
H    -3.626779  2.989105  -4.618753
H    -4.138257  2.391211  -3.083047
N    0.227734  -1.831145  -0.121922
C    -0.252631  -2.977767  0.647668
H    0.905510  -2.014239  -0.860061
H    0.227764  -3.877709  0.253173
H    -1.337795  -3.114293  0.547880
H    0.014809  -2.900784  1.710397
Ba    1.597919  0.684905  6.340442
