37
Energy: -246334.025127 eV PBE+vdW (tier 2 basis)
C    -0.564872  1.095613  -0.170518
C    0.022368  1.035032  1.201493
O    1.259890  1.388314  1.370398
H    -0.758727  2.146068  -0.436628
H    -1.499402  0.538470  -0.274726
H    0.157975  0.701130  -0.894818
N    -0.683292  0.649133  2.248177
C    -2.106649  0.251366  2.319433
C    -2.562837  0.727137  3.715834
O    -1.885055  0.346911  4.688546
H    -0.217074  0.611059  3.161717
H    -2.652559  0.757080  1.516130
C    -2.244945  -1.284766  2.199588
C    -3.681115  -1.829424  2.304458
C    -4.251124  -2.074184  3.710491
N    -3.582160  -3.167286  4.431441
C    -3.129028  -3.125279  5.701513
N    -3.083629  -4.261011  6.411900
N    -2.708192  -1.980115  6.247278
H    -1.600980  -1.751011  2.960549
H    -1.828924  -1.572434  1.223525
H    -3.719278  -2.779148  1.751345
H    -4.385383  -1.171813  1.772366
H    -5.314698  -2.336745  3.609617
H    -4.217483  -1.181702  4.343239
H    -3.733247  -4.100041  4.055870
H    -2.549924  -4.324030  7.271571
H    -3.643718  -5.068155  6.161531
H    -2.557421  -1.924688  7.247945
H    -2.437794  -1.165087  5.686147
N    -3.657504  1.490104  3.827976
C    -4.518110  2.032785  2.771109
H    -3.878924  1.754868  4.787151
H    -5.306418  2.621462  3.248710
H    -5.002074  1.238456  2.190247
H    -3.963750  2.701661  2.100546
Ba    3.458340  2.182004  1.205390
