37
Energy: -246334.619942 eV PBE+vdW (tier 2 basis)
C    0.236908  0.807578  1.026552
C    -0.035556  -0.540336  1.616660
O    0.856674  -1.436657  1.610573
H    -0.611987  1.497121  1.080666
H    0.528670  0.679583  -0.025411
H    1.096437  1.262240  1.537883
N    -1.256400  -0.748783  2.147925
C    -1.858820  -1.982024  2.701955
C    -1.096744  -2.504555  3.937250
O    0.021692  -3.092893  3.823572
H    -1.880474  0.052474  2.110283
H    -2.843646  -1.650890  3.052853
C    -2.105092  -3.095313  1.653693
C    -3.091805  -2.646507  0.559724
C    -3.412526  -3.677589  -0.537245
N    -4.421802  -4.666240  -0.139006
C    -5.323134  -5.235627  -0.967468
N    -6.340957  -5.934278  -0.450236
N    -5.219395  -5.096614  -2.292860
H    -2.486219  -3.970453  2.203802
H    -1.151246  -3.402946  1.202076
H    -2.670132  -1.773926  0.040313
H    -4.036968  -2.304875  1.010117
H    -2.491571  -4.183217  -0.872535
H    -3.820299  -3.130823  -1.397420
H    -4.381829  -5.047300  0.800250
H    -6.911247  -6.540468  -1.030677
H    -6.627240  -5.826204  0.515614
H    -5.985533  -5.359082  -2.904684
H    -4.343944  -4.854809  -2.740338
N    -1.650578  -2.357112  5.134413
C    -2.908523  -1.695954  5.511904
H    -1.111251  -2.768730  5.897114
H    -2.930942  -0.655367  5.168176
H    -2.966076  -1.689202  6.604084
H    -3.778817  -2.244538  5.131190
Ba    2.252373  -3.039683  2.801233
