37
Energy: -246333.978906 eV PBE+vdW (tier 2 basis)
C    -1.065779  -0.748097  0.064432
C    -0.594895  0.051521  1.239684
O    0.663622  0.342864  1.349111
H    -0.816910  -0.220154  -0.866950
H    -2.145092  -0.930904  0.076528
H    -0.556016  -1.722038  0.050419
N    -1.485777  0.431045  2.132297
C    -1.321409  1.166675  3.390928
C    -2.439595  0.605531  4.297697
O    -3.504459  0.256609  3.750487
H    -2.459039  0.110639  2.026657
H    -0.325605  0.948342  3.799557
C    -1.455464  2.702860  3.198805
C    -2.753634  3.282167  2.588562
C    -3.890547  3.716458  3.540288
N    -4.920543  2.696760  3.750165
C    -6.208479  2.949399  4.024167
N    -7.092974  1.940391  4.002647
N    -6.631205  4.188618  4.306773
H    -0.616257  3.004193  2.555371
H    -1.258247  3.170364  4.175498
H    -3.163113  2.629325  1.803683
H    -2.449515  4.196808  2.063091
H    -4.380457  4.589502  3.087773
H    -3.468111  4.045328  4.505196
H    -4.618812  1.715052  3.745609
H    -8.032719  2.052603  4.364574
H    -6.860453  1.046574  3.588196
H    -7.620355  4.405620  4.355474
H    -5.989927  4.926287  4.567871
N    -2.208516  0.581803  5.611634
C    -3.179052  0.122380  6.607941
H    -1.298123  0.879202  5.950604
H    -3.564296  0.968887  7.190059
H    -2.695276  -0.586549  7.288656
H    -4.002679  -0.377283  6.091527
Ba    2.943119  0.262159  0.763326
