37
Energy: -246334.617599 eV PBE+vdW (tier 2 basis)
C    0.005874  1.175206  0.588681
C    -0.189245  -0.092880  1.359654
O    0.779401  -0.883190  1.549953
H    -0.899355  1.784462  0.496841
H    0.370550  0.921981  -0.417083
H    0.791965  1.776387  1.065150
N    -1.426252  -0.344848  1.831469
C    -1.970970  -1.540218  2.513016
C    -1.305944  -1.799660  3.879964
O    -0.103169  -2.194348  3.966391
H    -2.111122  0.378917  1.632321
H    -3.013871  -1.266799  2.712719
C    -2.000376  -2.817165  1.637345
C    -2.875093  -2.652815  0.382008
C    -2.964180  -3.895962  -0.525863
N    -3.873884  -4.954628  -0.067820
C    -5.055915  -5.279697  -0.635448
N    -5.571985  -6.496118  -0.427725
N    -5.722880  -4.399619  -1.389462
H    -2.384386  -3.630339  2.273504
H    -0.976160  -3.096121  1.350604
H    -2.466910  -1.841548  -0.238994
H    -3.891719  -2.342190  0.671053
H    -1.971184  -4.349939  -0.657358
H    -3.283041  -3.592517  -1.531001
H    -3.505199  -5.636871  0.586404
H    -6.537050  -6.706076  -0.661313
H    -4.999032  -7.275650  -0.124467
H    -6.502962  -4.693368  -1.968054
H    -5.507359  -3.411403  -1.381831
N    -2.030898  -1.638564  4.979848
C    -3.418629  -1.177200  5.130761
H    -1.538596  -1.875658  5.842079
H    -4.128699  -1.903760  4.717010
H    -3.564113  -0.193275  4.669845
H    -3.621880  -1.078354  6.200837
Ba    2.204265  -2.049174  3.145964
