37
Energy: -246333.392957 eV PBE+vdW (tier 2 basis)
C    0.595096  0.143433  1.557871
C    0.057571  0.037945  2.944177
O    0.872596  0.069464  3.954255
H    0.560483  1.195669  1.231551
H    0.004807  -0.414244  0.821882
H    1.634602  -0.196657  1.527007
N    -1.246353  -0.060656  3.172457
C    -2.317481  -0.053043  2.150580
C    -2.435475  1.331633  1.426092
O    -2.196096  1.344310  0.224893
H    -1.527910  -0.086631  4.152980
H    -1.984516  -0.706248  1.334980
C    -3.638214  -0.623749  2.703036
C    -4.784908  -0.452539  1.688884
C    -6.143430  -1.027722  2.130237
N    -6.313750  -2.474863  1.944313
C    -7.000295  -3.059711  0.943532
N    -7.415433  -4.325753  1.080158
N    -7.264167  -2.397204  -0.188100
H    -3.913291  -0.127624  3.646594
H    -3.479060  -1.688824  2.933856
H    -4.494960  -0.883775  0.718307
H    -4.942023  0.620400  1.503405
H    -6.950496  -0.524717  1.581799
H    -6.330995  -0.815166  3.192124
H    -6.039669  -3.084101  2.707478
H    -7.761181  -4.854704  0.286909
H    -7.506986  -4.759493  1.991513
H    -7.939305  -2.752867  -0.856079
H    -6.789026  -1.537927  -0.431691
N    -2.755254  2.449766  2.128667
C    -3.234752  2.594984  3.497203
H    -2.817178  3.274092  1.533120
H    -3.170315  3.652198  3.773388
H    -2.612667  2.040332  4.211433
H    -4.282751  2.283661  3.616267
Ba    2.822499  0.190215  5.246318
