37
Energy: -246333.740713 eV PBE+vdW (tier 2 basis)
C    0.325318  0.561644  0.690729
C    0.450406  0.759824  2.165809
O    1.549631  0.442767  2.777580
H    0.061799  1.498305  0.178503
H    -0.479422  -0.152377  0.458679
H    1.260154  0.178658  0.274277
N    -0.560131  1.260652  2.864077
C    -1.861592  1.683028  2.302784
C    -1.805264  3.019479  1.493551
O    -2.301699  3.001283  0.373789
H    -0.400955  1.392413  3.863148
H    -2.123947  0.951874  1.528523
C    -2.977700  1.660164  3.367128
C    -4.341573  2.017665  2.749391
C    -5.500879  1.898524  3.746372
N    -6.764450  2.223251  3.074757
C    -7.902213  2.615917  3.673793
N    -8.914278  3.079606  2.930212
N    -8.021647  2.571437  5.006919
H    -2.745995  2.355820  4.188440
H    -3.016668  0.649007  3.801902
H    -4.531579  1.352853  1.891572
H    -4.319073  3.041423  2.349639
H    -5.362165  2.604604  4.578649
H    -5.542609  0.878672  4.164502
H    -6.817449  2.041958  2.076711
H    -9.847532  3.180102  3.313601
H    -8.784165  3.352725  1.963098
H    -8.813493  3.002562  5.471224
H    -7.433002  1.972809  5.572205
N    -1.259323  4.133989  2.044843
C    -0.631271  4.335206  3.343299
H    -1.287077  4.933730  1.414810
H    -0.598714  5.410033  3.547949
H    0.404202  3.962182  3.373093
H    -1.207472  3.877636  4.157216
Ba    3.693979  -0.368296  3.262155
