37
Energy: -246335.187229 eV PBE+vdW (tier 2 basis)
C    -1.146696  0.582599  0.580704
C    -0.550677  0.388804  1.937040
O    0.552949  0.922076  2.247772
H    -0.424082  0.278985  -0.188136
H    -1.332898  1.656242  0.431682
H    -2.082626  0.034936  0.428387
N    -1.228887  -0.361582  2.828538
C    -0.864219  -0.559518  4.240803
C    0.296724  -1.584439  4.349274
O    1.476959  -1.180688  4.129703
H    -2.086395  -0.797688  2.499664
H    -0.419743  0.386799  4.585440
C    -2.110753  -0.846269  5.103705
C    -3.066868  0.362371  5.203942
C    -4.076122  0.328789  6.365169
N    -5.239764  -0.534443  6.129113
C    -6.451983  -0.363022  6.701200
N    -7.491450  -1.085141  6.266208
N    -6.625721  0.530813  7.679124
H    -1.754264  -1.104163  6.112403
H    -2.641137  -1.735565  4.719333
H    -3.605729  0.530693  4.260008
H    -2.460736  1.265585  5.370460
H    -4.455417  1.350601  6.500506
H    -3.563051  0.037482  7.297474
H    -5.103590  -1.413134  5.641460
H    -8.357609  -1.130568  6.792802
H    -7.480915  -1.547695  5.364889
H    -7.557585  0.790285  7.986724
H    -5.853356  0.875377  8.236227
N    0.030296  -2.843718  4.656590
C    1.025922  -3.913668  4.780816
H    -0.939888  -3.100920  4.815153
H    2.004991  -3.475830  4.989204
H    1.072877  -4.499234  3.853487
H    0.736573  -4.572735  5.605630
Ba    2.844871  0.558584  3.026504
