37
Energy: -246334.271490 eV PBE+vdW (tier 2 basis)
C    1.765288  0.877001  1.980847
C    1.225204  1.686071  3.113882
O    1.915914  2.595356  3.653762
H    1.668886  1.433738  1.035113
H    1.269403  -0.091969  1.867325
H    2.838556  0.722100  2.145984
N    -0.034029  1.458187  3.579358
C    -1.184803  1.311013  2.686454
C    -1.328126  2.651083  1.896706
O    -0.664213  3.669125  2.275733
H    -0.241920  2.007972  4.414608
H    -0.978082  0.502169  1.970182
C    -2.454518  0.998812  3.513794
C    -2.437951  -0.320028  4.315460
C    -2.950861  -1.553927  3.555947
N    -3.049965  -2.688055  4.481829
C    -3.257152  -3.976327  4.143460
N    -3.143262  -4.927913  5.075318
N    -3.541855  -4.309730  2.877945
H    -3.331521  1.027526  2.853246
H    -2.601580  1.832793  4.217486
H    -3.089292  -0.166534  5.189087
H    -1.430569  -0.519657  4.710204
H    -2.271264  -1.834304  2.736223
H    -3.939808  -1.327708  3.121364
H    -3.113183  -2.468924  5.471702
H    -2.711039  -4.748243  5.974513
H    -3.494300  -5.866740  4.917565
H    -3.574804  -5.284281  2.596661
H    -3.952985  -3.642980  2.236706
N    -2.124715  2.728123  0.841417
C    -2.935204  1.688413  0.202968
H    -2.183927  3.657489  0.422373
H    -3.984317  1.768087  0.516239
H    -2.550617  0.692188  0.439063
H    -2.884578  1.826702  -0.882534
Ba    1.272784  4.960850  3.232423
