37
Energy: -246333.223730 eV PBE+vdW (tier 2 basis)
C    -1.045290  1.682669  0.922324
C    -0.250783  0.778080  1.817922
O    0.961277  0.657980  1.768484
H    -0.418186  2.532235  0.629742
H    -1.984482  2.041559  1.361480
H    -1.303160  1.149769  -0.006649
N    -0.955607  0.030253  2.826039
C    -2.159060  -0.740043  2.401454
C    -2.938223  -1.130105  3.673001
O    -2.836614  -0.368717  4.694924
H    -0.258630  -0.607129  3.228273
H    -2.827023  -0.027663  1.887999
C    -1.835172  -1.868397  1.394005
C    -0.847020  -2.971409  1.840567
C    0.630124  -2.796193  1.445901
N    0.822228  -2.850456  -0.012669
C    1.876204  -2.324724  -0.684763
N    2.506987  -1.236562  -0.232705
N    2.264283  -2.890694  -1.831240
H    -1.466205  -1.391536  0.473143
H    -2.786387  -2.320909  1.074388
H    -1.194236  -3.933106  1.434794
H    -0.874493  -3.116195  2.932518
H    1.215225  -3.597362  1.923748
H    1.037978  -1.846904  1.811439
H    0.374494  -3.636509  -0.478763
H    3.373277  -0.929804  -0.661901
H    2.110286  -0.633559  0.482689
H    1.991180  -3.834355  -2.083546
H    2.899191  -2.418791  -2.467301
N    -3.727289  -2.183169  3.662419
C    -4.614824  -2.612984  4.749819
H    -3.760031  -2.735272  2.807752
H    -5.658692  -2.517372  4.425364
H    -4.442084  -1.992069  5.630536
H    -4.409751  -3.663327  4.987169
Ba    -1.662226  1.571230  5.412219
