37
Energy: -246335.374787 eV PBE+vdW (tier 2 basis)
C    0.033118  -0.734352  0.048710
C    -0.275264  -1.063038  1.473673
O    0.101778  -2.155415  1.987906
H    -0.367980  -1.519477  -0.606100
H    1.124514  -0.740760  -0.084008
H    -0.360495  0.234873  -0.274929
N    -0.959092  -0.157375  2.200242
C    -1.264988  -0.253248  3.637577
C    -2.422247  -1.264274  3.862172
O    -2.149980  -2.501284  3.884268
H    -1.274254  0.677293  1.711929
H    -0.393849  -0.723173  4.118955
C    -1.481773  1.144914  4.247894
C    -0.214876  2.020654  4.307935
C    -0.491047  3.358368  5.014980
N    0.723949  4.174584  5.089895
C    0.759419  5.510979  5.274734
N    1.920931  6.160518  5.143156
N    -0.357450  6.191120  5.557185
H    -1.865006  1.001849  5.269290
H    -2.269017  1.681406  3.689222
H    0.175222  2.221213  3.299158
H    0.571682  1.475943  4.854658
H    -0.888330  3.167176  6.026356
H    -1.247898  3.927446  4.455201
H    1.609359  3.686764  5.187551
H    2.722911  5.735560  4.692329
H    2.034133  7.112371  5.475702
H    -0.363215  7.205924  5.541965
H    -1.165308  5.741474  5.969931
N    -3.658800  -0.818499  4.012074
C    -4.838408  -1.666535  4.216305
H    -3.814977  0.185037  3.976706
H    -5.574140  -1.108382  4.802641
H    -4.549577  -2.570595  4.758802
H    -5.283978  -1.942056  3.251784
Ba    -0.566067  -4.227006  3.109154
