37
Energy: -246333.559430 eV PBE+vdW (tier 2 basis)
C    -0.195820  0.470559  0.368857
C    -0.083294  -0.253243  1.670556
O    1.077793  -0.496716  2.189280
H    -0.620631  -0.188072  -0.404500
H    0.785965  0.811300  0.031421
H    -0.865828  1.338168  0.446136
N    -1.175649  -0.658660  2.305798
C    -2.569717  -0.525745  1.826466
C    -3.185767  0.895064  1.902808
O    -3.912681  1.227035  0.959399
H    -1.031277  -1.139913  3.193622
H    -2.546690  -0.732164  0.749265
C    -3.514300  -1.553837  2.515157
C    -4.275893  -2.464456  1.536548
C    -5.333344  -1.810528  0.637424
N    -6.524607  -1.369262  1.382894
C    -7.283819  -0.290278  1.082826
N    -8.594442  -0.321044  1.360228
N    -6.737056  0.802843  0.548448
H    -4.223971  -1.023349  3.165841
H    -2.922084  -2.198813  3.181910
H    -4.748222  -3.269084  2.120462
H    -3.559392  -2.974006  0.874126
H    -5.644266  -2.545083  -0.120919
H    -4.925669  -0.949876  0.095977
H    -7.009602  -2.100211  1.897653
H    -9.152117  0.525874  1.365471
H    -9.090739  -1.194954  1.491829
H    -7.326955  1.535717  0.171666
H    -5.729020  0.981068  0.599420
N    -2.968472  1.692644  2.967281
C    -2.310063  1.397210  4.236956
H    -3.443665  2.590941  2.894260
H    -2.691759  2.093750  4.990072
H    -1.220636  1.530165  4.181149
H    -2.546125  0.385970  4.590862
Ba    3.379797  -0.797631  2.599756
