37
Energy: -246334.350258 eV PBE+vdW (tier 2 basis)
C    -4.393681  -1.245201  1.368025
C    -2.996432  -1.563810  0.949655
O    -2.765518  -2.425981  0.054169
H    -4.455130  -0.740787  2.337053
H    -4.955083  -2.187917  1.415405
H    -4.894071  -0.624210  0.609130
N    -1.940637  -0.936961  1.537650
C    -1.896795  0.511497  1.729126
C    -1.634580  1.142316  0.317053
O    -1.622952  0.402984  -0.714283
H    -1.045607  -1.340085  1.255580
H    -2.903469  0.840201  2.032047
C    -0.884923  0.907782  2.828873
C    -1.253982  0.309711  4.198469
C    -0.236599  0.528129  5.327636
N    -0.274208  1.892111  5.877639
C    0.642094  2.386630  6.742005
N    1.683845  1.645259  7.130270
N    0.520012  3.644859  7.179188
H    -0.833624  2.004520  2.895785
H    0.122343  0.576950  2.527927
H    -1.365168  -0.778833  4.095112
H    -2.244025  0.673825  4.519899
H    0.781599  0.334938  4.958313
H    -0.452591  -0.203652  6.122896
H    -1.187522  2.336503  5.914876
H    1.678789  0.635580  7.053725
H    2.440882  2.053244  7.669222
H    -0.137749  4.293705  6.764138
H    1.073836  3.991225  7.955407
N    -1.466295  2.450902  0.232879
C    -1.262302  3.186158  -1.022083
H    -1.505430  2.996710  1.088576
H    -1.080337  4.236580  -0.781077
H    -2.153959  3.115187  -1.656674
H    -0.394809  2.786380  -1.558925
Ba    -1.933699  -1.653364  -2.146881
