37
Energy: -246333.635879 eV PBE+vdW (tier 2 basis)
C    -0.991779  2.025189  0.192344
C    -0.381203  1.005621  1.092524
O    0.872572  1.082208  1.412588
H    -1.559684  2.751468  0.796430
H    -1.708970  1.586771  -0.512822
H    -0.219271  2.563098  -0.363477
N    -1.120921  0.026012  1.598219
C    -2.565074  -0.202716  1.357022
C    -3.489339  0.935041  1.886413
O    -4.394811  1.311781  1.151090
H    -0.643922  -0.623801  2.225015
H    -2.724729  -0.176950  0.271660
C    -2.964536  -1.592630  1.907802
C    -4.475816  -1.812566  2.115987
C    -5.400464  -1.836230  0.891601
N    -5.328736  -3.116126  0.168327
C    -6.026792  -3.385539  -0.953364
N    -5.936871  -4.596893  -1.517742
N    -6.777491  -2.438627  -1.526143
H    -2.494934  -1.727285  2.896551
H    -2.537187  -2.366086  1.251817
H    -4.864720  -1.032818  2.784813
H    -4.603969  -2.749686  2.679828
H    -5.160316  -1.015906  0.200348
H    -6.428403  -1.672685  1.254111
H    -5.032322  -3.923810  0.708864
H    -6.566204  -4.882952  -2.259230
H    -5.282179  -5.292993  -1.182708
H    -7.232819  -2.599472  -2.417740
H    -7.031792  -1.592640  -1.031495
N    -3.243280  1.414399  3.127385
C    -4.109276  2.407953  3.768966
H    -2.553168  0.948074  3.707015
H    -3.507882  3.054642  4.415897
H    -4.890511  1.925158  4.370795
H    -4.588113  3.008937  2.990586
Ba    3.135801  1.672487  1.617178
