37
Energy: -246335.316546 eV PBE+vdW (tier 2 basis)
C    0.294992  0.136004  -0.110609
C    0.370348  -0.283596  1.320358
O    1.428179  -0.787161  1.800436
H    1.039391  0.927862  -0.280738
H    -0.690916  0.507341  -0.409007
H    0.575202  -0.705265  -0.758033
N    -0.714841  -0.101944  2.096096
C    -0.781852  -0.309394  3.554647
C    -0.824344  -1.829066  3.860563
O    0.266977  -2.461688  3.965613
H    -1.536287  0.295986  1.646252
H    0.175497  0.033703  3.975272
C    -1.920143  0.562312  4.122507
C    -1.977972  0.663159  5.656897
C    -3.082344  1.638660  6.099829
N    -3.125852  1.770446  7.558505
C    -3.664798  2.808281  8.232770
N    -3.478807  2.899685  9.553983
N    -4.356584  3.754975  7.589560
H    -2.894410  0.226734  3.725375
H    -1.768209  1.570858  3.707320
H    -1.010768  1.017186  6.044093
H    -2.162189  -0.327495  6.102604
H    -4.058762  1.296798  5.715756
H    -2.882672  2.633875  5.676202
H    -2.886005  0.954005  8.112408
H    -2.765996  2.361146  10.032296
H    -4.029388  3.535526  10.121432
H    -4.624282  4.612701  8.061498
H    -4.779259  3.586848  6.685056
N    -1.997900  -2.432525  3.975804
C    -2.181434  -3.869528  4.206243
H    -2.836192  -1.871900  3.850070
H    -1.387969  -4.240306  4.861444
H    -2.159034  -4.418371  3.255659
H    -3.152917  -4.027923  4.683186
Ba    2.560538  -2.564929  3.009652
