37
Energy: -246334.541129 eV PBE+vdW (tier 2 basis)
C    -1.372637  -0.288182  -0.290875
C    -1.402153  -0.389249  1.199906
O    -0.746462  -1.289764  1.800438
H    -0.331339  -0.200193  -0.629271
H    -1.950514  0.551857  -0.689966
H    -1.765036  -1.223764  -0.715026
N    -2.145246  0.508348  1.875031
C    -2.440512  0.565533  3.325144
C    -1.133261  0.685267  4.145764
O    -0.505487  -0.344945  4.532770
H    -2.639221  1.186023  1.300252
H    -2.982092  1.511950  3.444680
C    -3.354034  -0.586555  3.797145
C    -4.093586  -0.349027  5.132423
C    -5.371474  0.503395  4.998958
N    -6.093061  0.669244  6.264827
C    -7.317175  0.191114  6.571802
N    -8.006650  0.752471  7.569840
N    -7.850335  -0.833135  5.894577
H    -2.757737  -1.504092  3.879641
H    -4.082370  -0.771939  2.993932
H    -3.420315  0.105139  5.877046
H    -4.369477  -1.328253  5.548377
H    -6.059887  0.059013  4.267829
H    -5.142932  1.511823  4.621091
H    -5.693804  1.313105  6.941222
H    -8.809285  0.288532  7.982990
H    -7.784998  1.677539  7.921245
H    -8.830639  -1.071588  6.002702
H    -7.281042  -1.477654  5.362288
N    -0.681621  1.899020  4.442466
C    -1.226458  3.207935  4.056775
H    0.170467  1.908308  5.003708
H    -0.526226  3.976091  4.397108
H    -2.194043  3.397603  4.538171
H    -1.319445  3.295450  2.968081
Ba    0.647090  -2.289420  3.514908
