37
Energy: -246334.047029 eV PBE+vdW (tier 2 basis)
C    -0.812492  -1.680029  0.553741
C    -0.263073  -0.440371  1.176271
O    1.029648  -0.291861  1.239514
H    -0.353836  -2.558575  1.026303
H    -0.540467  -1.705786  -0.511266
H    -1.899343  -1.760411  0.637630
N    -1.025756  0.510927  1.660541
C    -2.479697  0.739802  1.593668
C    -2.522236  2.301593  1.491472
O    -1.604539  2.912422  2.058062
H    -0.601396  1.387201  2.037096
H    -2.893779  0.252455  0.703793
C    -3.169272  0.237361  2.893082
C    -4.646775  0.646536  3.028965
C    -5.287397  0.365340  4.397737
N    -5.736718  -1.023263  4.568477
C    -6.723581  -1.414184  5.397106
N    -7.212477  -2.658671  5.304425
N    -7.227877  -0.568874  6.301962
H    -2.603111  0.649035  3.742575
H    -3.047280  -0.856990  2.931521
H    -5.264402  0.196147  2.237366
H    -4.721833  1.734298  2.895085
H    -6.175307  1.004997  4.492826
H    -4.587017  0.642694  5.203238
H    -5.221470  -1.761290  4.101590
H    -7.812684  -3.042267  6.026238
H    -7.087257  -3.217788  4.469233
H    -8.083789  -0.787799  6.800426
H    -6.728765  0.261621  6.595797
N    -3.513208  2.915214  0.828423
C    -4.607600  2.367359  0.031760
H    -3.437024  3.932376  0.856216
H    -5.576808  2.563072  0.508585
H    -4.495456  1.288020  -0.103422
H    -4.608139  2.835168  -0.959852
Ba    3.330316  -0.007612  1.127110
