37
Energy: -246333.608869 eV PBE+vdW (tier 2 basis)
C    -0.412773  -0.217769  -0.404047
C    -0.154023  0.047974  1.038448
O    1.080949  0.050327  1.436883
H    -1.467303  -0.340187  -0.642239
H    0.114972  -1.124784  -0.716399
H    -0.013288  0.632693  -0.979481
N    -1.076463  0.497559  1.900301
C    -2.471981  0.038585  2.026263
C    -2.425334  -1.524160  1.921481
O    -1.414629  -2.062735  1.455334
H    -0.666596  0.771508  2.791757
H    -2.724692  0.293449  3.064990
C    -3.558306  0.759521  1.173216
C    -3.903467  0.223239  -0.228958
C    -5.350151  0.481285  -0.674473
N    -5.641744  1.908270  -0.874697
C    -6.878364  2.417857  -1.053113
N    -7.039995  3.743882  -1.139122
N    -7.943855  1.612032  -1.111770
H    -3.277351  1.820921  1.134595
H    -4.472043  0.728295  1.782979
H    -3.781456  -0.869805  -0.262985
H    -3.223627  0.627979  -0.993460
H    -6.045736  0.097172  0.087080
H    -5.526881  -0.076314  -1.608786
H    -4.870746  2.504537  -1.159169
H    -7.913579  4.150045  -1.456138
H    -6.306125  4.388908  -0.872408
H    -8.884739  1.991594  -1.102988
H    -7.855470  0.627360  -1.330884
N    -3.485934  -2.224320  2.359076
C    -4.696071  -1.760571  3.033138
H    -3.379072  -3.230776  2.244707
H    -5.079844  -2.576712  3.653298
H    -5.482776  -1.478851  2.319586
H    -4.486585  -0.915772  3.699872
Ba    3.283198  -0.589801  1.819263
