37
Energy: -246335.035697 eV PBE+vdW (tier 2 basis)
C    1.538376  1.434209  2.132541
C    0.674881  0.307592  2.606705
O    1.161809  -0.621611  3.314440
H    1.007845  2.177773  1.528655
H    2.367118  1.018367  1.542017
H    1.991151  1.937341  2.997762
N    -0.623953  0.330950  2.251841
C    -1.694009  -0.671847  2.460811
C    -2.011668  -0.904228  3.954941
O    -1.208581  -1.503976  4.728007
H    -0.900885  1.141772  1.705065
H    -2.580546  -0.190452  2.024557
C    -1.479569  -1.997404  1.689983
C    -1.387059  -1.776212  0.169163
C    -1.297752  -3.041030  -0.698431
N    -2.602502  -3.698171  -0.870316
C    -2.780478  -4.886736  -1.491041
N    -4.010697  -5.403256  -1.582400
N    -1.735123  -5.564135  -1.976441
H    -2.325633  -2.656665  1.937723
H    -0.572063  -2.499822  2.053747
H    -0.489745  -1.184369  -0.059295
H    -2.235799  -1.164029  -0.180481
H    -0.601541  -3.765087  -0.249078
H    -0.893121  -2.747217  -1.680622
H    -3.418840  -3.093732  -0.847144
H    -4.792218  -5.018749  -1.065124
H    -4.209994  -6.190914  -2.190069
H    -0.853859  -5.108838  -2.180268
H    -1.848292  -6.506801  -2.335202
N    -3.192184  -0.473774  4.380189
C    -3.701522  -0.633185  5.745482
H    -3.784238  0.031868  3.726268
H    -4.794924  -0.651399  5.711121
H    -3.380473  0.206769  6.375418
H    -3.333898  -1.572550  6.167926
Ba    1.124926  -1.858264  5.408772
