37
Energy: -246334.104515 eV PBE+vdW (tier 2 basis)
C    -0.745879  -1.472636  0.906305
C    0.042274  -0.580018  1.806400
O    1.261278  -0.915048  2.087682
H    -0.253289  -1.545337  -0.070171
H    -1.773834  -1.143003  0.741494
H    -0.773218  -2.474692  1.359766
N    -0.508127  0.440327  2.469891
C    -1.581475  1.265814  1.912453
C    -0.999266  1.831243  0.554180
O    -0.034099  1.251775  0.048485
H    0.138356  0.928424  3.090858
H    -2.413735  0.601426  1.637038
C    -2.086251  2.286625  2.960870
C    -3.595546  2.584218  2.874539
C    -4.042439  3.607659  3.928202
N    -5.487600  3.843799  3.841087
C    -6.254952  4.381863  4.808170
N    -7.586865  4.361406  4.680545
N    -5.697837  4.912430  5.903091
H    -1.502138  3.216920  2.887495
H    -1.883970  1.868060  3.957940
H    -4.160456  1.650288  3.015978
H    -3.869306  2.961992  1.874980
H    -3.490364  4.552847  3.790579
H    -3.816916  3.225910  4.935176
H    -5.932502  3.703413  2.939368
H    -8.182767  4.930028  5.272268
H    -8.049151  3.762706  4.006271
H    -6.268618  5.181293  6.697328
H    -4.731270  5.212815  5.916122
N    -1.624556  2.879310  0.003052
C    -1.228995  3.459572  -1.283327
H    -2.389187  3.319000  0.500219
H    -2.111693  3.889572  -1.766419
H    -0.814221  2.672229  -1.919066
H    -0.473444  4.243797  -1.146176
Ba    3.431776  -1.665597  1.743709
