37
Energy: -246333.969586 eV PBE+vdW (tier 2 basis)
C    0.088842  0.670734  0.081170
C    0.131605  0.521165  1.561731
O    1.267344  0.660440  2.177120
H    -0.874919  0.393452  -0.355391
H    0.868680  0.038669  -0.364514
H    0.325330  1.713806  -0.176766
N    -0.941269  0.253176  2.294455
C    -2.385627  0.103509  1.929627
C    -2.608456  -1.089358  0.947611
O    -2.684290  -0.884680  -0.270693
H    -0.752114  0.189538  3.294345
H    -2.858179  -0.144984  2.890693
C    -2.997906  1.413384  1.402960
C    -4.531113  1.517183  1.525294
C    -5.392072  0.530031  0.718866
N    -5.180463  0.568509  -0.729245
C    -6.027933  1.055818  -1.647694
N    -5.864019  0.718752  -2.935586
N    -7.027818  1.879896  -1.309065
H    -2.690496  1.559151  0.358318
H    -2.568622  2.242702  1.982284
H    -4.801726  2.544675  1.241103
H    -4.826590  1.414147  2.581196
H    -6.452546  0.719220  0.929048
H    -5.218033  -0.506671  1.040943
H    -4.349531  0.072964  -1.056906
H    -5.317089  -0.090908  -3.201654
H    -6.358602  1.204506  -3.674970
H    -7.066708  2.333489  -0.406028
H    -7.777671  2.087347  -1.958824
N    -2.710182  -2.300298  1.520744
C    -2.928561  -3.537058  0.768664
H    -2.710979  -2.363842  2.534131
H    -2.322700  -4.339573  1.202511
H    -2.634560  -3.374487  -0.271617
H    -3.985274  -3.832788  0.803932
Ba    3.493921  0.998215  2.832183
