37
Energy: -246335.195408 eV PBE+vdW (tier 2 basis)
C    -0.903330  0.953479  0.009565
C    -1.394077  0.012650  1.061211
O    -2.181594  -0.934936  0.775417
H    -0.334435  0.377984  -0.735386
H    -0.268295  1.756372  0.398465
H    -1.757514  1.395462  -0.519949
N    -0.964332  0.193179  2.325856
C    -1.244939  -0.691654  3.469143
C    -2.697082  -0.455296  3.963590
O    -3.643149  -1.043180  3.360637
H    -0.374702  1.004282  2.496711
H    -1.251078  -1.721589  3.081179
C    -0.135313  -0.564083  4.535166
C    1.223881  -1.122152  4.063689
C    2.430866  -0.804707  4.963411
N    2.514439  -1.645549  6.163709
C    3.656268  -1.936388  6.823411
N    4.794921  -1.301006  6.530143
N    3.646703  -2.884952  7.767653
H    -0.481088  -1.094063  5.435266
H    -0.012763  0.495369  4.822559
H    1.468972  -0.697350  3.079234
H    1.156506  -2.210178  3.912749
H    2.422392  0.263125  5.241711
H    3.341175  -0.986512  4.376225
H    1.654548  -1.933919  6.617411
H    5.683425  -1.632594  6.891866
H    4.804026  -0.403412  6.061248
H    2.907520  -3.575542  7.823801
H    4.421188  -2.990985  8.414518
N    -2.911158  0.363598  4.981222
C    -4.227186  0.702982  5.532609
H    -2.106376  0.812978  5.409761
H    -4.934302  -0.098500  5.305725
H    -4.587951  1.646997  5.103840
H    -4.137763  0.815884  6.617662
Ba    -4.345404  -1.995796  1.186971
