37
Energy: -246334.735394 eV PBE+vdW (tier 2 basis)
C    -1.929985  1.665303  1.434318
C    -1.188491  0.777897  2.383447
O    -0.578963  -0.247178  1.962557
H    -2.406549  2.527764  1.911919
H    -2.699149  1.068594  0.923377
H    -1.242563  2.024065  0.656353
N    -1.200563  1.116242  3.688146
C    -0.654015  0.396120  4.861011
C    0.886828  0.275976  4.805106
O    1.461283  -0.524241  4.010914
H    -1.689865  1.981098  3.900469
H    -0.888875  1.059757  5.705129
C    -1.328734  -0.972235  5.121353
C    -2.839843  -0.892726  5.424504
C    -3.244717  -0.504214  6.862989
N    -3.250112  -1.609052  7.830249
C    -4.347667  -2.231501  8.311886
N    -4.262857  -2.922509  9.453751
N    -5.513970  -2.170948  7.660245
H    -0.788640  -1.460971  5.947260
H    -1.176406  -1.612402  4.242795
H    -3.288947  -1.866913  5.185099
H    -3.312357  -0.176734  4.735297
H    -4.248982  -0.061252  6.859382
H    -2.586461  0.276346  7.272528
H    -2.379855  -1.829831  8.302207
H    -3.514711  -2.765992  10.119870
H    -4.995652  -3.565276  9.736357
H    -6.375696  -2.469787  8.105030
H    -5.575287  -1.892616  6.689684
N    1.573757  1.029338  5.653734
C    3.034196  1.037564  5.780876
H    1.060449  1.678684  6.244152
H    3.473051  1.789397  5.111908
H    3.429523  0.048513  5.534244
H    3.294817  1.287902  6.813722
Ba    1.480007  -1.531184  1.764132
