37
Energy: -246334.263641 eV PBE+vdW (tier 2 basis)
C    -1.326487  0.480124  0.872761
C    -1.224833  -0.027875  2.277356
O    -0.432545  0.529903  3.090490
H    -2.359346  0.498930  0.511082
H    -0.737142  -0.150540  0.189253
H    -0.914254  1.493656  0.837376
N    -1.988391  -1.064828  2.723123
C    -2.147756  -2.354135  2.032954
C    -0.729978  -3.002207  1.922816
O    0.306307  -2.296608  2.145847
H    -1.911409  -1.167369  3.735687
H    -2.721670  -2.976726  2.737157
C    -2.944948  -2.328820  0.707358
C    -4.393328  -1.842952  0.892074
C    -5.192242  -1.896707  -0.419514
N    -6.575710  -1.463829  -0.200640
C    -7.626744  -1.757798  -0.992825
N    -8.865596  -1.485446  -0.568862
N    -7.440903  -2.341516  -2.182502
H    -2.957427  -3.354065  0.314051
H    -2.421646  -1.732005  -0.050251
H    -4.396551  -0.813465  1.283792
H    -4.899729  -2.467133  1.644491
H    -5.214990  -2.928189  -0.801398
H    -4.707119  -1.264177  -1.182557
H    -6.744649  -0.787004  0.537218
H    -9.066039  -1.288140  0.404912
H    -9.654851  -1.491455  -1.206326
H    -8.228359  -2.703198  -2.710702
H    -6.557340  -2.281074  -2.673305
N    -0.606404  -4.291188  1.640673
C    -1.632458  -5.322899  1.458248
H    0.359862  -4.612352  1.567256
H    -1.833825  -5.490037  0.392333
H    -2.557779  -5.056647  1.977835
H    -1.257761  -6.257124  1.890150
Ba    1.751306  -0.606237  3.339237
