37
Energy: -246333.878560 eV PBE+vdW (tier 2 basis)
C    -2.304261  -0.111718  0.767948
C    -1.570217  -0.027885  2.072374
O    -0.324863  0.001161  2.120694
H    -2.134807  0.818909  0.208296
H    -3.382313  -0.276003  0.868991
H    -1.866456  -0.918614  0.167350
N    -2.334651  0.041805  3.205076
C    -1.899196  0.011521  4.611393
C    -0.931355  1.146619  4.996704
O    -1.177834  1.841821  6.069251
H    -3.340289  0.042303  3.067263
H    -2.808431  0.242336  5.180809
C    -1.449559  -1.394166  5.121948
C    -0.203188  -2.047985  4.507477
C    0.143123  -3.418945  5.122961
N    -0.710907  -4.538007  4.701951
C    -0.373230  -5.497162  3.817476
N    -1.046007  -6.654332  3.809653
N    0.617916  -5.304493  2.939457
H    -2.326658  -2.042977  4.973597
H    -1.316018  -1.309566  6.213501
H    0.677730  -1.407630  4.661998
H    -0.315355  -2.151646  3.420454
H    0.095996  -3.375183  6.220557
H    1.181665  -3.679694  4.880979
H    -1.551791  -4.714362  5.241460
H    -0.952849  -7.312893  3.043756
H    -1.593628  -6.958598  4.606624
H    1.003021  -4.387256  2.756954
H    1.005210  -6.078930  2.411414
N    0.115374  1.375075  4.251454
C    1.099273  2.422683  4.488310
H    0.138561  0.782315  3.347081
H    1.888180  2.336642  3.735680
H    1.556165  2.314880  5.481745
H    0.645311  3.419799  4.388188
Ba    -1.453337  3.477389  7.703509
