37
Energy: -246333.777335 eV PBE+vdW (tier 2 basis)
C    -0.032798  0.180914  0.210944
C    -0.312655  0.129997  1.674905
O    0.609666  0.505833  2.504507
H    -0.803036  -0.291914  -0.401818
H    0.925749  -0.316499  0.011088
H    0.071704  1.230781  -0.100900
N    -1.469647  -0.302196  2.165239
C    -2.734941  -0.664544  1.458305
C    -2.648254  -1.941487  0.570294
O    -3.549407  -2.165173  -0.238639
H    -1.530539  -0.279290  3.183351
H    -3.399903  -0.971215  2.280544
C    -3.343288  0.606972  0.800612
C    -4.658121  0.494662  0.007284
C    -5.844586  -0.141513  0.749649
N    -7.026437  -0.283134  -0.100024
C    -7.298426  -1.343988  -0.881828
N    -8.494863  -1.426545  -1.480247
N    -6.394081  -2.312201  -1.055687
H    -2.602469  1.049192  0.120859
H    -3.475577  1.330873  1.619797
H    -4.477133  -0.046945  -0.927067
H    -4.933788  1.520941  -0.277973
H    -6.143175  0.468596  1.612818
H    -5.595913  -1.138531  1.138379
H    -7.673173  0.497374  -0.141628
H    -8.679766  -2.117869  -2.197319
H    -9.268503  -0.831189  -1.209631
H    -6.658039  -3.176857  -1.512553
H    -5.417643  -2.212906  -0.771667
N    -1.620786  -2.789016  0.775624
C    -1.536694  -4.080437  0.085831
H    -0.999113  -2.631858  1.559461
H    -2.270090  -4.791531  0.487571
H    -0.529835  -4.486105  0.218477
H    -1.731872  -3.939169  -0.981888
Ba    2.503823  1.376444  3.610875
