37
Energy: -246333.798842 eV PBE+vdW (tier 2 basis)
C    -0.284727  0.404383  0.813064
C    -0.478163  -0.023157  2.229707
O    0.580262  -0.115935  2.973443
H    0.448864  -0.246549  0.325354
H    0.113882  1.431071  0.826024
H    -1.195867  0.397589  0.217203
N    -1.672455  -0.092952  2.841058
C    -2.881491  -0.696038  2.255834
C    -2.409348  -2.100289  1.723730
O    -1.221842  -2.237949  1.409164
H    -1.582627  -0.261811  3.842409
H    -3.568142  -0.824103  3.105011
C    -3.596927  0.151388  1.166387
C    -5.104546  -0.144245  1.004115
C    -6.077576  0.652192  1.885787
N    -6.307545  1.997893  1.337662
C    -7.117823  2.925430  1.887725
N    -7.761890  2.670358  3.032059
N    -7.246921  4.121776  1.302387
H    -3.118237  -0.026467  0.196076
H    -3.442984  1.213629  1.406655
H    -5.309708  -1.210257  1.168236
H    -5.384120  0.011006  -0.049025
H    -5.695797  0.751892  2.914350
H    -7.030971  0.100935  1.930185
H    -6.087794  2.126776  0.354311
H    -8.296344  3.393426  3.501628
H    -7.888961  1.724524  3.369229
H    -6.658524  4.403473  0.527490
H    -7.971138  4.773150  1.584644
N    -3.340522  -3.056981  1.617862
C    -3.068420  -4.392273  1.077403
H    -4.260292  -2.892512  2.011467
H    -2.842872  -5.101831  1.883865
H    -2.213104  -4.332962  0.399225
H    -3.946992  -4.742869  0.526385
Ba    2.735556  -0.726942  3.594742
