37
Energy: -246335.028135 eV PBE+vdW (tier 2 basis)
C    -0.330264  -0.102901  -0.128114
C    -0.280095  -0.344686  1.344433
O    0.817313  -0.336163  1.974078
H    -1.340716  -0.150899  -0.547229
H    0.305253  -0.837472  -0.641154
H    0.098964  0.887070  -0.338815
N    -1.436832  -0.569110  1.998925
C    -1.550650  -0.734723  3.455858
C    -0.905905  -2.075996  3.902969
O    0.277782  -2.023592  4.363877
H    -2.290782  -0.584661  1.447266
H    -0.889267  0.016535  3.912200
C    -2.989467  -0.476476  3.949658
C    -3.378827  1.013746  3.998671
C    -4.852246  1.192062  4.411579
N    -5.285089  2.594265  4.395900
C    -5.920638  3.263497  5.381247
N    -6.669853  4.326223  5.070084
N    -5.803614  2.892228  6.661619
H    -3.079397  -0.912996  4.955772
H    -3.706596  -1.024540  3.320799
H    -3.225816  1.479506  3.012127
H    -2.728863  1.554091  4.702992
H    -5.030487  0.781366  5.413177
H    -5.506465  0.625288  3.730184
H    -5.311685  3.044006  3.485025
H    -7.014394  4.481780  4.129192
H    -6.963397  4.990977  5.778544
H    -6.412782  3.281983  7.372945
H    -5.044378  2.306168  6.982096
N    -1.520285  -3.247488  3.805049
C    -2.834949  -3.601710  3.259890
H    -0.972086  -4.024940  4.175910
H    -3.623128  -3.485437  4.013803
H    -2.799749  -4.653345  2.958940
H    -3.067916  -3.007979  2.371056
Ba    2.460306  -1.158673  3.600448
