37
Energy: -246333.963345 eV PBE+vdW (tier 2 basis)
C    0.373307  1.636369  1.099298
C    -0.124100  0.796275  2.224714
O    0.639973  0.690163  3.271237
H    -0.305261  1.688584  0.250604
H    1.328503  1.234213  0.741594
H    0.545593  2.652869  1.485303
N    -1.341630  0.260030  2.305593
C    -2.220832  -0.224041  1.222578
C    -1.384288  -1.304661  0.455899
O    -0.174724  -1.103996  0.328488
H    -1.515089  -0.193716  3.201604
H    -3.068872  -0.672285  1.755223
C    -2.777443  0.877269  0.282440
C    -4.094362  0.491718  -0.413853
C    -4.643869  1.652283  -1.256551
N    -5.882042  1.256723  -1.937292
C    -6.806684  2.097575  -2.437622
N    -7.979763  1.612090  -2.861635
N    -6.572865  3.414240  -2.490561
H    -2.033019  1.126914  -0.485317
H    -2.937234  1.780240  0.890491
H    -4.850465  0.201370  0.331420
H    -3.928242  -0.375280  -1.071156
H    -3.887382  1.969165  -1.994286
H    -4.870188  2.511402  -0.607872
H    -5.990551  0.275513  -2.174351
H    -8.607784  2.170029  -3.429724
H    -8.291649  0.680274  -2.614672
H    -7.316483  4.064945  -2.719410
H    -5.632437  3.787691  -2.466746
N    -2.004416  -2.386050  -0.054408
C    -3.358846  -2.897369  0.132071
H    -1.367693  -2.987938  -0.576562
H    -3.314122  -3.929535  0.500726
H    -3.913891  -2.896079  -0.815315
H    -3.911983  -2.303172  0.864565
Ba    2.499598  0.521196  4.656641
