37
Energy: -246333.875601 eV PBE+vdW (tier 2 basis)
C    -0.250395  0.154290  -0.336119
C    -0.235991  0.294711  1.156500
O    0.793010  0.357241  1.831506
H    -1.255233  0.108472  -0.770062
H    0.299063  -0.757121  -0.608537
H    0.295513  0.994852  -0.784890
N    -1.476670  0.327853  1.788384
C    -1.548117  0.640116  3.208603
C    -2.484874  -0.339572  3.919396
O    -2.931395  -0.112071  5.108117
H    -2.276093  0.566967  1.203883
H    -0.536237  0.393084  3.586766
C    -1.837309  2.131289  3.505583
C    -0.827660  3.107933  2.872204
C    0.565200  3.122908  3.527547
N    1.499464  4.004826  2.827937
C    2.630513  3.644822  2.186693
N    3.529918  4.593584  1.889373
N    2.865673  2.376645  1.842369
H    -1.857746  2.275015  4.596650
H    -2.843217  2.382759  3.136481
H    -1.261492  4.116399  2.934831
H    -0.722446  2.901113  1.797585
H    1.007313  2.120729  3.556260
H    0.490238  3.470088  4.569661
H    1.325181  5.003198  2.893482
H    4.282934  4.418156  1.233830
H    3.514432  5.504021  2.333819
H    2.139792  1.652810  1.825817
H    3.791584  2.104762  1.531904
N    -2.785753  -1.459215  3.293786
C    -3.589339  -2.553238  3.829577
H    -2.375338  -1.554742  2.362221
H    -3.647181  -3.346588  3.079021
H    -4.612473  -2.214467  4.042787
H    -3.122969  -2.971999  4.732084
Ba    -3.967553  -0.098405  7.217477
