37
Energy: -246333.578635 eV PBE+vdW (tier 2 basis)
C    -0.340490  1.239818  0.768631
C    -0.181150  0.220138  1.844957
O    0.946605  0.106206  2.474785
H    0.635552  1.559581  0.393955
H    -0.863807  2.120764  1.174125
H    -0.951454  0.878661  -0.068033
N    -1.193230  -0.565538  2.187797
C    -2.531072  -0.612415  1.548164
C    -3.357226  0.699730  1.697750
O    -3.852628  1.164375  0.672971
H    -1.014321  -1.227353  2.943804
H    -2.361354  -0.680204  0.465222
C    -3.297979  -1.875350  2.000988
C    -4.348103  -2.404854  1.002840
C    -5.588790  -1.524101  0.785321
N    -6.602753  -2.258364  0.025448
C    -7.472846  -1.729604  -0.853811
N    -8.256928  -2.543267  -1.572912
N    -7.552885  -0.406289  -1.033592
H    -3.759995  -1.713348  2.985827
H    -2.564020  -2.685747  2.131929
H    -4.672977  -3.381564  1.393818
H    -3.872274  -2.604974  0.031322
H    -5.314980  -0.624578  0.220180
H    -6.007295  -1.201522  1.753861
H    -6.767743  -3.225063  0.291736
H    -9.054181  -2.188326  -2.088618
H    -8.090848  -3.541653  -1.617436
H    -8.086115  -0.016700  -1.802566
H    -7.150150  0.247807  -0.375167
N    -3.502863  1.289767  2.911869
C    -3.253374  0.772044  4.254085
H    -4.084225  2.125500  2.858515
H    -3.172250  1.618837  4.943706
H    -2.311160  0.216940  4.305892
H    -4.067317  0.123390  4.608718
Ba    3.179834  0.250649  3.182252
