37
Energy: -246335.133104 eV PBE+vdW (tier 2 basis)
C    -0.331331  -2.080322  1.138087
C    -1.694181  -1.720446  1.629944
O    -2.717529  -2.365221  1.256589
H    -0.323427  -2.081355  0.040090
H    -0.105154  -3.108517  1.456850
H    0.457709  -1.414635  1.503027
N    -1.811874  -0.694579  2.494996
C    -3.050461  -0.300658  3.188620
C    -3.998392  0.422206  2.196513
O    -4.810894  -0.269055  1.516236
H    -0.955640  -0.209278  2.752421
H    -3.581950  -1.229170  3.446585
C    -2.696986  0.432484  4.500239
C    -3.913649  0.711277  5.403571
C    -3.602275  0.927765  6.892804
N    -2.934148  2.206692  7.174691
C    -2.327586  2.501373  8.349580
N    -1.721738  3.684839  8.494454
N    -2.297373  1.611380  9.345520
H    -2.133517  1.358177  4.293455
H    -1.994324  -0.225176  5.035180
H    -4.588890  -0.157355  5.375279
H    -4.510014  1.554827  5.021686
H    -2.948566  0.118550  7.249807
H    -4.551766  0.865891  7.449119
H    -3.250965  3.011760  6.641592
H    -1.419031  4.015921  9.404612
H    -1.533147  4.289480  7.703875
H    -1.723090  1.769837  10.167501
H    -2.959977  0.847437  9.400727
N    -3.914055  1.738275  2.068119
C    -4.707992  2.545858  1.135952
H    -3.212862  2.222809  2.621434
H    -4.182945  2.655451  0.177833
H    -4.863649  3.538088  1.570517
H    -5.675908  2.064599  0.971988
Ba    -4.973422  -2.457206  0.343508
