37
Energy: -246334.400295 eV PBE+vdW (tier 2 basis)
C    0.471673  1.251988  0.244807
C    0.140064  0.875814  1.655658
O    1.059226  0.578548  2.472299
H    1.168823  0.524837  -0.189131
H    0.999273  2.218147  0.267084
H    -0.402813  1.349053  -0.407325
N    -1.161792  0.870043  2.003738
C    -1.800427  0.873944  3.330424
C    -1.257096  -0.163667  4.325175
O    -0.586465  -1.177892  3.967010
H    -1.787977  1.158628  1.256861
H    -1.612961  1.863335  3.780469
C    -3.341845  0.748040  3.150458
C    -3.850439  -0.593180  2.595501
C    -5.373859  -0.787215  2.670917
N    -6.118052  0.088272  1.753951
C    -7.450210  0.315821  1.828628
N    -8.015001  1.184336  0.982984
N    -8.195093  -0.289643  2.758669
H    -3.661051  1.589574  2.515682
H    -3.805834  0.939702  4.127088
H    -3.418106  -1.425364  3.170985
H    -3.512337  -0.753211  1.559111
H    -5.721212  -0.576671  3.693219
H    -5.594386  -1.844210  2.450255
H    -5.699819  0.260350  0.844174
H    -7.462449  1.828144  0.429279
H    -9.022771  1.241401  0.878940
H    -9.159533  -0.012825  2.912805
H    -7.896959  -1.148258  3.205483
N    -1.528538  0.025205  5.618612
C    -2.216677  1.124039  6.305763
H    -1.229435  -0.746526  6.214631
H    -1.767386  1.242079  7.297347
H    -3.284066  0.903803  6.435498
H    -2.097946  2.068387  5.765767
Ba    1.860336  -1.455245  3.543780
