37
Energy: -246334.153421 eV PBE+vdW (tier 2 basis)
C    -1.188092  -1.294015  -0.006922
C    -2.679287  -1.205261  -0.007064
O    -3.332316  -1.642051  -1.000270
H    -0.757784  -1.308482  0.996733
H    -0.756669  -0.458836  -0.579307
H    -0.909572  -2.216546  -0.531604
N    -3.373024  -0.706509  1.049432
C    -3.132014  0.567063  1.744273
C    -3.372053  1.707296  0.711224
O    -3.460115  1.437341  -0.528572
H    -4.367930  -0.920107  0.969158
H    -3.974434  0.632660  2.449052
C    -1.857962  0.651279  2.645757
C    -0.594606  1.390515  2.168543
C    0.512447  1.225847  3.225985
N    1.705702  2.013897  2.906063
C    2.657351  2.374055  3.794666
N    2.636909  1.901318  5.045314
N    3.610961  3.234762  3.422243
H    -2.177647  1.114274  3.588981
H    -1.616696  -0.387511  2.913021
H    -0.799636  2.462165  2.029460
H    -0.238850  1.006844  1.201546
H    0.770855  0.157331  3.322316
H    0.136104  1.567060  4.201854
H    1.937668  2.145112  1.926506
H    3.249952  2.287809  5.756136
H    2.149517  1.047189  5.287057
H    4.444511  3.373634  3.984004
H    3.521603  3.805279  2.589576
N    -3.549094  2.949493  1.143160
C    -3.629272  3.445528  2.521563
H    -3.706838  3.636762  0.405901
H    -2.635842  3.683274  2.922029
H    -4.227027  4.362079  2.517685
H    -4.128881  2.720832  3.173674
Ba    -4.278474  0.063179  -2.507060
