37
Energy: -246334.080126 eV PBE+vdW (tier 2 basis)
C    -1.178919  3.109623  0.342062
C    -1.265939  2.279026  1.579104
O    -0.564591  2.631331  2.618478
H    -0.123804  3.258224  0.077679
H    -1.608408  4.102915  0.537832
H    -1.696736  2.670505  -0.514439
N    -2.025362  1.211396  1.663635
C    -3.038423  0.670491  0.740969
C    -4.061791  0.048774  1.743442
O    -3.589392  -0.410845  2.792838
H    -2.088947  0.674324  2.553068
H    -3.469827  1.487725  0.151285
C    -2.427175  -0.417368  -0.181328
C    -3.424719  -1.000555  -1.195046
C    -2.837732  -2.008823  -2.191634
N    -2.596846  -3.323569  -1.578746
C    -2.011912  -4.361562  -2.209747
N    -1.823421  -5.514385  -1.555009
N    -1.588592  -4.237281  -3.471953
H    -2.006282  -1.206482  0.459836
H    -1.581943  0.036023  -0.722120
H    -3.852168  -0.188065  -1.800247
H    -4.278551  -1.467934  -0.679996
H    -1.886361  -1.633317  -2.598433
H    -3.548494  -2.111824  -3.027758
H    -3.150170  -3.554568  -0.758994
H    -1.552021  -6.360678  -2.043065
H    -1.973587  -5.591603  -0.556549
H    -1.045445  -4.970064  -3.915400
H    -1.909883  -3.486507  -4.070222
N    -5.370015  0.009414  1.446379
C    -6.115872  0.601333  0.338462
H    -5.924563  -0.443321  2.173446
H    -6.553497  -0.176004  -0.301200
H    -5.473726  1.238618  -0.275577
H    -6.928990  1.221397  0.734475
Ba    0.581245  3.534905  4.424222
