37
Energy: -246335.251520 eV PBE+vdW (tier 2 basis)
C    -4.449113  1.958669  4.718814
C    -3.431523  1.261301  3.877559
O    -3.349149  1.479701  2.633221
H    -4.252344  3.040259  4.677885
H    -4.448263  1.638684  5.765991
H    -5.449653  1.803425  4.294341
N    -2.590283  0.399022  4.478741
C    -1.430130  -0.260639  3.850900
C    -1.921628  -1.399383  2.920218
O    -2.231002  -1.120100  1.724928
H    -2.717509  0.259334  5.478596
H    -0.967185  0.473351  3.174027
C    -0.419591  -0.630324  4.955575
C    0.957200  -1.111081  4.464278
C    1.932199  -1.277848  5.642860
N    3.256835  -1.701311  5.180451
C    4.209300  -2.265966  5.952827
N    4.043811  -2.367011  7.276230
N    5.314041  -2.754607  5.379008
H    -0.858635  -1.373932  5.643829
H    -0.282315  0.280058  5.559781
H    1.367260  -0.370739  3.758475
H    0.875959  -2.064362  3.921207
H    1.553084  -2.043679  6.335820
H    2.004467  -0.325761  6.195794
H    3.558352  -1.377597  4.266384
H    4.681617  -2.922736  7.837056
H    3.408527  -1.762631  7.782648
H    5.369152  -2.922289  4.381119
H    6.131463  -2.996530  5.929185
N    -2.032077  -2.626618  3.406107
C    -2.535151  -3.784026  2.658870
H    -1.793917  -2.773931  4.383121
H    -3.624947  -3.865664  2.764366
H    -2.071849  -4.690871  3.058747
H    -2.275850  -3.676678  1.602105
Ba    -3.283156  0.661509  0.345932
