37
Energy: -246334.796168 eV PBE+vdW (tier 2 basis)
C    -1.620056  1.439393  1.439329
C    -0.963468  0.547289  2.444892
O    -0.331603  -0.483520  2.074523
H    -2.368402  0.852597  0.887058
H    -0.876515  1.772419  0.703001
H    -2.107968  2.317574  1.874957
N    -1.078172  0.886951  3.744628
C    -0.647820  0.159627  4.960245
C    0.889832  0.018410  5.044568
O    1.526104  -0.770926  4.287316
H    -1.574216  1.757201  3.914870
H    -0.951909  0.823316  5.781794
C    -1.356150  -1.203113  5.156245
C    -2.893986  -1.119977  5.266320
C    -3.493248  -0.736488  6.632460
N    -3.632516  -1.887502  7.533326
C    -4.603567  -2.047245  8.456744
N    -4.791056  -3.249735  9.013318
N    -5.386398  -1.022461  8.810111
H    -0.914067  -1.675664  6.047532
H    -1.100695  -1.855466  4.311215
H    -3.325625  -2.082824  4.958878
H    -3.269865  -0.396889  4.528374
H    -4.500392  -0.333199  6.462813
H    -2.901672  0.057020  7.121341
H    -2.928830  -2.617346  7.495316
H    -4.437805  -4.098093  8.586274
H    -5.360048  -3.360973  9.846129
H    -6.224242  -1.174876  9.362346
H    -5.112795  -0.059684  8.658694
N    1.505414  0.738263  5.972896
C    2.947924  0.712850  6.234051
H    0.949797  1.380679  6.531556
H    3.118950  0.984676  7.279882
H    3.467620  1.434090  5.589790
H    3.337273  -0.292486  6.050164
Ba    1.741176  -1.759888  2.042045
