37
Energy: -246334.664046 eV PBE+vdW (tier 2 basis)
C    -2.466549  -0.415984  -0.107538
C    -1.878993  -0.381357  1.267644
O    -0.912926  -1.136351  1.573755
H    -2.829313  -1.433540  -0.311089
H    -1.678415  -0.209868  -0.844449
H    -3.287520  0.292714  -0.258350
N    -2.419917  0.479971  2.154349
C    -2.105150  0.669329  3.588490
C    -0.646208  1.137362  3.790505
O    0.312989  0.308816  3.759512
H    -3.172202  1.056821  1.789357
H    -2.755972  1.495983  3.897687
C    -2.426165  -0.563341  4.463717
C    -3.920022  -0.935960  4.568166
C    -4.688594  -0.206644  5.682532
N    -6.051060  -0.742265  5.778191
C    -7.068375  -0.200205  6.478332
N    -8.302735  -0.691937  6.332114
N    -6.855254  0.844765  7.288112
H    -2.010911  -0.383961  5.467238
H    -1.879819  -1.426200  4.062912
H    -3.971658  -2.015935  4.772746
H    -4.428026  -0.785041  3.603341
H    -4.757183  0.874129  5.483259
H    -4.154120  -0.343818  6.638173
H    -6.205606  -1.678211  5.415100
H    -9.044871  -0.461044  6.984444
H    -8.543114  -1.316494  5.570689
H    -7.635464  1.332805  7.716207
H    -5.939959  1.032746  7.678025
N    -0.408367  2.422433  4.021921
C    -1.347235  3.550474  4.081853
H    0.574423  2.642268  4.189159
H    -1.978685  3.592124  3.187191
H    -0.759904  4.472596  4.117962
H    -1.964856  3.507452  4.987870
Ba    1.300736  -1.564632  2.512871
