37
Energy: -246335.098953 eV PBE+vdW (tier 2 basis)
C    -1.436867  2.482162  1.445471
C    -1.804370  1.051920  1.672328
O    -2.669451  0.478966  0.950313
H    -1.002098  2.572805  0.438986
H    -0.721688  2.874365  2.176078
H    -2.340746  3.104833  1.455395
N    -1.176454  0.382700  2.660458
C    -1.282071  -1.059876  2.920804
C    -2.583739  -1.377078  3.703311
O    -3.679973  -1.342737  3.070456
H    -0.516288  0.915230  3.218967
H    -1.467244  -1.528625  1.942323
C    0.057647  -1.657900  3.418563
C    0.815273  -1.015526  4.600549
C    2.157326  -1.740569  4.817570
N    2.929190  -1.135392  5.906076
C    3.928050  -1.742879  6.584531
N    4.377138  -2.944834  6.208332
N    4.446888  -1.142132  7.660207
H    0.726922  -1.645860  2.545350
H    -0.126077  -2.722483  3.629036
H    0.247318  -1.040826  5.543868
H    1.026077  0.047635  4.396702
H    2.734136  -1.723477  3.877300
H    1.968080  -2.792170  5.078090
H    2.861393  -0.129169  6.026233
H    5.011729  -3.469613  6.801968
H    4.256019  -3.289593  5.263902
H    3.978313  -0.370166  8.120473
H    5.320103  -1.456695  8.070471
N    -2.530159  -1.691884  4.987930
C    -3.687925  -2.028644  5.823089
H    -1.619674  -1.696302  5.436311
H    -4.030247  -1.144162  6.375696
H    -3.397310  -2.807660  6.535003
H    -4.497390  -2.397836  5.188837
Ba    -4.794830  -0.723531  0.943023
