37
Energy: -246335.032514 eV PBE+vdW (tier 2 basis)
C    1.488455  -1.605279  1.996046
C    0.793802  -0.281735  1.922791
O    1.460714  0.787734  1.810768
H    2.110851  -1.741900  1.101299
H    0.809878  -2.459626  2.088891
H    2.172933  -1.595950  2.856234
N    -0.551754  -0.283940  1.979513
C    -1.509825  0.843286  2.042853
C    -1.475242  1.727994  0.776193
O    -0.494928  2.483974  0.511192
H    -0.973753  -1.206484  2.039972
H    -2.489670  0.345577  2.050579
C    -1.419644  1.677758  3.343937
C    -1.711296  0.843270  4.603900
C    -1.666933  1.620344  5.935409
N    -2.850755  2.435346  6.237627
C    -3.785145  2.153884  7.171644
N    -4.555006  3.138263  7.648731
N    -3.960151  0.904945  7.616103
H    -2.147030  2.498871  3.246026
H    -0.425120  2.140700  3.420322
H    -0.964136  0.039953  4.686731
H    -2.690866  0.348456  4.506572
H    -0.793469  2.287675  5.964113
H    -1.524432  0.915811  6.764741
H    -2.873358  3.381525  5.872269
H    -4.286037  4.112786  7.572535
H    -5.388295  2.938928  8.192623
H    -4.520846  0.718376  8.440947
H    -3.579669  0.102096  7.132815
N    -2.547586  1.683415  -0.003003
C    -2.732867  2.474067  -1.223147
H    -3.292932  1.036007  0.240307
H    -2.235350  3.441795  -1.113980
H    -3.804406  2.629942  -1.379808
H    -2.321083  1.942339  -2.091024
Ba    1.942954  2.790792  0.516282
