37
Energy: -246333.168867 eV PBE+vdW (tier 2 basis)
C    -0.322464  0.272509  -0.516739
C    -0.564110  -0.387192  0.796312
O    0.044287  -1.509038  1.052240
H    -0.961371  -0.205131  -1.276748
H    0.720506  0.116830  -0.813766
H    -0.558330  1.340920  -0.520273
N    -1.387715  0.086769  1.720702
C    -2.282256  1.283584  1.797975
C    -2.786173  1.775760  0.417134
O    -2.240910  2.727086  -0.145417
H    -1.428997  -0.494753  2.559099
H    -3.153411  0.897337  2.346463
C    -1.696070  2.404625  2.685202
C    -0.422539  3.152003  2.227867
C    -0.635250  4.575312  1.695770
N    -1.042094  5.501620  2.762758
C    -1.640411  6.692051  2.561764
N    -1.989876  7.442578  3.615006
N    -1.914505  7.118372  1.324544
H    -1.522006  1.958371  3.675247
H    -2.519678  3.117923  2.840166
H    0.099578  2.601047  1.434961
H    0.290689  3.190396  3.065515
H    -1.416971  4.551887  0.926425
H    0.300641  4.927435  1.232940
H    -0.594090  5.381646  3.667010
H    -1.962872  7.079770  4.560104
H    -2.274208  8.409271  3.504371
H    -2.482982  7.943348  1.169457
H    -1.482085  6.699432  0.511227
N    -3.840903  1.118522  -0.114681
C    -4.671902  0.072531  0.481076
H    -4.166469  1.527538  -0.989438
H    -5.358180  -0.296249  -0.287038
H    -5.277983  0.450144  1.316608
H    -4.070453  -0.780898  0.819597
Ba    1.265352  -3.506859  0.990942
