37
Energy: -246333.474610 eV PBE+vdW (tier 2 basis)
C    -0.043323  1.221969  0.416856
C    -0.108100  0.328003  1.611094
O    0.976704  -0.128437  2.152080
H    0.992407  1.381462  0.108042
H    -0.502373  2.197859  0.634200
H    -0.600513  0.794081  -0.429651
N    -1.281904  -0.000616  2.134920
C    -2.613559  0.390773  1.624998
C    -3.045701  1.867916  1.830391
O    -3.799757  2.331823  0.970285
H    -1.257012  -0.595580  2.963219
H    -2.565663  0.293739  0.533034
C    -3.737732  -0.536299  2.174128
C    -4.565658  -1.277712  1.106378
C    -5.232989  -0.427976  0.010148
N    -6.090867  0.658487  0.484692
C    -7.431515  0.690597  0.447620
N    -8.062387  1.869966  0.536481
N    -8.151995  -0.433251  0.335745
H    -4.407039  0.057425  2.811933
H    -3.296660  -1.294882  2.838503
H    -5.328361  -1.860920  1.643110
H    -3.932177  -2.015664  0.590065
H    -5.811611  -1.084431  -0.653228
H    -4.474641  0.042422  -0.631693
H    -5.593387  1.532916  0.673323
H    -7.575337  2.740822  0.361928
H    -9.061030  1.924741  0.700853
H    -9.142943  -0.401264  0.125001
H    -7.743568  -1.347284  0.477607
N    -2.654207  2.576635  2.910873
C    -2.007667  2.127061  4.140972
H    -3.037716  3.520745  2.915377
H    -2.244678  2.846094  4.931477
H    -0.913408  2.085624  4.047509
H    -2.392404  1.153419  4.470564
Ba    3.185341  -0.778037  2.651794
