37
Energy: -246334.116010 eV PBE+vdW (tier 2 basis)
C    -1.141959  -2.213054  0.901677
C    -0.492689  -1.042498  1.563102
O    0.736070  -1.166247  1.977941
H    -0.623563  -2.431305  -0.043529
H    -2.202910  -2.061947  0.687665
H    -1.034639  -3.098665  1.541822
N    -1.106156  0.105290  1.737309
C    -2.362095  0.604680  1.154939
C    -2.059977  2.130538  1.021378
O    -1.139148  2.590200  1.715095
H    -0.595810  0.934726  2.121649
H    -2.501936  0.150347  0.166157
C    -3.626635  0.333083  2.008971
C    -3.784851  1.181197  3.281227
C    -5.145952  0.931276  3.945146
N    -5.340951  1.830536  5.088101
C    -6.314390  1.718226  6.011116
N    -6.313847  2.530436  7.075444
N    -7.265256  0.785219  5.886980
H    -3.648477  -0.738389  2.259886
H    -4.490362  0.503386  1.349452
H    -3.706639  2.249216  3.022752
H    -2.978700  0.968590  3.998762
H    -5.209865  -0.107069  4.304168
H    -5.947497  1.084813  3.202094
H    -4.810298  2.696069  5.092283
H    -7.121178  2.603411  7.684523
H    -5.509732  3.099059  7.312209
H    -7.921670  0.606516  6.639165
H    -7.454705  0.332450  5.001973
N    -2.812535  2.877140  0.202992
C    -3.886835  2.471548  -0.701723
H    -2.558973  3.864454  0.206865
H    -4.875184  2.590820  -0.237644
H    -3.762106  1.433055  -1.026315
H    -3.849255  3.101644  -1.596487
Ba    3.002179  -1.501928  2.342004
