37
Energy: -246335.191344 eV PBE+vdW (tier 2 basis)
C    2.526658  2.879771  2.951352
C    1.428362  2.392690  2.063035
O    1.675243  1.669696  1.054733
H    2.179951  3.513585  3.774270
H    3.263001  3.436522  2.356470
H    3.052653  2.008573  3.367950
N    0.162398  2.737305  2.370499
C    -1.055276  2.270390  1.684874
C    -1.206958  3.015561  0.332070
O    -0.556259  2.593594  -0.669273
H    0.039724  3.360823  3.164829
H    -0.881442  1.220774  1.403027
C    -2.269585  2.342591  2.634993
C    -2.200443  1.341975  3.805928
C    -3.266610  1.544653  4.900636
N    -4.633987  1.135551  4.550194
C    -5.323055  0.119035  5.114879
N    -6.659932  0.135367  5.084356
N    -4.688213  -0.909051  5.687433
H    -3.173614  2.155898  2.036663
H    -2.361525  3.366398  3.040552
H    -1.226668  1.428685  4.311754
H    -2.254918  0.313588  3.417536
H    -3.305306  2.601743  5.203844
H    -2.970846  0.992095  5.801029
H    -5.199617  1.802733  4.035467
H    -7.202062  -0.694243  5.303191
H    -7.181369  0.992926  4.940224
H    -5.186854  -1.566961  6.277306
H    -3.707147  -1.093761  5.524846
N    -1.992049  4.078578  0.258868
C    -2.202197  4.887053  -0.947356
H    -2.474896  4.375770  1.102137
H    -2.110098  4.252662  -1.832954
H    -1.465685  5.699598  -0.997344
H    -3.206798  5.318828  -0.910263
Ba    1.495420  1.404003  -1.368752
