37
Energy: -246333.523646 eV PBE+vdW (tier 2 basis)
C    0.081956  0.112363  -0.336357
C    0.094000  0.373318  1.131746
O    1.245521  0.626291  1.675511
H    0.742537  -0.732169  -0.563500
H    0.475294  1.009618  -0.839203
H    -0.901472  -0.110131  -0.744206
N    -0.992151  0.547491  1.896087
C    -2.264781  -0.199828  1.827981
C    -1.847270  -1.709294  1.927561
O    -0.786653  -2.040582  1.389220
H    -0.752771  0.843552  2.841876
H    -2.810967  0.122423  2.723829
C    -3.135087  0.093819  0.577494
C    -4.605983  -0.361394  0.660149
C    -5.571493  0.506624  1.491249
N    -6.088634  1.692999  0.795891
C    -7.280062  1.784867  0.172848
N    -7.776390  2.992058  -0.124521
N    -7.973482  0.687827  -0.151997
H    -2.700106  -0.414388  -0.290455
H    -3.076939  1.173401  0.370595
H    -4.657928  -1.392857  1.032457
H    -4.984823  -0.412667  -0.370965
H    -5.103802  0.866326  2.418791
H    -6.434117  -0.092577  1.812219
H    -5.555350  2.552937  0.861386
H    -8.559439  3.097559  -0.760622
H    -7.449421  3.831991  0.338723
H    -7.548628  -0.229616  -0.181112
H    -8.941700  0.752380  -0.447479
N    -2.643185  -2.585615  2.567365
C    -3.817338  -2.379726  3.410471
H    -2.295339  -3.542927  2.512729
H    -3.664314  -2.877496  4.375774
H    -4.718515  -2.802609  2.946844
H    -3.982688  -1.316488  3.606648
Ba    3.528936  0.492234  2.112243
