37
Energy: -246333.783154 eV PBE+vdW (tier 2 basis)
C    -0.228759  -1.009254  0.334833
C    -0.210796  -0.412684  1.701551
O    0.843991  -0.564086  2.439626
H    0.083222  -2.060367  0.397879
H    0.504954  -0.487061  -0.297207
H    -1.204998  -0.965795  -0.152500
N    -1.243890  0.257833  2.200796
C    -2.512576  0.692670  1.542852
C    -3.473717  -0.465194  1.140892
O    -4.406838  -0.224616  0.373955
H    -1.096652  0.617575  3.144044
H    -3.052976  1.200887  2.356504
C    -2.194001  1.750710  0.448017
C    -3.346008  2.361542  -0.371112
C    -4.493441  2.988572  0.437677
N    -5.580281  3.472257  -0.413124
C    -6.631064  2.738384  -0.822927
N    -7.644989  3.343636  -1.456974
N    -6.673653  1.422459  -0.594241
H    -1.487695  1.319645  -0.274333
H    -1.649211  2.556940  0.963508
H    -3.748909  1.607346  -1.055229
H    -2.895348  3.142430  -1.001786
H    -4.139899  3.848019  1.023180
H    -4.926336  2.275535  1.152655
H    -5.519607  4.423627  -0.760170
H    -8.371583  2.810670  -1.919963
H    -7.744521  4.351749  -1.462296
H    -5.860646  0.889987  -0.278688
H    -7.528204  0.905695  -0.763898
N    -3.286988  -1.672982  1.708597
C    -4.229543  -2.776468  1.495557
H    -2.600240  -1.774119  2.445770
H    -3.793776  -3.694023  1.900386
H    -4.411874  -2.905016  0.423665
H    -5.186817  -2.578761  1.994729
Ba    2.974601  -0.987052  3.361891
