37
Energy: -246335.233771 eV PBE+vdW (tier 2 basis)
C    -1.013970  0.184016  -0.096816
C    -1.673919  -0.291447  1.157023
O    -2.674096  -1.064539  1.114815
H    -0.649997  -0.691318  -0.653998
H    -0.177542  0.868861  0.077797
H    -1.754054  0.679877  -0.738825
N    -1.166436  0.118367  2.335954
C    -1.606253  -0.322053  3.670740
C    -2.943558  0.377552  4.038963
O    -4.022110  -0.095679  3.571864
H    -0.395208  0.780213  2.296108
H    -1.867929  -1.387689  3.585862
C    -0.470482  -0.160044  4.700025
C    0.722546  -1.116309  4.502029
C    1.828540  -0.852662  5.542317
N    3.022084  -1.680417  5.334174
C    3.642364  -2.460072  6.245443
N    2.981197  -2.960994  7.295773
N    4.938597  -2.745349  6.086132
H    -0.902069  -0.326990  5.698309
H    -0.104323  0.882286  4.689840
H    1.146553  -0.997323  3.492832
H    0.384248  -2.160598  4.575778
H    1.458493  -1.023284  6.561047
H    2.137704  0.203951  5.504502
H    3.564246  -1.482579  4.497745
H    3.480762  -3.394735  8.064781
H    1.972655  -3.034937  7.307039
H    5.541164  -2.186176  5.492319
H    5.378733  -3.504754  6.595720
N    -2.924411  1.449232  4.814491
C    -4.103897  2.215609  5.229798
H    -2.023742  1.780992  5.149236
H    -3.954957  2.563707  6.256852
H    -4.988092  1.575248  5.185527
H    -4.243477  3.085042  4.574368
Ba    -5.019363  -1.397005  1.728437
