37
Energy: -246335.163847 eV PBE+vdW (tier 2 basis)
C    0.300915  0.723192  0.444911
C    0.102567  0.509467  1.909600
O    1.001869  0.820058  2.744235
H    0.434374  1.800051  0.264445
H    -0.530344  0.361540  -0.169267
H    1.228141  0.231907  0.121935
N    -1.067251  -0.013225  2.324507
C    -1.496164  -0.166489  3.726528
C    -0.729196  -1.349622  4.376026
O    0.400367  -1.126451  4.902240
H    -1.739952  -0.258918  1.601962
H    -1.146273  0.723514  4.271021
C    -3.037417  -0.215039  3.783949
C    -3.627520  -0.138885  5.203059
C    -5.151641  -0.356703  5.277363
N    -5.980143  0.727346  4.731351
C    -6.826666  1.510132  5.436853
N    -7.849316  2.101040  4.810092
N    -6.646589  1.715205  6.745795
H    -3.409142  -1.118899  3.268533
H    -3.397805  0.636798  3.186418
H    -3.367870  0.827635  5.661153
H    -3.178542  -0.915679  5.841153
H    -5.445348  -0.514381  6.322458
H    -5.429754  -1.281606  4.749793
H    -6.130443  0.731046  3.727532
H    -8.198368  1.763731  3.919806
H    -8.372499  2.852816  5.247362
H    -7.374650  2.136590  7.313070
H    -5.772214  1.503564  7.208033
N    -1.260279  -2.562076  4.337232
C    -0.630115  -3.777800  4.862428
H    -2.159911  -2.672150  3.877206
H    -0.060441  -4.285856  4.073281
H    -1.411391  -4.452484  5.225772
H    0.037367  -3.514863  5.687162
Ba    2.461648  0.222491  4.600005
