37
Energy: -246334.544371 eV PBE+vdW (tier 2 basis)
C    -0.788861  -2.440744  -0.475247
C    -0.522191  -1.857559  0.871685
O    0.651804  -1.792644  1.341182
H    -1.850208  -2.458208  -0.743694
H    -0.389276  -3.463068  -0.517215
H    -0.240168  -1.855604  -1.227538
N    -1.561314  -1.387928  1.590086
C    -1.422531  -0.667615  2.864477
C    -0.944388  -1.631940  3.982772
O    0.284737  -1.592614  4.298177
H    -2.483574  -1.435884  1.163922
H    -0.567391  0.015306  2.751686
C    -2.670715  0.203155  3.128289
C    -2.596836  1.025917  4.427519
C    -3.533839  2.248490  4.467387
N    -4.970270  1.954576  4.582357
C    -5.777361  2.340249  5.596704
N    -7.089782  2.472741  5.376763
N    -5.287186  2.567967  6.819588
H    -3.583891  -0.408288  3.107931
H    -2.733923  0.889975  2.268928
H    -1.578984  1.430621  4.543627
H    -2.776936  0.386552  5.305363
H    -3.389976  2.858124  3.562479
H    -3.251725  2.895093  5.307083
H    -5.454523  1.704251  3.725750
H    -7.747625  2.555639  6.145264
H    -7.466096  2.596963  4.443453
H    -5.845114  3.034081  7.527394
H    -4.363511  2.261491  7.095099
N    -1.753332  -2.498397  4.581883
C    -3.169607  -2.790608  4.345273
H    -1.295521  -3.054527  5.305071
H    -3.818816  -2.091439  4.887300
H    -3.371285  -3.800591  4.715313
H    -3.404289  -2.774609  3.276749
Ba    2.414500  -1.842924  3.030138
