37
Energy: -246333.237970 eV PBE+vdW (tier 2 basis)
C    -1.237072  0.495407  -1.114257
C    -0.737196  0.800910  0.256758
O    0.344249  1.500282  0.412609
H    -2.011721  1.228641  -1.391987
H    -1.712577  -0.490055  -1.184924
H    -0.423075  0.560949  -1.841727
N    -1.399895  0.390762  1.330211
C    -2.660420  -0.386649  1.346489
C    -3.876635  0.355792  0.709045
O    -4.478306  -0.245910  -0.175418
H    -1.010966  0.667713  2.232402
H    -2.520838  -1.231404  0.661023
C    -2.932833  -0.932691  2.766628
C    -4.382338  -1.394876  3.015965
C    -4.917481  -2.607167  2.241131
N    -4.423234  -3.878079  2.794142
C    -4.723042  -5.088663  2.280779
N    -4.271961  -6.196128  2.883481
N    -5.435403  -5.187787  1.153579
H    -2.721282  -0.144888  3.506051
H    -2.219836  -1.746337  2.967751
H    -5.070547  -0.564837  2.804113
H    -4.497449  -1.580996  4.095045
H    -4.645570  -2.547739  1.177322
H    -6.017538  -2.578306  2.303756
H    -4.153574  -3.868334  3.773772
H    -4.605284  -7.115886  2.617456
H    -3.628676  -6.154037  3.664448
H    -5.589354  -6.085922  0.708918
H    -5.957252  -4.402669  0.784692
N    -4.219454  1.602417  1.122426
C    -3.800251  2.336217  2.312644
H    -5.048796  1.951195  0.643441
H    -4.174298  3.361519  2.231568
H    -2.707782  2.396779  2.391855
H    -4.205224  1.906257  3.239897
Ba    2.310696  2.736502  0.082153
