37
Energy: -246334.197337 eV PBE+vdW (tier 2 basis)
C    0.547342  -0.205467  0.080447
C    0.060989  -1.440254  0.766811
O    0.544775  -2.566881  0.461447
H    0.161050  0.721790  0.507295
H    0.309140  -0.239963  -0.992018
H    1.644774  -0.201456  0.151795
N    -0.890963  -1.374726  1.735789
C    -2.146373  -0.611148  1.598142
C    -2.731842  -0.908612  0.179375
O    -2.336243  -1.938213  -0.451073
H    -1.004119  -2.265505  2.218005
H    -2.841654  -1.126568  2.281742
C    -2.110168  0.861817  2.072502
C    -1.554076  0.986169  3.505399
C    -1.881964  2.285894  4.254248
N    -1.098781  3.441961  3.792485
C    -1.349066  4.718750  4.166930
N    -2.376695  5.004994  4.971377
N    -0.579778  5.704890  3.692638
H    -3.148367  1.231098  2.079010
H    -1.560008  1.499607  1.367723
H    -0.467023  0.812561  3.513023
H    -1.977632  0.180147  4.123603
H    -1.695752  2.109557  5.326338
H    -2.948882  2.525955  4.133942
H    -0.139459  3.253800  3.514628
H    -2.650217  5.967022  5.144086
H    -2.807723  4.302063  5.559281
H    0.074331  5.555652  2.933972
H    -0.621456  6.641012  4.081497
N    -3.671711  -0.106610  -0.290576
C    -4.420710  -0.289851  -1.537305
H    -3.922867  0.702676  0.271193
H    -4.161154  0.503138  -2.249416
H    -5.494480  -0.240264  -1.322688
H    -4.180176  -1.263941  -1.966656
Ba    -0.902910  -3.934481  -1.019273
