37
Energy: -246335.028463 eV PBE+vdW (tier 2 basis)
C    -1.757922  -1.106442  -0.592927
C    -1.139921  -0.953477  0.757655
O    0.103471  -0.762822  0.893313
H    -1.279464  -1.941955  -1.121801
H    -1.551255  -0.201016  -1.181205
H    -2.839490  -1.275035  -0.564437
N    -1.939353  -1.017402  1.840955
C    -1.487317  -0.796901  3.222747
C    -0.571879  -1.962973  3.688120
O    0.683562  -1.770263  3.632754
H    -2.928551  -1.190941  1.682371
H    -0.796471  0.058743  3.196705
C    -2.660950  -0.441994  4.159181
C    -3.184268  0.997777  3.991928
C    -4.406102  1.255643  4.893547
N    -4.984648  2.590509  4.698409
C    -5.327059  3.479530  5.655409
N    -4.734727  3.472678  6.855235
N    -6.266423  4.393298  5.390484
H    -2.316677  -0.590387  5.193775
H    -3.486897  -1.153739  4.013637
H    -3.469857  1.178734  2.943373
H    -2.390446  1.721808  4.228616
H    -4.141417  1.138313  5.951612
H    -5.189903  0.508285  4.691110
H    -5.380477  2.775346  3.780851
H    -5.108165  4.022571  7.621510
H    -3.842874  3.021590  7.009648
H    -6.382921  5.215339  5.974194
H    -6.927665  4.277206  4.630586
N    -1.038263  -3.130869  4.109893
C    -2.410207  -3.639058  4.211029
H    -0.305788  -3.774724  4.412215
H    -3.020787  -3.301257  3.368447
H    -2.874568  -3.345743  5.160503
H    -2.365462  -4.731931  4.173659
Ba    2.314140  -1.097443  1.905897
