37
Energy: -246334.876580 eV PBE+vdW (tier 2 basis)
C    0.817146  1.822344  1.896589
C    0.250649  0.803299  2.828666
O    0.922579  0.359261  3.804456
H    0.135743  2.104758  1.087320
H    1.751976  1.442541  1.462555
H    1.079393  2.720931  2.473490
N    -1.005809  0.363749  2.614655
C    -1.727728  -0.559132  3.503807
C    -1.111274  -1.982021  3.423114
O    -0.289950  -2.309108  4.336169
H    -1.499912  0.737940  1.808499
H    -1.490310  -0.252462  4.533493
C    -3.256543  -0.446693  3.312518
C    -3.832999  0.833907  3.946921
C    -5.302715  1.140084  3.622875
N    -6.242530  0.245274  4.313783
C    -7.565795  0.176369  4.039255
N    -8.330490  -0.693582  4.708226
N    -8.104834  0.939102  3.083430
H    -3.722630  -1.339367  3.753931
H    -3.506809  -0.473183  2.241755
H    -3.264422  1.709752  3.600328
H    -3.694046  0.811744  5.040154
H    -5.474606  1.045556  2.540196
H    -5.499830  2.187048  3.905726
H    -5.975838  -0.060256  5.245695
H    -9.343170  -0.648013  4.665877
H    -7.930886  -1.424072  5.285147
H    -9.062283  0.793180  2.779630
H    -7.652854  1.784093  2.755717
N    -1.383853  -2.837378  2.446280
C    -2.225278  -2.692062  1.254608
H    -0.919061  -3.739991  2.553831
H    -1.874088  -3.410042  0.507067
H    -2.132367  -1.690538  0.823907
H    -3.275779  -2.914318  1.478478
Ba    1.788739  -1.374403  5.304775
