37
Energy: -246334.229572 eV PBE+vdW (tier 2 basis)
C    0.027121  2.312459  3.647452
C    -0.233584  0.845130  3.698618
O    -0.282857  0.229331  4.802452
H    0.938723  2.499061  4.235623
H    -0.774397  2.875345  4.146298
H    0.181066  2.701602  2.637039
N    -0.391337  0.128793  2.549256
C    -1.316895  0.547190  1.496753
C    -2.734299  0.046868  1.929616
O    -2.930377  -0.338456  3.122905
H    -0.396256  -0.875361  2.729552
H    -1.384377  1.645427  1.547359
C    -0.817567  0.204205  0.073568
C    -0.621854  -1.281884  -0.271710
C    0.305241  -1.525037  -1.479615
N    -0.204499  -1.064033  -2.780140
C    -0.397127  -1.835287  -3.874418
N    -0.350189  -1.275067  -5.087584
N    -0.656968  -3.141952  -3.760884
H    0.143313  0.732686  -0.023038
H    -1.485694  0.685827  -0.658166
H    -1.590517  -1.779750  -0.429707
H    -0.132794  -1.803706  0.565998
H    0.529742  -2.595304  -1.560326
H    1.272533  -1.029373  -1.305916
H    -0.119293  -0.070586  -2.973225
H    -0.693301  -1.763991  -5.908257
H    0.112278  -0.387292  -5.249860
H    -0.937203  -3.560193  -2.883771
H    -0.614667  -3.754745  -4.568416
N    -3.715460  0.093387  1.043594
C    -5.115010  -0.242490  1.333604
H    -3.502246  0.443120  0.113948
H    -5.679332  -0.213840  0.397985
H    -5.547425  0.484389  2.032183
H    -5.181522  -1.248057  1.763113
Ba    -2.430504  -0.722387  5.575891
