37
Energy: -246334.079182 eV PBE+vdW (tier 2 basis)
C    -2.095479  -1.631858  0.906112
C    -0.710737  -1.204650  1.271342
O    0.200864  -2.116160  1.429570
H    -2.393577  -2.480021  1.535129
H    -2.104552  -1.977151  -0.139175
H    -2.845279  -0.843936  1.010573
N    -0.390549  0.065812  1.421453
C    -1.216350  1.254099  1.131699
C    -0.189205  2.352825  0.771666
O    0.908050  2.345568  1.363993
H    0.580078  0.324496  1.650831
H    -1.842324  1.019210  0.262165
C    -2.139065  1.710580  2.307973
C    -1.628466  2.814197  3.249711
C    -0.547549  2.399864  4.262209
N    -0.060857  3.529432  5.053562
C    1.002721  4.299394  4.761008
N    1.383677  5.243346  5.632727
N    1.689102  4.127966  3.625268
H    -2.434495  0.820269  2.883675
H    -3.063203  2.082512  1.845255
H    -2.499079  3.186739  3.808766
H    -1.273099  3.674210  2.662511
H    0.315991  1.932363  3.772592
H    -0.949596  1.661742  4.969815
H    -0.625739  3.815500  5.847123
H    2.084606  5.934453  5.392762
H    0.989327  5.301243  6.564235
H    2.568583  4.612679  3.491553
H    1.376575  3.520151  2.863936
N    -0.576663  3.262228  -0.123710
C    0.233212  4.410974  -0.533981
H    -1.493443  3.162860  -0.551028
H    0.157338  4.536230  -1.619129
H    1.275740  4.225249  -0.262455
H    -0.119380  5.328462  -0.045381
Ba    1.447234  -4.098085  1.375455
