37
Energy: -246335.331805 eV PBE+vdW (tier 2 basis)
C    1.274654  -0.827748  -0.214979
C    0.822478  -0.002410  0.944296
O    0.768000  1.260125  0.867792
H    2.255633  -0.475390  -0.559715
H    0.572395  -0.673018  -1.047545
H    1.332972  -1.899068  0.003760
N    0.460252  -0.636259  2.075424
C    -0.150463  -0.008644  3.262350
C    0.932782  0.773888  4.049043
O    1.176730  1.972609  3.723710
H    0.537918  -1.650852  2.075718
H    -0.845099  0.763861  2.899443
C    -0.949599  -1.082041  4.028901
C    -1.851606  -0.556973  5.159979
C    -2.677000  -1.698928  5.778253
N    -3.562273  -1.204822  6.836346
C    -4.670303  -1.832083  7.284314
N    -5.491719  -1.192497  8.123964
N    -4.965453  -3.071257  6.877058
H    -0.270569  -1.862974  4.414333
H    -1.579012  -1.587084  3.279669
H    -2.537257  0.207887  4.765591
H    -1.245930  -0.075483  5.944400
H    -2.001333  -2.476083  6.174785
H    -3.303353  -2.160698  5.000902
H    -3.238543  -0.418534  7.391196
H    -6.211868  -1.688872  8.638159
H    -5.447701  -0.188429  8.253615
H    -5.869664  -3.483307  7.083475
H    -4.258862  -3.695176  6.507572
N    1.594031  0.161275  5.019534
C    2.680001  0.759687  5.803131
H    1.369187  -0.811840  5.207959
H    3.645276  0.605674  5.303171
H    2.710444  0.281076  6.786377
H    2.496591  1.830987  5.923697
Ba    1.338260  3.457403  1.735326
