37
Energy: -246335.372568 eV PBE+vdW (tier 2 basis)
C    -1.314479  1.566511  -0.282630
C    -1.031943  0.309487  0.474755
O    0.020885  -0.358314  0.262045
H    -2.261728  2.042734  -0.008618
H    -1.320719  1.353784  -1.360118
H    -0.492371  2.274920  -0.106540
N    -1.927621  -0.089495  1.399209
C    -1.780763  -1.238853  2.308380
C    -2.037934  -2.557666  1.529874
O    -1.095504  -3.044711  0.837427
H    -2.776793  0.464188  1.482106
H    -0.718266  -1.289445  2.590704
C    -2.630728  -1.044630  3.578995
C    -2.134231  0.073616  4.516341
C    -3.024361  0.193828  5.764656
N    -2.540051  1.248856  6.659345
C    -2.822575  1.350031  7.975068
N    -2.172713  2.252121  8.718234
N    -3.722352  0.540253  8.544172
H    -2.625388  -1.997665  4.128617
H    -3.681467  -0.848386  3.300788
H    -2.119703  1.038870  3.985446
H    -1.100524  -0.136875  4.828956
H    -3.010540  -0.755148  6.320741
H    -4.066272  0.395675  5.462348
H    -2.095173  2.056726  6.234424
H    -1.324682  2.701808  8.393380
H    -2.497247  2.503368  9.646084
H    -3.823227  0.505399  9.553389
H    -4.441394  0.077166  8.002426
N    -3.228757  -3.130494  1.594336
C    -3.611199  -4.362903  0.896129
H    -3.944280  -2.684238  2.161625
H    -2.725573  -4.984825  0.742389
H    -4.069445  -4.126150  -0.073016
H    -4.336511  -4.904662  1.510970
Ba    0.973629  -2.514881  -0.398431
