37
Energy: -246334.493976 eV PBE+vdW (tier 2 basis)
C    1.890599  2.954323  2.384819
C    1.068994  1.851200  2.970836
O    1.583872  1.020836  3.774210
H    2.727047  2.511396  1.825367
H    2.333142  3.548514  3.195924
H    1.330988  3.620312  1.719869
N    -0.228533  1.781100  2.614535
C    -1.236853  0.749413  2.946034
C    -1.436640  0.631596  4.476622
O    -0.678938  -0.100228  5.181243
H    -0.538190  2.499255  1.965262
H    -2.169915  1.150396  2.530568
C    -0.957314  -0.610996  2.272593
C    -2.148196  -1.594171  2.328494
C    -3.181171  -1.504356  1.193382
N    -2.677260  -2.114985  -0.045727
C    -3.327953  -2.105506  -1.230995
N    -2.747507  -2.653248  -2.303496
N    -4.524747  -1.519401  -1.345010
H    -0.080450  -1.071366  2.745304
H    -0.669769  -0.409451  1.230584
H    -2.697561  -1.477316  3.274671
H    -1.763952  -2.624475  2.366278
H    -3.447849  -0.457692  0.977782
H    -4.096132  -2.021546  1.525429
H    -1.969272  -2.835802  0.060517
H    -1.770784  -2.922826  -2.304716
H    -3.270150  -2.831668  -3.154818
H    -4.962286  -1.406936  -2.254071
H    -5.118787  -1.364687  -0.539627
N    -2.433620  1.302883  5.041630
C    -3.401601  2.221839  4.426861
H    -2.526975  1.152637  6.046771
H    -3.973153  2.693110  5.231620
H    -4.108167  1.685068  3.781191
H    -2.896331  3.015283  3.864741
Ba    1.709797  -0.363322  5.765679
