37
Energy: -246335.086947 eV PBE+vdW (tier 2 basis)
C    0.272382  -0.420211  -0.216134
C    -0.233055  -0.764156  1.146020
O    0.555244  -0.881622  2.128681
H    0.797944  0.544060  -0.165965
H    -0.514645  -0.359577  -0.974991
H    1.014442  -1.167318  -0.529233
N    -1.558593  -0.944646  1.314139
C    -2.202916  -1.201665  2.610663
C    -1.828918  -2.616579  3.134068
O    -0.896921  -2.686827  3.995509
H    -2.150293  -0.858526  0.491699
H    -1.718056  -0.537483  3.341287
C    -3.708706  -0.867863  2.583690
C    -4.014899  0.641890  2.610893
C    -5.530204  0.905018  2.597774
N    -5.817363  2.342242  2.613117
C    -6.974209  2.907601  3.016812
N    -7.042648  4.236639  3.150813
N    -8.038571  2.152074  3.309729
H    -4.168206  -1.348513  3.460463
H    -4.183364  -1.326514  1.704139
H    -3.552336  1.137693  1.741936
H    -3.578076  1.098213  3.511806
H    -5.989272  0.457198  3.491438
H    -5.984529  0.433038  1.709855
H    -5.166215  2.954580  2.131257
H    -6.210865  4.814656  3.183047
H    -7.933782  4.712141  3.246092
H    -8.853688  2.557233  3.758526
H    -8.145185  1.214953  2.941681
N    -2.415804  -3.728270  2.710430
C    -3.451226  -3.941619  1.694083
H    -2.079004  -4.569278  3.181501
H    -3.316107  -3.266571  0.843871
H    -4.455728  -3.824716  2.118883
H    -3.351372  -4.967105  1.324869
Ba    1.448747  -1.936170  4.158552
