37
Energy: -246334.184995 eV PBE+vdW (tier 2 basis)
C    -0.139745  -0.043766  0.431259
C    -0.611206  -0.526759  1.760737
O    0.178482  -1.095500  2.566578
H    0.622029  0.740179  0.548528
H    -0.942989  0.312938  -0.219235
H    0.366641  -0.886001  -0.064078
N    -1.914108  -0.375254  2.127092
C    -2.641323  0.893373  2.001542
C    -1.815578  1.956105  2.784113
O    -1.045113  1.562968  3.718306
H    -2.135430  -0.880902  2.986234
H    -2.705365  1.168016  0.940701
C    -4.055847  0.668538  2.606994
C    -5.187640  1.668375  2.309636
C    -5.878757  1.472511  0.950310
N    -7.095180  2.290819  0.890884
C    -7.857234  2.495982  -0.203678
N    -8.860420  3.377438  -0.149800
N    -7.592044  1.852185  -1.347152
H    -3.940815  0.601890  3.699545
H    -4.370879  -0.331869  2.272780
H    -4.858550  2.710018  2.425244
H    -5.941844  1.506856  3.095275
H    -6.128328  0.404508  0.827545
H    -5.223588  1.764172  0.114528
H    -7.503803  2.569752  1.778190
H    -8.955726  4.035243  0.615578
H    -9.573120  3.411720  -0.871287
H    -8.084130  2.093597  -2.201404
H    -7.081114  0.978072  -1.355832
N    -1.893970  3.247004  2.489410
C    -2.590424  3.933728  1.400145
H    -1.335471  3.847094  3.099141
H    -3.372433  4.588369  1.803867
H    -3.036851  3.217623  0.706559
H    -1.870142  4.551292  0.850083
Ba    0.744576  0.058727  4.691132
