37
Energy: -246335.005031 eV PBE+vdW (tier 2 basis)
C    -1.489734  0.397090  0.431626
C    -0.855244  0.016839  1.731078
O    0.161988  -0.735353  1.756125
H    -2.332342  1.088680  0.534424
H    -1.839620  -0.518263  -0.067720
H    -0.734967  0.846777  -0.227106
N    -1.406813  0.501453  2.859962
C    -1.085409  0.201130  4.274891
C    0.341308  0.679115  4.644554
O    1.366989  0.028470  4.293301
H    -2.210213  1.108140  2.719588
H    -1.792883  0.824728  4.839034
C    -1.333788  -1.276881  4.653652
C    -1.568348  -1.535806  6.159294
C    -3.048082  -1.466922  6.572779
N    -3.199914  -1.836759  7.984086
C    -4.325549  -1.700695  8.715683
N    -4.286439  -1.929933  10.032049
N    -5.467249  -1.307240  8.138420
H    -0.481028  -1.877402  4.313744
H    -2.198126  -1.629120  4.072846
H    -0.974863  -0.844231  6.778086
H    -1.196257  -2.545308  6.387748
H    -3.627339  -2.153518  5.931895
H    -3.454084  -0.452343  6.436385
H    -2.461902  -2.398690  8.397678
H    -3.410887  -2.000532  10.537837
H    -5.136866  -2.035215  10.575424
H    -6.279858  -1.078637  8.701921
H    -5.627912  -1.426798  7.146006
N    0.430982  1.792919  5.360756
C    1.684504  2.406509  5.808711
H    -0.428380  2.288365  5.583877
H    2.045385  3.129627  5.065397
H    2.437536  1.628851  5.962568
H    1.502539  2.930877  6.751827
Ba    2.435867  -1.215924  2.435572
