37
Energy: -246334.632398 eV PBE+vdW (tier 2 basis)
C    -1.557766  1.070834  0.682036
C    -0.940630  0.441122  1.889981
O    -0.173836  -0.558663  1.773600
H    -0.767859  1.359937  -0.024105
H    -2.175740  1.947074  0.903918
H    -2.176410  0.317972  0.172353
N    -1.232189  0.978013  3.090069
C    -0.877406  0.512749  4.451085
C    0.654119  0.529185  4.682953
O    1.407247  -0.365333  4.201245
H    -1.839834  1.792314  3.059093
H    -1.306389  1.284188  5.106081
C    -1.524354  -0.842864  4.816576
C    -1.519898  -1.160826  6.327547
C    -2.635312  -0.507595  7.171584
N    -3.945131  -1.166324  7.088497
C    -4.508739  -1.933376  8.046970
N    -5.830854  -2.132287  8.035370
N    -3.763063  -2.500059  9.001737
H    -1.004179  -1.643498  4.275066
H    -2.551039  -0.836821  4.421850
H    -0.553934  -0.869760  6.769608
H    -1.580750  -2.251147  6.451073
H    -2.788248  0.545758  6.893113
H    -2.337537  -0.487464  8.227835
H    -4.560680  -0.897503  6.328378
H    -6.460805  -1.518801  7.530576
H    -6.259957  -2.856861  8.601842
H    -4.193982  -2.917688  9.819998
H    -2.760279  -2.599464  8.914653
N    1.131007  1.516620  5.430408
C    2.543299  1.708880  5.772234
H    0.479556  2.222355  5.764334
H    2.605262  2.195021  6.750680
H    3.034651  2.348948  5.027569
H    3.045572  0.738628  5.814103
Ba    1.930087  -1.690267  2.178088
