37
Energy: -246334.660942 eV PBE+vdW (tier 2 basis)
C    -1.716664  -1.929525  -0.235782
C    -1.167177  -1.355287  1.027783
O    0.036117  -0.971623  1.107372
H    -2.766265  -2.232436  -0.161071
H    -1.113555  -2.797418  -0.535483
H    -1.615406  -1.183493  -1.037055
N    -1.984500  -1.246544  2.094342
C    -1.607908  -0.617959  3.369797
C    -0.559210  -1.487963  4.114559
O    0.658807  -1.139276  4.015024
H    -2.939181  -1.579894  1.986459
H    -1.036736  0.288366  3.119178
C    -2.852735  -0.190894  4.179070
C    -3.544807  1.060205  3.603516
C    -4.925613  1.375626  4.210908
N    -4.917388  1.910145  5.579951
C    -5.301824  3.153183  5.944843
N    -5.270187  4.167160  5.073718
N    -5.703167  3.374154  7.201284
H    -2.531082  -0.006414  5.214913
H    -3.572947  -1.021628  4.223618
H    -3.713667  0.925781  2.523642
H    -2.883643  1.934249  3.706106
H    -5.555593  0.473435  4.212585
H    -5.448358  2.097067  3.570671
H    -4.860510  1.238481  6.338575
H    -5.732365  5.046691  5.279076
H    -4.758951  4.112534  4.202751
H    -5.799946  4.316267  7.566021
H    -6.019148  2.621059  7.802039
N    -0.877763  -2.569847  4.813864
C    -2.170712  -3.227786  5.026200
H    -0.076733  -3.009839  5.268962
H    -1.977495  -4.280183  5.256526
H    -2.786249  -3.192139  4.122536
H    -2.709456  -2.784045  5.872274
Ba    2.238009  -0.723208  2.156227
