37
Energy: -246333.436673 eV PBE+vdW (tier 2 basis)
C    0.531327  -0.592731  -0.036711
C    -0.498036  0.481723  -0.100431
O    -0.422809  1.373383  -1.042242
H    0.733851  -0.965387  -1.047800
H    0.251850  -1.426950  0.610779
H    1.467553  -0.165287  0.354278
N    -1.478359  0.586734  0.783811
C    -1.853487  -0.237462  1.971780
C    -0.647709  -0.779305  2.794173
O    -0.460795  -1.990980  2.924985
H    -2.112394  1.367346  0.608240
H    -2.343278  0.498140  2.629324
C    -2.948484  -1.281716  1.659460
C    -2.761249  -2.381982  0.599094
C    -1.898414  -3.615080  0.934912
N    -2.127728  -4.183393  2.261671
C    -2.781839  -5.314960  2.560693
N    -2.592711  -5.887368  3.757529
N    -3.625678  -5.883210  1.688201
H    -3.840115  -0.707099  1.367678
H    -3.212989  -1.733840  2.626537
H    -2.377192  -1.961175  -0.344430
H    -3.778287  -2.724219  0.355650
H    -0.831194  -3.369195  0.897343
H    -2.063760  -4.392562  0.176957
H    -1.601676  -3.715877  2.999973
H    -3.210466  -6.614492  4.099815
H    -1.799395  -5.645755  4.339111
H    -3.981087  -6.820293  1.839436
H    -3.977634  -5.383582  0.882997
N    0.134033  0.160193  3.361976
C    1.246070  -0.177613  4.254867
H    -0.173224  1.127625  3.349048
H    1.951548  0.658308  4.279019
H    1.749764  -1.074615  3.882578
H    0.886727  -0.373655  5.273693
Ba    0.086980  2.835298  -2.811512
