37
Energy: -246334.882282 eV PBE+vdW (tier 2 basis)
C    0.441815  -1.094817  1.311805
C    -0.097548  0.003993  2.166560
O    0.440371  1.148865  2.178892
H    0.386053  -0.779977  0.259471
H    -0.092202  -2.043824  1.426949
H    1.504869  -1.250228  1.538905
N    -1.184857  -0.246403  2.923523
C    -1.910328  0.766565  3.706918
C    -1.096913  1.144070  4.973842
O    -0.291795  2.118420  4.897709
H    -1.567686  -1.186529  2.877561
H    -1.880950  1.689995  3.110880
C    -3.413031  0.415192  3.849769
C    -3.831087  -0.886605  4.564363
C    -5.246321  -1.385329  4.218092
N    -6.306111  -0.518807  4.749782
C    -7.603848  -0.580144  4.367707
N    -8.476724  0.295363  4.876783
N    -8.008792  -1.478520  3.465267
H    -3.800485  0.391039  2.819350
H    -3.896685  1.279740  4.325564
H    -3.764212  -0.784755  5.660254
H    -3.165682  -1.724645  4.302196
H    -5.354074  -2.408362  4.613921
H    -5.359685  -1.430460  3.124887
H    -6.142852  -0.099705  5.660949
H    -8.174588  1.119640  5.382587
H    -9.477557  0.167985  4.767751
H    -8.943070  -1.433031  3.070562
H    -7.483607  -2.324042  3.277951
N    -1.226140  0.441584  6.089778
C    -0.474160  0.699596  7.323671
H    -1.855049  -0.354711  6.085291
H    0.534880  0.272222  7.258408
H    -1.003185  0.232885  8.159203
H    -0.404129  1.778088  7.494625
Ba    1.333362  3.121653  3.310272
