37
Energy: -246335.233738 eV PBE+vdW (tier 2 basis)
C    -0.584587  0.232203  -0.597307
C    -1.037572  1.184695  0.459697
O    -1.200051  2.414655  0.206789
H    0.349236  0.595247  -1.046422
H    -1.336911  0.218336  -1.399719
H    -0.435623  -0.789979  -0.234085
N    -1.281913  0.700598  1.691768
C    -1.872315  1.450768  2.816319
C    -0.813871  2.420000  3.403909
O    -0.691668  3.572541  2.895022
H    -1.120508  -0.294238  1.832364
H    -2.649244  2.107232  2.396276
C    -2.529862  0.448605  3.786535
C    -3.406569  1.068230  4.889423
C    -4.033751  -0.026841  5.774559
N    -4.833112  0.513973  6.879620
C    -6.099525  0.178747  7.208243
N    -6.512495  0.347493  8.468452
N    -6.949771  -0.303706  6.294740
H    -1.763019  -0.207389  4.235628
H    -3.151101  -0.217221  3.167131
H    -4.203549  1.679264  4.440008
H    -2.811598  1.745242  5.522217
H    -3.244386  -0.663921  6.204205
H    -4.668237  -0.694289  5.178275
H    -4.320842  1.013500  7.601135
H    -5.859173  0.433369  9.239209
H    -7.499166  0.339571  8.706267
H    -7.832706  -0.717833  6.574188
H    -6.798795  -0.177096  5.302805
N    -0.045795  2.008810  4.401480
C    1.030008  2.797039  5.011718
H    -0.175730  1.060142  4.742190
H    0.758977  3.856463  5.000850
H    1.971089  2.652451  4.465036
H    1.167174  2.465564  6.045139
Ba    -0.765039  4.752772  0.709338
