37
Energy: -246335.191401 eV PBE+vdW (tier 2 basis)
C    -0.967294  0.530638  0.571453
C    -0.437342  0.348530  1.956618
O    0.685630  0.822132  2.293436
H    -1.934520  0.045976  0.402106
H    -0.241022  0.145051  -0.156238
H    -1.068083  1.608003  0.374980
N    -1.195397  -0.325390  2.844782
C    -0.895380  -0.499874  4.275682
C    0.190447  -1.593603  4.456922
O    1.402417  -1.275192  4.272355
H    -2.063292  -0.723704  2.496021
H    -0.401320  0.426420  4.606801
C    -2.187669  -0.680007  5.098712
C    -3.052387  0.596146  5.149714
C    -4.157664  0.616548  6.216741
N    -5.312988  -0.227714  5.876720
C    -6.302298  -0.541783  6.746783
N    -7.307647  -1.324880  6.340903
N    -6.263072  -0.109974  8.010471
H    -1.886703  -0.945437  6.123272
H    -2.777289  -1.530243  4.714941
H    -3.488982  0.823045  4.164090
H    -2.402534  1.452994  5.382444
H    -4.480211  1.662437  6.346900
H    -3.750507  0.267336  7.177127
H    -5.578396  -0.255438  4.896092
H    -8.148511  -1.436906  6.897581
H    -7.270664  -1.832411  5.465035
H    -6.924726  -0.454355  8.698929
H    -5.697750  0.683194  8.287596
N    -0.170991  -2.822931  4.787290
C    0.746357  -3.951582  4.978132
H    -1.161720  -3.009889  4.914541
H    0.815327  -4.546680  4.058298
H    0.364792  -4.584300  5.785642
H    1.736094  -3.574104  5.246505
Ba    2.918298  0.341947  3.174624
