37
Energy: -246334.097909 eV PBE+vdW (tier 2 basis)
C    0.156955  -0.661955  0.642562
C    -0.121226  -0.237260  2.047438
O    0.856769  -0.194193  2.898810
H    0.577004  0.187142  0.081078
H    -0.729262  -1.016800  0.109273
H    0.906762  -1.461136  0.642055
N    -1.332780  0.114183  2.441495
C    -2.587244  0.171973  1.655099
C    -3.383451  1.382855  2.209405
O    -3.830855  1.309229  3.364835
H    -1.448104  0.368409  3.426672
H    -2.326095  0.323708  0.600470
C    -3.409428  -1.116364  1.853465
C    -4.810432  -1.057566  1.193879
C    -5.963399  -1.485226  2.107044
N    -6.165855  -0.529119  3.201120
C    -7.266023  -0.455006  3.961875
N    -8.249762  -1.354695  3.842487
N    -7.385231  0.544396  4.849709
H    -3.498357  -1.279217  2.937362
H    -2.835485  -1.966181  1.459993
H    -4.832218  -1.714317  0.315548
H    -5.028046  -0.048518  0.811417
H    -5.769117  -2.493449  2.510584
H    -6.880716  -1.535672  1.501886
H    -5.397599  0.114151  3.419373
H    -9.130075  -1.240610  4.331309
H    -8.142631  -2.193307  3.287066
H    -8.144444  0.572165  5.519372
H    -6.720243  1.307050  4.869929
N    -3.539259  2.427785  1.386179
C    -4.284591  3.637459  1.736201
H    -3.155002  2.371174  0.447859
H    -4.406340  3.674276  2.821904
H    -5.271406  3.636724  1.255486
H    -3.728170  4.518901  1.400010
Ba    2.916235  -0.238742  4.022366
