37
Energy: -246334.547439 eV PBE+vdW (tier 2 basis)
C    -0.899653  -2.491165  -0.420748
C    -0.602077  -1.811712  0.873644
O    0.587910  -1.639907  1.269718
H    -1.970102  -2.609142  -0.618436
H    -0.418314  -3.478211  -0.436747
H    -0.449449  -1.906517  -1.236432
N    -1.631788  -1.369296  1.622340
C    -1.476300  -0.562148  2.841663
C    -0.874556  -1.420170  3.986364
O    0.364605  -1.282807  4.225875
H    -2.569559  -1.505706  1.253056
H    -0.677275  0.166589  2.639809
C    -2.765668  0.240235  3.123377
C    -2.679673  1.146006  4.365680
C    -3.691279  2.307862  4.385056
N    -5.096708  1.932289  4.600300
C    -5.872271  2.330337  5.633941
N    -7.200630  2.362654  5.482605
N    -5.334010  2.668598  6.810125
H    -3.634661  -0.429272  3.191315
H    -2.920897  0.865940  2.229824
H    -1.685783  1.619227  4.402095
H    -2.773101  0.552828  5.288236
H    -3.636824  2.866542  3.438452
H    -3.407924  3.022915  5.166844
H    -5.607795  1.594631  3.790581
H    -7.820384  2.450708  6.281558
H    -7.633764  2.404532  4.566715
H    -5.882815  3.146193  7.517368
H    -4.378289  2.440894  7.050335
N    -1.589819  -2.295282  4.683602
C    -2.994482  -2.690388  4.548977
H    -1.057418  -2.774183  5.410894
H    -3.657917  -1.999189  5.083990
H    -3.108477  -3.684571  4.991879
H    -3.287800  -2.758742  3.497153
Ba    2.436945  -1.469569  2.855989
