37
Energy: -246334.177983 eV PBE+vdW (tier 2 basis)
C    -0.922649  -0.184717  -0.664438
C    -0.323270  -0.143079  0.707241
O    0.868511  0.250577  0.861400
H    -0.307553  0.423443  -1.334964
H    -1.948711  0.196389  -0.672960
H    -0.936904  -1.215244  -1.050829
N    -1.041495  -0.495432  1.808555
C    -1.844470  -1.722122  1.930038
C    -0.879677  -2.933200  1.716890
O    0.291107  -2.735788  1.256453
H    -0.544213  -0.256948  2.667184
H    -2.138806  -1.752151  2.991255
C    -3.164543  -1.761285  1.118347
C    -4.103314  -0.601074  1.506904
C    -5.595002  -0.793771  1.197031
N    -5.925674  -0.648440  -0.228827
C    -7.140406  -0.937359  -0.752091
N    -7.344150  -0.780721  -2.064897
N    -8.121436  -1.410503  0.021730
H    -3.658059  -2.714283  1.350489
H    -2.967630  -1.788264  0.039735
H    -3.752856  0.350944  1.078373
H    -4.052381  -0.452268  2.596232
H    -6.155424  -0.052191  1.789900
H    -5.916023  -1.795203  1.520576
H    -5.380722  0.030273  -0.752880
H    -8.276584  -0.816988  -2.463146
H    -6.578750  -0.629300  -2.710610
H    -8.984949  -1.755185  -0.385476
H    -8.114777  -1.290268  1.027278
N    -1.256284  -4.156066  2.062642
C    -2.479273  -4.618160  2.726950
H    -0.561391  -4.877713  1.867003
H    -3.207633  -4.988988  1.994630
H    -2.924810  -3.822698  3.332079
H    -2.211607  -5.442543  3.396450
Ba    2.527816  -1.576039  1.035607
