37
Energy: -246333.784042 eV PBE+vdW (tier 2 basis)
C    0.157569  0.685334  0.102603
C    0.320017  0.019285  1.425532
O    1.509215  -0.379059  1.760018
H    -0.881627  0.864024  -0.170436
H    0.618565  0.074172  -0.680148
H    0.687176  1.650589  0.146385
N    -0.626193  -0.016509  2.369788
C    -2.071696  -0.234108  2.178731
C    -2.230867  -1.304174  1.041578
O    -1.235203  -1.715793  0.440241
H    -0.277188  -0.381710  3.254032
H    -2.367867  -0.745522  3.107193
C    -2.986420  1.016595  2.137565
C    -3.085870  1.887255  0.875543
C    -4.193515  2.942449  1.065627
N    -4.275678  3.922916  -0.024461
C    -5.356284  4.211551  -0.776266
N    -5.444432  5.409639  -1.365736
N    -6.335805  3.316826  -0.955651
H    -2.700321  1.643368  2.995601
H    -3.995033  0.650380  2.388959
H    -3.302894  1.276191  -0.014129
H    -2.135773  2.409104  0.690359
H    -4.021593  3.497965  2.000521
H    -5.175412  2.464785  1.176592
H    -3.520152  4.600192  -0.076555
H    -6.107373  5.581676  -2.114200
H    -4.903984  6.204348  -1.043005
H    -7.225639  3.592196  -1.356612
H    -6.196166  2.330934  -0.780396
N    -3.481812  -1.736941  0.815890
C    -3.780278  -2.819106  -0.127029
H    -4.224102  -1.446232  1.443334
H    -3.566111  -3.800244  0.316469
H    -3.168654  -2.696618  -1.025979
H    -4.839506  -2.771631  -0.395920
Ba    3.578566  -1.435907  1.801692
