37
Energy: -246334.012032 eV PBE+vdW (tier 2 basis)
C    -1.093205  -0.231257  -1.082636
C    -0.356855  -0.215390  0.214286
O    0.847081  0.260958  0.251999
H    -1.604744  0.735513  -1.208259
H    -1.852671  -1.017703  -1.137363
H    -0.389759  -0.365677  -1.910998
N    -0.899622  -0.688565  1.325522
C    -2.320565  -1.026654  1.513800
C    -3.153217  0.287126  1.312931
O    -2.588783  1.377470  1.353488
H    -0.336842  -0.572589  2.167143
H    -2.591221  -1.760420  0.740724
C    -2.562092  -1.689361  2.889359
C    -2.505882  -0.750671  4.105303
C    -2.745355  -1.443543  5.455044
N    -4.150523  -1.834924  5.639552
C    -4.591431  -2.700810  6.576042
N    -5.888813  -3.028391  6.612523
N    -3.741246  -3.258991  7.444132
H    -1.843024  -2.515742  3.007236
H    -3.549478  -2.169608  2.837498
H    -3.218886  0.080657  3.986428
H    -1.520434  -0.266736  4.185082
H    -2.437560  -0.758199  6.261002
H    -2.127960  -2.351469  5.524981
H    -4.850293  -1.206571  5.254939
H    -6.287947  -3.517940  7.405999
H    -6.518524  -2.799882  5.853025
H    -4.038383  -4.016318  8.050258
H    -2.835150  -2.851599  7.638418
N    -4.475805  0.097633  1.130075
C    -5.417452  1.200577  0.924563
H    -4.822983  -0.846740  0.993792
H    -6.338842  1.011126  1.485686
H    -5.665476  1.311112  -0.138930
H    -4.954170  2.124661  1.280651
Ba    2.782608  1.447784  -0.291400
