37
Energy: -246333.444705 eV PBE+vdW (tier 2 basis)
C    -2.911986  -0.177265  0.247443
C    -1.836344  -0.264214  1.287377
O    -0.632121  -0.134202  1.029597
H    -3.915405  -0.402510  0.624634
H    -2.669745  -0.866116  -0.572301
H    -2.911766  0.834023  -0.182220
N    -2.242535  -0.506603  2.582807
C    -1.290468  -0.573972  3.685334
C    -1.510843  -1.890674  4.444891
O    -1.999977  -1.904548  5.645529
H    -3.239172  -0.514349  2.778483
H    -0.307464  -0.661270  3.193453
C    -1.287776  0.670527  4.590904
C    -0.979704  2.019612  3.905032
C    0.486066  2.353521  3.565223
N    0.920356  1.822952  2.273128
C    1.858987  2.369513  1.485571
N    1.963202  1.948649  0.216973
N    2.679413  3.326119  1.939195
H    -0.562116  0.506428  5.404121
H    -2.280471  0.762129  5.060608
H    -1.310470  2.799690  4.603737
H    -1.607624  2.154295  3.012008
H    1.150722  1.999072  4.372126
H    0.571678  3.449466  3.533915
H    0.382848  1.049281  1.856192
H    1.263324  1.334777  -0.184206
H    2.754555  2.199361  -0.363751
H    2.764922  3.534048  2.925264
H    3.304499  3.820977  1.313087
N    -1.211840  -3.036527  3.862577
C    -0.669965  -3.282893  2.520499
H    -1.426822  -3.873386  4.404946
H    -1.489751  -3.475595  1.816328
H    -0.026983  -4.167464  2.570048
H    -0.082541  -2.431335  2.167163
Ba    -2.804759  -2.016007  7.854464
