37
Energy: -246333.126453 eV PBE+vdW (tier 2 basis)
C    1.277132  -0.515391  0.760176
C    0.778077  0.325267  1.902096
O    1.531437  0.984681  2.629093
H    0.486701  -0.921400  0.119286
H    1.857986  -1.355815  1.166842
H    1.966357  0.082234  0.151183
N    -0.583370  0.315092  2.101236
C    -1.362179  0.878884  3.203338
C    -2.129596  2.163482  2.814539
O    -3.416246  2.174653  3.014691
H    -1.108839  -0.264442  1.454303
H    -2.177859  0.159819  3.371928
C    -0.661818  1.054442  4.580645
C    -0.281534  -0.276789  5.274141
C    1.191213  -0.711149  5.269645
N    2.057450  0.168143  6.070155
C    3.314071  0.552133  5.749202
N    3.686748  0.690650  4.476097
N    4.178790  0.824779  6.736563
H    -1.394708  1.576191  5.214021
H    0.203099  1.720081  4.498956
H    -0.853875  -1.110458  4.839156
H    -0.613962  -0.223073  6.321220
H    1.598561  -0.763883  4.257913
H    1.245506  -1.727664  5.688641
H    1.840475  0.209809  7.062564
H    4.665577  0.816357  4.245398
H    3.000654  0.764940  3.717005
H    4.044678  0.469533  7.676192
H    5.047797  1.314558  6.554541
N    -1.567087  3.238426  2.306951
C    -0.163934  3.532277  1.998008
H    -2.218335  3.992274  2.084914
H    0.057025  4.544241  2.355942
H    -0.016607  3.502965  0.910503
H    0.506765  2.815826  2.478174
Ba    -5.749659  2.258474  3.284297
