37
Energy: -246334.961194 eV PBE+vdW (tier 2 basis)
C    -1.031799  -3.179617  0.089860
C    -0.731020  -2.188348  1.163628
O    0.419039  -1.670753  1.279062
H    -0.862850  -2.703371  -0.886907
H    -2.055607  -3.566294  0.123878
H    -0.326823  -4.019199  0.158083
N    -1.714904  -1.842646  2.015792
C    -1.601857  -0.784944  3.033194
C    -0.613554  -1.215265  4.149579
O    0.560305  -0.731934  4.106248
H    -2.628414  -2.265910  1.869346
H    -1.085146  0.063219  2.559883
C    -3.012339  -0.315444  3.446529
C    -3.050337  0.834849  4.467302
C    -4.503907  1.248642  4.766973
N    -4.600964  2.310675  5.775253
C    -5.346772  3.434698  5.703557
N    -5.688932  3.968407  4.525470
N    -5.735231  4.032690  6.834462
H    -3.602282  -1.163645  3.821610
H    -3.504441  0.009680  2.516226
H    -2.490078  1.703890  4.091310
H    -2.562484  0.529211  5.406968
H    -5.078139  0.378874  5.124326
H    -5.005702  1.586453  3.852088
H    -4.272147  2.074146  6.707213
H    -6.385395  4.703979  4.471162
H    -5.198382  3.740931  3.670854
H    -6.081706  4.986648  6.835355
H    -5.749963  3.542463  7.721912
N    -0.936487  -2.077233  5.107009
C    -2.173222  -2.832018  5.332765
H    -0.183264  -2.246453  5.774638
H    -2.912381  -2.235190  5.881591
H    -1.925320  -3.708674  5.939054
H    -2.598898  -3.187808  4.389902
Ba    2.378403  -0.758711  2.407823
