37
Energy: -246335.020094 eV PBE+vdW (tier 2 basis)
C    0.265605  0.090728  -0.066480
C    -0.261156  -0.334912  1.264249
O    0.490828  -0.392570  2.280096
H    1.098318  -0.564128  -0.356946
H    0.679490  1.105123  0.025329
H    -0.488293  0.082914  -0.860554
N    -1.566756  -0.653975  1.366788
C    -2.242494  -1.000120  2.626330
C    -1.753932  -2.381441  3.143767
O    -0.855099  -2.377098  4.042894
H    -2.126470  -0.611299  0.519033
H    -1.861288  -0.306268  3.390059
C    -3.770727  -0.814861  2.525085
C    -4.228164  0.656093  2.565190
C    -5.752710  0.771963  2.379160
N    -6.213973  2.164210  2.321709
C    -7.240971  2.713330  3.005076
N    -7.850193  3.794864  2.508398
N    -7.649344  2.205671  4.173845
H    -4.228265  -1.365348  3.360893
H    -4.148085  -1.293320  1.609334
H    -3.726885  1.231302  1.770472
H    -3.935433  1.120574  3.518594
H    -6.284877  0.258337  3.189282
H    -6.059128  0.270081  1.447476
H    -5.884881  2.710947  1.530826
H    -7.777580  4.048458  1.529341
H    -8.449343  4.375496  3.086249
H    -8.520070  2.510017  4.596006
H    -7.061340  1.598078  4.728650
N    -2.211631  -3.536610  2.679637
C    -3.180369  -3.830979  1.618408
H    -1.812210  -4.349630  3.150750
H    -2.971844  -4.838606  1.245685
H    -3.072490  -3.136289  0.780157
H    -4.208220  -3.811138  2.000821
Ba    1.393982  -1.400592  4.327388
