37
Energy: -246335.234153 eV PBE+vdW (tier 2 basis)
C    -0.633615  -0.513194  -0.268358
C    -0.653445  -0.881122  1.180066
O    -0.120597  -1.953152  1.588213
H    0.413174  -0.439921  -0.596711
H    -1.144492  0.429481  -0.490809
H    -1.093023  -1.316548  -0.859587
N    -1.247150  -0.032807  2.042217
C    -1.276572  -0.164109  3.508974
C    -2.306136  -1.253027  3.916331
O    -1.957328  -2.469610  3.857881
H    -1.700889  0.783643  1.639809
H    -0.303186  -0.578219  3.812838
C    -1.472207  1.212142  4.174775
C    -0.275847  2.174134  4.032319
C    -0.582328  3.545068  4.665285
N    0.499890  4.517862  4.476049
C    1.092832  5.272678  5.425887
N    1.671542  6.425682  5.075912
N    1.121963  4.881806  6.705499
H    -1.668173  1.038723  5.243463
H    -2.377404  1.697099  3.767309
H    -0.025263  2.319895  2.970000
H    0.616546  1.737654  4.505025
H    -0.779429  3.445945  5.739995
H    -1.500144  3.966820  4.225515
H    0.667526  4.820949  3.520688
H    1.445777  6.896754  4.206805
H    2.324777  6.897300  5.693122
H    1.410497  5.522272  7.437377
H    0.982059  3.916567  6.973036
N    -3.519859  -0.892771  4.299856
C    -4.586481  -1.820977  4.692604
H    -3.743123  0.098490  4.318040
H    -5.160314  -2.139998  3.812882
H    -5.256759  -1.308771  5.388982
H    -4.149610  -2.695374  5.182748
Ba    -0.447206  -4.079371  2.754962
