37
Energy: -246333.680295 eV PBE+vdW (tier 2 basis)
C    0.144639  1.182003  0.275395
C    0.027292  0.543137  1.617104
O    1.044605  0.553702  2.415805
H    0.000480  2.267922  0.386088
H    -0.596161  0.815327  -0.441393
H    1.147211  1.007576  -0.130762
N    -1.093306  -0.043969  2.009360
C    -2.438997  0.166987  1.432009
C    -2.696321  1.709195  1.460566
O    -2.170030  2.368494  2.356186
H    -1.081602  -0.394190  2.967360
H    -2.447384  -0.240859  0.412242
C    -3.440859  -0.595600  2.335451
C    -4.935568  -0.442560  1.998400
C    -5.519132  -1.359958  0.913987
N    -5.811269  -2.697286  1.453344
C    -6.307865  -3.727607  0.739323
N    -6.510753  -4.908692  1.334905
N    -6.561206  -3.587789  -0.567225
H    -3.295206  -0.212589  3.357617
H    -3.156073  -1.659669  2.345866
H    -5.154532  0.595890  1.720556
H    -5.511963  -0.594044  2.923890
H    -4.828463  -1.469778  0.063657
H    -6.447407  -0.898986  0.538339
H    -5.921108  -2.760708  2.461363
H    -7.047509  -5.642377  0.885349
H    -6.175593  -5.098491  2.271795
H    -6.677379  -2.674519  -0.988009
H    -6.838855  -4.383989  -1.131211
N    -3.479528  2.260081  0.505401
C    -4.100580  1.671705  -0.675709
H    -3.633240  3.257482  0.652113
H    -4.020734  2.376481  -1.511164
H    -5.167167  1.457881  -0.516097
H    -3.592126  0.748906  -0.974362
Ba    2.889575  1.254951  3.665939
