37
Energy: -246333.748900 eV PBE+vdW (tier 2 basis)
C    -1.741957  -0.769738  -0.088417
C    -1.418432  -0.571322  1.363005
O    -0.241713  -0.524174  1.771188
H    -1.489312  0.151632  -0.633026
H    -2.790332  -1.018803  -0.285114
H    -1.092545  -1.554648  -0.493949
N    -2.477525  -0.419210  2.212873
C    -2.467266  -0.299070  3.680870
C    -1.667103  0.903468  4.215447
O    -2.203520  1.654168  5.131631
H    -3.400209  -0.431359  1.789776
H    -3.505995  -0.051865  3.934904
C    -2.172091  -1.617019  4.464815
C    -0.775005  -2.271288  4.388950
C    -0.577312  -3.386850  3.352811
N    -1.190554  -4.648890  3.797114
C    -1.246325  -5.775599  3.058645
N    -1.881743  -6.851664  3.537137
N    -0.702914  -5.810357  1.835906
H    -2.947220  -2.332596  4.151315
H    -2.398010  -1.390613  5.517634
H    -0.530070  -2.682772  5.380575
H    0.003448  -1.522967  4.201075
H    0.505700  -3.525145  3.204147
H    -1.015352  -3.112265  2.383743
H    -1.326727  -4.764980  4.796968
H    -1.784286  -7.761503  3.099737
H    -2.468541  -6.802575  4.361412
H    0.012452  -5.149314  1.558949
H    -0.833498  -6.615571  1.232795
N    -0.464962  1.129509  3.757209
C    0.396603  2.231167  4.166753
H    -0.168233  0.461229  2.971323
H    1.351348  2.140329  3.641080
H    0.593023  2.194902  5.247240
H    -0.048452  3.199584  3.895337
Ba    -2.918603  3.341727  6.573078
