37
Energy: -246333.433680 eV PBE+vdW (tier 2 basis)
C    -0.452440  0.793687  -0.067616
C    -0.662362  0.606071  1.406483
O    -0.333335  1.438885  2.257736
H    -0.778333  -0.056201  -0.677134
H    0.614028  0.981235  -0.250691
H    -0.988056  1.694481  -0.396763
N    -1.268221  -0.568960  1.802108
C    -1.509850  -0.842456  3.214138
C    -1.000943  -2.251024  3.531771
O    -1.806635  -3.213008  3.861266
H    -1.608800  -1.209030  1.091335
H    -0.831642  -0.141914  3.734817
C    -2.935553  -0.537025  3.713790
C    -3.191500  0.956141  4.025629
C    -3.561355  1.858478  2.832289
N    -3.759580  3.250532  3.232695
C    -2.857875  4.249215  3.147172
N    -3.251999  5.498744  3.431073
N    -1.593052  4.017704  2.788203
H    -3.082074  -1.084971  4.656912
H    -3.680681  -0.924441  3.000892
H    -2.312926  1.373854  4.539214
H    -4.017552  1.010156  4.749071
H    -4.498876  1.517238  2.371396
H    -2.804492  1.838577  2.042014
H    -4.657878  3.489795  3.639605
H    -4.230933  5.743718  3.519989
H    -2.586167  6.259551  3.499670
H    -0.973917  4.797231  2.597589
H    -1.193781  3.082391  2.670368
N    0.295047  -2.497118  3.466685
C    1.394335  -1.580099  3.138108
H    0.569545  -3.463341  3.642132
H    1.585576  -1.590161  2.057528
H    2.290698  -1.925241  3.662647
H    1.165700  -0.559525  3.458820
Ba    -3.138940  -4.993234  4.621398
