37
Energy: -246335.314695 eV PBE+vdW (tier 2 basis)
C    -4.373966  2.261231  4.992542
C    -3.416210  1.531346  4.109607
O    -3.316854  1.810537  2.878759
H    -4.396761  1.886893  6.021300
H    -5.384454  2.207922  4.566498
H    -4.092597  3.324600  5.007519
N    -2.647549  0.572085  4.658597
C    -1.545970  -0.144280  3.988795
C    -2.131418  -1.187781  3.002169
O    -2.417380  -0.820225  1.825125
H    -2.784789  0.388491  5.650001
H    -1.027147  0.585109  3.348623
C    -0.565878  -0.653585  5.065079
C    0.770151  -1.207202  4.538655
C    1.707152  -1.575018  5.702463
N    2.992102  -2.082596  5.213958
C    4.143157  -2.101538  5.918802
N    4.154416  -1.779868  7.216889
N    5.285650  -2.420000  5.300743
H    -1.059949  -1.400597  5.711113
H    -0.358900  0.206673  5.720587
H    1.263023  -0.453696  3.906226
H    0.598748  -2.095582  3.909880
H    1.220727  -2.322997  6.351796
H    1.905787  -0.679443  6.309309
H    2.989853  -2.611550  4.347229
H    5.030973  -1.637914  7.708322
H    3.320161  -1.833730  7.788061
H    5.364666  -2.420210  4.290461
H    6.123966  -2.646954  5.825259
N    -2.343567  -2.425358  3.423841
C    -2.944183  -3.496617  2.622236
H    -2.118647  -2.642817  4.390917
H    -4.035376  -3.501710  2.743651
H    -2.545995  -4.457525  2.961683
H    -2.692980  -3.348773  1.568471
Ba    -3.316956  1.115683  0.549833
