37
Energy: -246334.580330 eV PBE+vdW (tier 2 basis)
C    -1.585906  1.034572  0.749544
C    -0.985215  0.377904  1.951531
O    -0.289568  -0.672141  1.830720
H    -0.794729  1.263248  0.023015
H    -2.139726  1.952036  0.974193
H    -2.264126  0.318936  0.262519
N    -1.214176  0.945838  3.150914
C    -0.866395  0.470212  4.510327
C    0.666648  0.383736  4.714780
O    1.348931  -0.561971  4.225341
H    -1.765699  1.799228  3.122516
H    -1.228767  1.276006  5.164277
C    -1.598910  -0.833964  4.901499
C    -1.597189  -1.134062  6.415257
C    -2.664899  -0.402132  7.256126
N    -4.019942  -0.958847  7.158218
C    -4.535411  -1.937986  7.933787
N    -5.801108  -2.324824  7.747443
N    -3.785579  -2.546703  8.859663
H    -1.142201  -1.674301  4.362923
H    -2.629514  -0.762762  4.523877
H    -0.612472  -0.897737  6.848533
H    -1.723287  -2.216282  6.557028
H    -2.751417  0.655349  6.971668
H    -2.355200  -0.377311  8.311032
H    -4.691235  -0.440913  6.602625
H    -6.379778  -1.937395  7.011362
H    -6.253607  -2.979964  8.376137
H    -4.175803  -3.279434  9.443018
H    -2.896081  -2.167215  9.156290
N    1.223947  1.339462  5.447687
C    2.652774  1.433794  5.761881
H    0.629750  2.091054  5.788118
H    3.080301  0.429689  5.831739
H    2.768031  1.947423  6.721151
H    3.179420  2.007608  4.987880
Ba    1.747136  -1.931150  2.204381
