37
Energy: -246334.076124 eV PBE+vdW (tier 2 basis)
C    -1.478739  -1.430131  1.676278
C    -1.553799  -1.383064  3.165437
O    -0.977824  -2.333159  3.846086
H    -2.049300  -2.298444  1.315653
H    -0.437266  -1.574942  1.361853
H    -1.872998  -0.532758  1.193726
N    -2.183719  -0.438143  3.826215
C    -2.655352  0.895245  3.424031
C    -2.211271  1.753626  4.663683
O    -1.999027  1.149259  5.725165
H    -2.088410  -0.398386  4.871517
H    -2.133047  1.220383  2.514013
C    -4.187736  1.010128  3.241862
C    -4.779405  0.249095  2.043631
C    -6.143672  0.765661  1.560571
N    -7.236278  0.542858  2.516392
C    -8.546569  0.578609  2.199262
N    -9.457924  0.237522  3.119525
N    -8.942235  0.927925  0.971254
H    -4.398433  2.084632  3.126542
H    -4.661843  0.706856  4.188611
H    -4.842528  -0.829510  2.250937
H    -4.114786  0.362820  1.173962
H    -6.400918  0.236791  0.632268
H    -6.059423  1.840698  1.325262
H    -7.018444  0.568089  3.506747
H    -10.444301  0.427759  2.980621
H    -9.202584  -0.260406  3.963545
H    -9.905518  0.803239  0.678488
H    -8.336412  1.432136  0.335905
N    -2.127942  3.075041  4.490968
C    -1.773017  4.014432  5.559023
H    -2.268249  3.456929  3.560437
H    -0.793208  4.464302  5.358159
H    -1.736457  3.468853  6.505068
H    -2.527202  4.806964  5.621304
Ba    0.357859  -3.856020  4.979849
