37
Energy: -246334.567510 eV PBE+vdW (tier 2 basis)
C    -1.374892  -0.826103  -0.386820
C    -1.345211  -0.687911  1.100936
O    -0.582540  -1.414211  1.802166
H    -0.360615  -0.690750  -0.786052
H    -2.051765  -0.123885  -0.884325
H    -1.679128  -1.852614  -0.637734
N    -2.153877  0.231602  1.661846
C    -2.411573  0.491982  3.096623
C    -1.107393  0.900365  3.824246
O    -0.328281  0.026593  4.308901
H    -2.727646  0.761957  1.011596
H    -3.067861  1.371028  3.090676
C    -3.153501  -0.666181  3.797037
C    -3.872356  -0.288469  5.112522
C    -5.316351  0.202441  4.910217
N    -5.961301  0.462591  6.200663
C    -7.280751  0.365031  6.464750
N    -7.698029  0.377947  7.735128
N    -8.168785  0.233316  5.472543
H    -2.441825  -1.475712  4.000062
H    -3.876647  -1.076352  3.077707
H    -3.291690  0.468328  5.666075
H    -3.903907  -1.176950  5.757340
H    -5.893319  -0.579441  4.395636
H    -5.343738  1.109107  4.281303
H    -5.380311  0.823328  6.951302
H    -8.674320  0.526026  7.968859
H    -7.063785  0.212398  8.508254
H    -9.136195  -0.000697  5.671419
H    -7.960802  0.531220  4.527637
N    -0.821913  2.192627  3.938185
C    -1.559831  3.352844  3.420856
H    0.039809  2.392437  4.446924
H    -1.712314  3.278070  2.337948
H    -0.958372  4.245669  3.613852
H    -2.521911  3.477607  3.933649
Ba    0.989925  -1.939238  3.571074
