37
Energy: -246333.927147 eV PBE+vdW (tier 2 basis)
C    0.510357  -1.395609  0.500432
C    0.329227  -0.906315  1.895756
O    1.133518  -1.362468  2.806303
H    -0.275549  -1.069201  -0.179277
H    0.541976  -2.489989  0.490918
H    1.478103  -1.016214  0.135148
N    -0.467037  0.112685  2.234629
C    -1.812040  0.408028  1.708323
C    -2.546662  -0.967477  1.522222
O    -1.934651  -2.020727  1.720397
H    -0.344170  0.393591  3.205718
H    -2.306492  0.895898  2.561686
C    -1.926546  1.450369  0.565965
C    -1.669088  1.051064  -0.896021
C    -2.148449  2.174966  -1.830060
N    -1.927966  1.840210  -3.240257
C    -1.927789  2.725357  -4.256844
N    -1.582304  2.318690  -5.484532
N    -2.243424  4.007608  -4.045544
H    -1.280659  2.297087  0.841197
H    -2.951677  1.847700  0.637231
H    -2.211993  0.122718  -1.138093
H    -0.599688  0.873846  -1.076485
H    -1.594529  3.099227  -1.607902
H    -3.219419  2.369157  -1.648103
H    -1.971553  0.859517  -3.499459
H    -1.753849  2.896611  -6.300054
H    -1.117051  1.432716  -5.641465
H    -2.098603  4.705160  -4.767691
H    -2.761253  4.302506  -3.227303
N    -3.840743  -0.895641  1.173621
C    -4.698976  -2.078570  1.062359
H    -4.294077  0.011705  1.145520
H    -5.116481  -2.356077  2.039003
H    -4.109257  -2.915705  0.678127
H    -5.518618  -1.859672  0.371446
Ba    2.323617  -2.755185  4.236068
