37
Energy: -246332.987179 eV PBE+vdW (tier 2 basis)
C    -0.431247  0.752661  -0.335002
C    -0.483023  0.229243  1.068425
O    0.415309  0.399643  1.900628
H    -1.278749  0.441779  -0.955416
H    0.502904  0.417240  -0.804075
H    -0.394628  1.850264  -0.306584
N    -1.603205  -0.493446  1.429290
C    -1.737871  -0.914859  2.818857
C    -2.313244  -2.329482  2.848887
O    -3.505277  -2.580627  3.295268
H    -2.399213  -0.513169  0.799417
H    -0.688045  -1.005031  3.149131
C    -2.405924  0.125231  3.742186
C    -1.790837  0.185723  5.151826
C    -0.390681  0.816709  5.246554
N    -0.412755  2.275546  5.047575
C    0.598102  3.011735  4.521030
N    0.785060  4.261197  4.966040
N    1.376362  2.520149  3.557321
H    -3.489653  -0.054183  3.805504
H    -2.299152  1.104059  3.255252
H    -1.714091  -0.824870  5.584594
H    -2.472950  0.734425  5.819022
H    0.294250  0.382006  4.510443
H    0.028200  0.597566  6.240627
H    -1.014287  2.789369  5.686755
H    0.428439  4.568012  5.863931
H    1.363448  4.920806  4.456587
H    2.221405  3.013069  3.290472
H    1.089218  1.728337  2.970562
N    -1.575766  -3.327705  2.395636
C    -0.218729  -3.287368  1.834892
H    -2.022398  -4.244154  2.394561
H    -0.260984  -3.097723  0.754941
H    0.250297  -4.259987  2.011951
H    0.382563  -2.509778  2.315304
Ba    -5.644997  -3.194155  4.052468
