37
Energy: -246334.686534 eV PBE+vdW (tier 2 basis)
C    -2.420195  0.316418  -0.145612
C    -1.951722  -0.049884  1.227055
O    -1.176473  -1.032631  1.400710
H    -3.087373  1.184316  -0.171546
H    -2.938423  -0.548030  -0.584272
H    -1.549457  0.518357  -0.784412
N    -2.387732  0.705799  2.256315
C    -2.160775  0.533847  3.709072
C    -0.661616  0.646224  4.066187
O    0.125413  -0.331266  3.885890
H    -2.982362  1.486516  1.994070
H    -2.666674  1.395226  4.161315
C    -2.780733  -0.758632  4.287242
C    -4.322379  -0.827900  4.258034
C    -5.017411  -0.203159  5.479174
N    -6.462448  -0.447275  5.406024
C    -7.403216  0.121379  6.187363
N    -8.695498  -0.056218  5.895563
N    -7.050617  0.885677  7.228690
H    -2.416736  -0.877185  5.319299
H    -2.383340  -1.615356  3.728887
H    -4.599442  -1.892036  4.218787
H    -4.714601  -0.377240  3.333469
H    -4.853345  0.884835  5.523173
H    -4.599120  -0.648497  6.398007
H    -6.771091  -1.220024  4.823724
H    -9.424579  0.174425  6.562591
H    -8.997009  -0.422069  4.999609
H    -7.749059  1.416068  7.739555
H    -6.146823  0.787149  7.674113
N    -0.208406  1.777817  4.591088
C    -0.922789  3.031578  4.866707
H    0.781287  1.756537  4.840393
H    -0.180504  3.784211  5.147792
H    -1.621394  2.916443  5.705053
H    -1.447204  3.395895  3.976095
Ba    0.838847  -2.073315  2.305797
