37
Energy: -246334.253248 eV PBE+vdW (tier 2 basis)
C    -0.151482  0.403589  0.584187
C    -0.227419  0.150103  2.056407
O    0.771403  0.361910  2.801998
H    -0.955275  1.076674  0.260314
H    -0.253301  -0.529308  0.009083
H    0.812573  0.859444  0.342543
N    -1.374312  -0.312117  2.624831
C    -2.184321  -1.402637  2.065949
C    -1.227329  -2.617334  1.832164
O    -0.060873  -2.612126  2.329863
H    -1.333391  -0.300797  3.642988
H    -2.831524  -1.713620  2.901476
C    -3.119417  -0.987736  0.890983
C    -4.563791  -1.513411  1.017493
C    -5.487204  -0.914209  -0.056315
N    -6.872411  -1.349043  0.145472
C    -7.848261  -1.320522  -0.787063
N    -9.024987  -1.897040  -0.521070
N    -7.637825  -0.750834  -1.979041
H    -2.684049  -1.275415  -0.077121
H    -3.154119  0.109813  0.898406
H    -4.950364  -1.243459  2.013844
H    -4.609065  -2.612809  0.952720
H    -5.166747  -1.241931  -1.056214
H    -5.420209  0.186683  -0.021285
H    -7.177032  -1.501406  1.102511
H    -9.841369  -1.721034  -1.097289
H    -9.143525  -2.538359  0.254840
H    -8.310534  -0.860342  -2.731094
H    -6.918835  -0.051196  -2.115876
N    -1.681701  -3.655907  1.149644
C    -0.927096  -4.895515  0.925530
H    -2.624640  -3.610058  0.775834
H    -1.551707  -5.581502  0.347791
H    -0.671098  -5.364102  1.882997
H    -0.010238  -4.687356  0.361886
Ba    1.994725  -1.677743  3.484212
