37
Energy: -246335.178851 eV PBE+vdW (tier 2 basis)
C    -1.963899  0.885002  1.229135
C    -1.120982  0.309781  2.324025
O    -0.352981  -0.669408  2.095507
H    -2.602630  1.714906  1.548937
H    -2.593026  0.086825  0.811062
H    -1.314300  1.232610  0.414073
N    -1.215345  0.877184  3.541882
C    -0.589944  0.488241  4.825693
C    0.953140  0.569800  4.791341
O    1.654854  -0.259586  4.141385
H    -1.843039  1.674700  3.594541
H    -0.927332  1.267484  5.523288
C    -1.086031  -0.867271  5.384129
C    -2.555169  -0.825307  5.843543
C    -3.015855  -2.159818  6.460734
N    -4.434945  -2.166540  6.830705
C    -4.956127  -2.292148  8.068362
N    -6.220521  -2.703470  8.207126
N    -4.230539  -2.010204  9.157685
H    -0.436483  -1.127576  6.234439
H    -0.941115  -1.652832  4.628598
H    -3.209017  -0.584392  4.991272
H    -2.693900  -0.018124  6.579996
H    -2.424347  -2.411848  7.350756
H    -2.857121  -2.982984  5.747714
H    -5.102484  -2.232754  6.067894
H    -6.713937  -3.180370  7.460559
H    -6.720355  -2.587992  9.082767
H    -4.558311  -2.271401  10.081518
H    -3.405732  -1.427013  9.114084
N    1.508868  1.530160  5.517735
C    2.951107  1.746819  5.663321
H    0.897330  2.185905  5.997260
H    3.318557  2.422424  4.879761
H    3.474863  0.789035  5.600041
H    3.139766  2.202197  6.640206
Ba    1.895982  -1.607042  2.106923
