37
Energy: -246334.570730 eV PBE+vdW (tier 2 basis)
C    -1.508012  -0.358828  -0.645936
C    -1.431533  -0.416448  0.845559
O    -0.664069  -1.240868  1.421789
H    -2.185684  0.412513  -1.026284
H    -1.837898  -1.339031  -1.019387
H    -0.503333  -0.186744  -1.055434
N    -2.202717  0.436618  1.546908
C    -2.409749  0.513338  3.011238
C    -1.072222  0.793644  3.739790
O    -0.306895  -0.153861  4.088785
H    -2.786571  1.054360  0.989382
H    -3.041134  1.400932  3.141638
C    -3.161191  -0.709648  3.579459
C    -3.842216  -0.489586  4.949379
C    -5.275129  0.062305  4.847956
N    -5.885808  0.168260  6.176576
C    -7.201200  0.065983  6.458724
N    -7.590373  -0.070726  7.730721
N    -8.113504  0.078087  5.480010
H    -2.462697  -1.551457  3.661114
H    -3.908967  -1.012375  2.832568
H    -3.228027  0.170532  5.584489
H    -3.888277  -1.454837  5.471541
H    -5.885117  -0.630145  4.250160
H    -5.289557  1.043941  4.343654
H    -5.280221  0.418075  6.952387
H    -8.558152  0.065261  8.003774
H    -6.944548  -0.346412  8.461702
H    -9.081621  -0.158711  5.671746
H    -7.919143  0.486815  4.574575
N    -0.742571  2.054063  3.999156
C    -1.457282  3.288956  3.647721
H    0.140129  2.166155  4.498695
H    -1.626610  3.357026  2.566823
H    -0.830005  4.134671  3.943533
H    -2.408307  3.369859  4.188910
Ba    0.940209  -2.032716  3.058578
