37
Energy: -246333.191180 eV PBE+vdW (tier 2 basis)
C    0.887147  -1.348112  2.382401
C    -0.121948  -0.330824  1.939951
O    0.121997  0.528297  1.086761
H    1.777969  -0.824608  2.754369
H    1.211164  -1.934384  1.512140
H    0.521567  -2.033654  3.155295
N    -1.367303  -0.382618  2.547909
C    -2.437668  0.470337  2.070855
C    -3.126822  1.222711  3.207035
O    -3.144527  0.757234  4.414404
H    -1.610341  -1.252808  3.011148
H    -1.924777  1.226964  1.457086
C    -3.487964  -0.282525  1.202396
C    -2.956045  -0.958593  -0.077198
C    -2.695085  -0.079803  -1.312370
N    -1.389581  0.585088  -1.293569
C    -0.711874  0.981492  -2.382780
N    0.573552  1.338725  -2.250596
N    -1.295593  1.025301  -3.586470
H    -4.303462  0.406039  0.936236
H    -3.949036  -1.059423  1.832253
H    -3.730768  -1.676917  -0.378994
H    -2.068222  -1.572148  0.136988
H    -3.504521  0.662593  -1.420723
H    -2.738898  -0.736781  -2.193850
H    -0.864936  0.611977  -0.408807
H    1.067191  1.188117  -1.378251
H    1.086650  1.771744  -3.009174
H    -2.292066  0.897299  -3.703660
H    -0.759602  1.219190  -4.424750
N    -3.745743  2.361809  2.951782
C    -3.848713  3.104108  1.689754
H    -4.246352  2.776650  3.737360
H    -3.822692  4.174724  1.918451
H    -4.797060  2.872805  1.187771
H    -3.011319  2.867363  1.028271
Ba    -3.084960  0.227558  6.711356
