37
Energy: -246335.274707 eV PBE+vdW (tier 2 basis)
C    -0.865593  0.520207  -0.630770
C    -1.281227  1.424877  0.482092
O    -1.354488  2.677686  0.315478
H    -0.785494  -0.531389  -0.336232
H    0.096364  0.854947  -1.040496
H    -1.602615  0.606167  -1.443000
N    -1.590032  0.872496  1.670333
C    -2.163546  1.577755  2.831786
C    -1.061423  2.424153  3.519985
O    -0.838541  3.595694  3.095555
H    -1.499947  -0.138611  1.740728
H    -2.879794  2.316425  2.441299
C    -2.922722  0.553543  3.699606
C    -3.779656  1.144121  4.833463
C    -4.630382  0.050263  5.502075
N    -5.469712  0.605620  6.567485
C    -6.060961  -0.111830  7.546350
N    -6.665304  0.526388  8.554226
N    -6.020835  -1.448615  7.531148
H    -2.223145  -0.198722  4.104677
H    -3.579312  -0.000505  3.010605
H    -4.446536  1.916840  4.418109
H    -3.152067  1.633355  5.593079
H    -3.975048  -0.712570  5.948368
H    -5.255242  -0.443687  4.738516
H    -5.788201  1.564009  6.461492
H    -6.507623  1.511137  8.734102
H    -7.288974  0.039536  9.189370
H    -6.326994  -1.985593  8.336103
H    -5.861819  -1.967995  6.676608
N    -0.364326  1.891207  4.511983
C    0.740909  2.552625  5.213269
H    -0.577200  0.934894  4.782289
H    0.794090  2.163211  6.234244
H    0.561877  3.630903  5.242650
H    1.693607  2.351307  4.706112
Ba    -0.772090  4.935149  1.001311
