37
Energy: -246334.610091 eV PBE+vdW (tier 2 basis)
C    1.449264  -0.607508  0.829356
C    1.097589  -0.400770  2.268309
O    1.943059  0.087620  3.073299
H    0.628172  -1.005133  0.223840
H    2.301684  -1.299896  0.773402
H    1.786418  0.342999  0.394523
N    -0.141333  -0.751834  2.662704
C    -0.733702  -0.783526  4.019897
C    -0.792832  0.626816  4.658030
O    0.234795  1.180228  5.144463
H    -0.738362  -1.116717  1.925436
H    -1.772506  -1.095993  3.841779
C    -0.069665  -1.830183  4.942692
C    -0.872759  -2.140668  6.224725
C    -1.955127  -3.228350  6.123925
N    -1.368460  -4.576355  6.117849
C    -2.065589  -5.720353  5.934433
N    -1.415591  -6.888255  5.905362
N    -3.388934  -5.687497  5.742257
H    0.932273  -1.475200  5.216255
H    0.084079  -2.743347  4.350117
H    -1.364420  -1.230087  6.598568
H    -0.174422  -2.419939  7.027851
H    -2.555514  -3.110351  5.208192
H    -2.633277  -3.114394  6.985348
H    -0.468277  -4.679823  6.577458
H    -1.912726  -7.771439  5.954857
H    -0.405078  -6.937759  5.848287
H    -3.896599  -6.529460  5.489437
H    -3.949998  -4.899762  6.042749
N    -1.981819  1.215242  4.693462
C    -2.244098  2.539598  5.265145
H    -2.767066  0.737709  4.258909
H    -3.293921  2.588476  5.569008
H    -2.053936  3.324948  4.521688
H    -1.604264  2.696540  6.138489
Ba    2.621303  1.698348  4.753707
