37
Energy: -246335.148707 eV PBE+vdW (tier 2 basis)
C    -0.834737  0.145238  0.155029
C    -0.501987  -0.085027  1.594677
O    0.306746  -1.000057  1.929973
H    -1.504953  0.994108  -0.015584
H    -1.306510  -0.765124  -0.243045
H    0.090147  0.297321  -0.416813
N    -1.091995  0.711256  2.504268
C    -1.090589  0.644694  3.984183
C    0.322668  0.841961  4.580070
O    1.203888  -0.064857  4.529068
H    -1.713815  1.415732  2.115486
H    -1.682783  1.523329  4.275617
C    -1.831849  -0.597853  4.533065
C    -2.334593  -0.411942  5.976884
C    -3.332541  -1.506229  6.388572
N    -3.869794  -1.237549  7.726677
C    -4.558853  -2.114294  8.485923
N    -4.857042  -1.796627  9.750173
N    -4.916206  -3.306501  7.994364
H    -1.191736  -1.487549  4.451626
H    -2.689806  -0.766531  3.865946
H    -2.840248  0.565457  6.052654
H    -1.495213  -0.395416  6.688428
H    -2.837542  -2.488758  6.405104
H    -4.150092  -1.548166  5.648649
H    -3.885041  -0.270637  8.036509
H    -4.412249  -1.020261  10.226197
H    -5.539647  -2.327029  10.281290
H    -5.311892  -4.018388  8.599725
H    -4.991256  -3.469745  6.998017
N    0.554112  2.006595  5.173023
C    1.815909  2.390427  5.810970
H    -0.181980  2.708026  5.154224
H    1.601087  3.098582  6.616900
H    2.482233  2.874309  5.084654
H    2.303413  1.503263  6.224343
Ba    2.311746  -1.722759  3.067150
