37
Energy: -246333.215666 eV PBE+vdW (tier 2 basis)
C    0.020874  -0.444140  0.313422
C    -0.177614  -0.302387  1.783600
O    0.881300  -0.295769  2.539601
H    -0.902639  -0.542246  -0.255047
H    0.647554  -1.327152  0.127750
H    0.569646  0.431000  -0.063733
N    -1.355630  -0.191360  2.380625
C    -2.785003  -0.037920  1.963872
C    -3.691911  -1.207977  2.441484
O    -4.757962  -0.889816  2.978381
H    -1.267076  -0.128311  3.396592
H    -3.124732  0.787259  2.604811
C    -3.087131  0.388644  0.513354
C    -4.518958  0.961298  0.356038
C    -5.591231  -0.069987  -0.050810
N    -6.941815  0.486351  -0.041970
C    -7.823447  0.406630  0.973229
N    -9.082415  0.821357  0.772706
N    -7.462403  -0.076166  2.164540
H    -2.943350  -0.440939  -0.193991
H    -2.375970  1.178913  0.236770
H    -4.485405  1.742083  -0.415621
H    -4.824956  1.465450  1.283844
H    -5.584857  -0.954117  0.597916
H    -5.398716  -0.432628  -1.069805
H    -7.238252  1.003100  -0.863484
H    -9.736469  0.912856  1.540977
H    -9.442614  1.002879  -0.156536
H    -6.493910  -0.287854  2.415806
H    -8.168449  -0.282925  2.861309
N    -3.349753  -2.496279  2.232812
C    -2.221236  -3.070147  1.508854
H    -4.033775  -3.150390  2.610562
H    -2.472180  -4.103500  1.250224
H    -1.304979  -3.091763  2.115913
H    -2.033021  -2.540378  0.568282
Ba    3.023109  -0.164328  3.501419
