37
Energy: -246334.646719 eV PBE+vdW (tier 2 basis)
C    -1.941563  1.658051  1.408194
C    -1.187209  0.800983  2.374901
O    -0.539534  -0.207263  1.970656
H    -1.253602  2.034867  0.639286
H    -2.454179  2.507028  1.872386
H    -2.682040  1.033292  0.888473
N    -1.229803  1.147644  3.676831
C    -0.680034  0.452475  4.863460
C    0.864092  0.377517  4.831308
O    1.475068  -0.409456  4.051327
H    -1.748874  1.998382  3.875102
H    -0.947324  1.114699  5.698989
C    -1.317382  -0.933927  5.123240
C    -2.836250  -0.899761  5.394809
C    -3.283288  -0.522749  6.823866
N    -3.271876  -1.625880  7.793104
C    -4.357703  -2.283028  8.254994
N    -4.271224  -2.971901  9.398129
N    -5.513925  -2.258510  7.583288
H    -0.779011  -1.398059  5.964386
H    -1.126644  -1.576651  4.254074
H    -3.250947  -1.887091  5.147355
H    -3.315644  -0.198753  4.695041
H    -4.301665  -0.114078  6.798470
H    -2.660272  0.280209  7.245041
H    -2.403676  -1.820078  8.280344
H    -3.540920  -2.791576  10.077765
H    -4.989403  -3.636065  9.668618
H    -6.372244  -2.589377  8.011927
H    -5.567408  -1.984574  6.611030
N    1.518193  1.154621  5.684357
C    2.977213  1.198771  5.825140
H    0.980717  1.793083  6.264795
H    3.220276  1.570090  6.824934
H    3.415556  1.874433  5.079045
H    3.390662  0.193713  5.698970
Ba    1.560867  -1.428079  1.811367
