37
Energy: -246334.160506 eV PBE+vdW (tier 2 basis)
C    -0.122536  -0.191061  -0.605986
C    0.315493  -0.645137  0.750952
O    1.526862  -0.963808  0.936762
H    -0.914917  0.560300  -0.569321
H    -0.479194  -1.044908  -1.202654
H    0.750288  0.227098  -1.119778
N    -0.530534  -0.685240  1.819822
C    -1.837730  -1.365662  1.864236
C    -1.524950  -2.893177  1.793504
O    -0.488749  -3.285929  1.165059
H    -0.005236  -0.816789  2.686194
H    -2.237430  -1.141733  2.863151
C    -2.870224  -0.854744  0.823729
C    -4.332717  -1.229876  1.118025
C    -5.363751  -0.602188  0.165194
N    -5.598448  0.821690  0.445935
C    -6.326175  1.643782  -0.345284
N    -6.465568  2.929130  -0.003758
N    -6.872042  1.191970  -1.478482
H    -2.608932  -1.213225  -0.180738
H    -2.767351  0.239986  0.813780
H    -4.603332  -0.972738  2.154988
H    -4.469660  -2.315886  1.028757
H    -6.304611  -1.167282  0.265494
H    -5.022268  -0.697943  -0.876427
H    -5.523136  1.109637  1.417683
H    -7.140973  3.528768  -0.466114
H    -5.912558  3.350603  0.733115
H    -7.307376  1.830325  -2.136720
H    -7.027675  0.204513  -1.639988
N    -2.294981  -3.781366  2.410578
C    -3.418373  -3.611112  3.337751
H    -2.006540  -4.749178  2.257306
H    -3.250682  -4.260596  4.204727
H    -4.361743  -3.904251  2.861851
H    -3.489838  -2.579264  3.688887
Ba    2.027684  -3.374730  0.844895
