37
Energy: -246333.302036 eV PBE+vdW (tier 2 basis)
C    -0.307964  -0.868827  0.338411
C    -0.371725  -0.567747  1.809058
O    0.612817  -0.599498  2.556058
H    0.292691  -0.094909  -0.160383
H    -1.287133  -0.918511  -0.150556
H    0.219557  -1.819430  0.191698
N    -1.609193  -0.217400  2.307665
C    -1.772288  0.148933  3.712042
C    -3.003363  -0.571442  4.276615
O    -2.818418  -1.624377  5.010474
H    -2.373547  -0.098102  1.650531
H    -0.917599  -0.330878  4.210211
C    -1.697434  1.661449  4.047423
C    -0.262837  2.232530  4.092407
C    0.282716  2.731463  2.741426
N    1.631514  3.285023  2.848185
C    2.782038  2.660100  2.536884
N    3.914314  3.376065  2.487247
N    2.813050  1.349255  2.275338
H    -2.148843  1.804782  5.041110
H    -2.312421  2.247271  3.350334
H    0.426455  1.489534  4.518680
H    -0.264692  3.084335  4.787079
H    -0.362682  3.528730  2.346732
H    0.300201  1.943543  1.980531
H    1.712625  4.240355  3.181994
H    4.820404  2.928189  2.416253
H    3.904193  4.389054  2.461159
H    2.030049  0.713895  2.451621
H    3.652934  0.936040  1.887226
N    -4.242086  -0.178141  4.048132
C    -4.758701  0.951140  3.262895
H    -4.960941  -0.742206  4.502653
H    -5.688217  0.631902  2.779603
H    -4.050594  1.258301  2.490984
H    -4.974383  1.802524  3.920846
Ba    -2.416249  -3.557442  6.285246
