37
Energy: -246334.034160 eV PBE+vdW (tier 2 basis)
C    0.392939  0.424346  0.811509
C    0.017633  0.084438  2.211922
O    0.939554  0.099922  3.130656
H    -0.326028  0.034898  0.083527
H    1.379456  0.000907  0.588985
H    0.473530  1.519107  0.722402
N    -1.217202  -0.215869  2.593664
C    -2.502650  -0.369684  1.844835
C    -2.421674  -1.593227  0.883794
O    -1.793612  -1.492937  -0.169624
H    -1.296332  -0.409207  3.591290
H    -3.230411  -0.568581  2.643965
C    -2.945739  0.895121  1.090052
C    -4.379619  0.757993  0.548776
C    -4.815263  2.009410  -0.233573
N    -6.215936  1.972742  -0.665223
C    -6.674133  1.761052  -1.911400
N    -7.932647  2.099956  -2.216153
N    -5.890952  1.217882  -2.852557
H    -2.257128  1.076915  0.254072
H    -2.880857  1.756086  1.772076
H    -5.081873  0.596838  1.381569
H    -4.454534  -0.127405  -0.100830
H    -4.183638  2.167609  -1.118475
H    -4.696906  2.907447  0.389606
H    -6.915209  2.214386  0.030426
H    -8.381344  1.760886  -3.059967
H    -8.468155  2.737219  -1.637654
H    -5.042734  0.719674  -2.618753
H    -6.162176  1.235521  -3.829178
N    -3.081167  -2.695361  1.294013
C    -3.134027  -3.932958  0.516739
H    -3.590596  -2.667986  2.171114
H    -2.716956  -4.764370  1.097587
H    -2.544755  -3.793466  -0.393561
H    -4.170473  -4.171681  0.249192
Ba    2.948564  0.160995  4.316832
