37
Energy: -246334.223956 eV PBE+vdW (tier 2 basis)
C    -0.065743  0.110564  0.502394
C    -0.599455  -0.246048  1.851272
O    0.085832  -0.922551  2.667286
H    0.564822  -0.713044  0.146305
H    0.583821  0.997954  0.573265
H    -0.850643  0.317026  -0.232213
N    -1.845593  0.167199  2.222244
C    -2.289809  1.549649  2.022810
C    -1.329226  2.470621  2.840208
O    -0.514843  1.948172  3.669506
H    -2.115836  -0.207566  3.132926
H    -2.172968  1.807615  0.959678
C    -3.769998  1.727321  2.438019
C    -4.838831  1.422438  1.370241
C    -5.177548  -0.055141  1.118679
N    -6.360280  -0.126448  0.251114
C    -6.797113  -1.205460  -0.426337
N    -6.244408  -2.408742  -0.219328
N    -7.766741  -1.063940  -1.335385
H    -3.915205  2.771275  2.742082
H    -3.955128  1.142181  3.353597
H    -4.567030  1.903831  0.418148
H    -5.758232  1.922437  1.713165
H    -5.378058  -0.557261  2.080843
H    -4.347976  -0.580506  0.623204
H    -6.979730  0.678946  0.256505
H    -6.486330  -3.194461  -0.814108
H    -5.784244  -2.630394  0.654552
H    -8.271494  -1.865240  -1.699546
H    -8.043871  -0.153610  -1.685307
N    -1.348453  3.781086  2.654933
C    -2.149605  4.585118  1.726297
H    -0.712363  4.304374  3.258591
H    -2.999660  5.044929  2.246993
H    -2.512405  3.979587  0.891091
H    -1.515274  5.382301  1.323689
Ba    1.076343  0.269672  4.625923
