37
Energy: -246334.092380 eV PBE+vdW (tier 2 basis)
C    -0.715139  -2.456415  -0.028001
C    -0.224944  -1.248626  0.698944
O    1.050143  -1.139230  0.939684
H    -0.324698  -2.446908  -1.056090
H    -1.804998  -2.525737  -0.071679
H    -0.323674  -3.358620  0.459784
N    -1.026417  -0.288925  1.099524
C    -2.456716  -0.051166  0.838656
C    -2.507352  1.509584  0.819540
O    -1.707266  2.091247  1.566196
H    -0.646957  0.557649  1.571932
H    -2.733186  -0.494813  -0.124848
C    -3.333158  -0.624090  1.983898
C    -4.844545  -0.454227  1.753714
C    -5.747134  -1.126379  2.800550
N    -5.866789  -0.349037  4.041158
C    -6.920605  -0.385068  4.878302
N    -7.026170  0.532831  5.848753
N    -7.868926  -1.318062  4.742200
H    -3.008220  -0.140999  2.918897
H    -3.098497  -1.695220  2.084226
H    -5.113159  -0.904602  0.786934
H    -5.117177  0.608772  1.684521
H    -5.384183  -2.144317  3.020596
H    -6.754891  -1.216149  2.372813
H    -5.070054  0.200876  4.344281
H    -7.689485  0.421787  6.607697
H    -6.505561  1.401187  5.819154
H    -8.746792  -1.246863  5.245389
H    -7.709285  -2.171901  4.222249
N    -3.391907  2.153961  0.043601
C    -4.316665  1.652010  -0.969443
H    -3.338608  3.167790  0.144681
H    -5.359298  1.781034  -0.651278
H    -4.141645  0.592417  -1.175289
H    -4.168955  2.206285  -1.903844
Ba    3.363829  -1.022603  1.097837
