37
Energy: -246334.589669 eV PBE+vdW (tier 2 basis)
C    -1.208847  -0.404601  -0.242787
C    -0.738947  -0.481142  1.172300
O    0.493710  -0.494963  1.455538
H    -0.788940  -1.244258  -0.813146
H    -0.813754  0.514791  -0.697978
H    -2.299061  -0.414095  -0.344465
N    -1.661421  -0.529892  2.155052
C    -1.339315  -0.514740  3.588735
C    -0.666546  -1.849555  4.013562
O    0.600999  -1.854226  4.101796
H    -2.639893  -0.528686  1.879518
H    -0.524191  0.212851  3.717090
C    -2.525726  -0.036471  4.453677
C    -2.754896  1.486047  4.377995
C    -3.685890  2.056840  5.466282
N    -5.122396  1.799576  5.289771
C    -6.067638  2.736705  5.054353
N    -5.753385  3.902391  4.479576
N    -7.339274  2.484634  5.383268
H    -2.297113  -0.313969  5.494400
H    -3.442650  -0.580943  4.184964
H    -3.123139  1.778722  3.382859
H    -1.788032  1.995803  4.512172
H    -3.544007  3.142825  5.530381
H    -3.397948  1.663659  6.452674
H    -5.476022  0.909953  5.627004
H    -6.409544  4.676257  4.475283
H    -4.870960  4.049100  4.007635
H    -8.097320  3.066909  5.042073
H    -7.585069  1.773849  6.063294
N    -1.345762  -2.961701  4.261655
C    -2.780576  -3.245691  4.176832
H    -0.757049  -3.739440  4.563792
H    -3.291473  -2.990196  5.113439
H    -2.901151  -4.319370  4.001441
H    -3.239209  -2.716965  3.336065
Ba    2.506435  -1.244011  2.651902
