37
Energy: -246333.938703 eV PBE+vdW (tier 2 basis)
C    1.058537  -0.064997  0.549024
C    0.403243  0.358382  1.828012
O    0.979384  1.090626  2.665900
H    1.309970  0.831222  -0.034533
H    0.448776  -0.735927  -0.065171
H    2.011202  -0.561919  0.778945
N    -0.862271  -0.081350  2.059817
C    -1.617966  0.100333  3.308529
C    -2.111300  1.548388  3.490811
O    -3.365293  1.787747  3.704866
H    -1.301487  -0.644472  1.338410
H    -2.523618  -0.506572  3.183410
C    -0.898389  -0.386484  4.599078
C    -0.377159  -1.837100  4.537907
C    1.117390  -2.023644  4.237620
N    1.988719  -1.549180  5.324740
C    3.122370  -0.828082  5.188976
N    3.282455  0.026895  4.173353
N    4.087991  -0.960158  6.107716
H    -1.638900  -0.301598  5.407358
H    -0.085268  0.301397  4.862547
H    -0.933177  -2.422014  3.789865
H    -0.596155  -2.327780  5.497101
H    1.423497  -1.522233  3.315184
H    1.311099  -3.096159  4.086118
H    1.909011  -2.059966  6.200483
H    4.196204  0.426121  3.990753
H    2.495350  0.392551  3.629878
H    4.143304  -1.774384  6.709484
H    4.845592  -0.289601  6.177995
N    -1.218777  2.507917  3.450791
C    -1.491426  3.933133  3.606992
H    -0.243118  2.180469  3.260687
H    -0.549930  4.479903  3.507649
H    -1.909970  4.142614  4.600505
H    -2.177652  4.287381  2.825860
Ba    -5.598717  2.437175  4.007721
