37
Energy: -246334.418185 eV PBE+vdW (tier 2 basis)
C    -2.774162  0.243157  -0.200128
C    -1.822933  0.380621  0.950068
O    -0.575692  0.332182  0.745789
H    -2.588048  1.049247  -0.923270
H    -3.830752  0.265251  0.086405
H    -2.563046  -0.701187  -0.720721
N    -2.368713  0.563990  2.167843
C    -1.843557  0.644804  3.552052
C    -0.669165  1.610504  3.785365
O    0.394956  1.600125  3.095958
H    -3.385335  0.591858  2.146037
H    -2.687941  1.089124  4.092707
C    -1.651487  -0.745063  4.227063
C    -0.536465  -1.663656  3.710771
C    -0.678636  -3.130487  4.154419
N    -0.513564  -3.320581  5.601943
C    -0.919740  -4.417095  6.283388
N    -0.777121  -4.452148  7.612754
N    -1.488592  -5.445860  5.648027
H    -2.620808  -1.256893  4.122910
H    -1.530914  -0.560759  5.305414
H    0.454459  -1.280153  4.002534
H    -0.545663  -1.688903  2.611682
H    0.060291  -3.736077  3.604905
H    -1.680451  -3.492075  3.879889
H    0.201934  -2.763853  6.060355
H    -0.895657  -5.314542  8.134261
H    -0.568657  -3.619705  8.151122
H    -1.362374  -5.598299  4.655015
H    -1.929494  -6.198329  6.167564
N    -0.777785  2.454242  4.808071
C    -1.907403  2.693359  5.718591
H    0.052548  3.027352  4.960205
H    -1.624254  3.505486  6.394224
H    -2.130522  1.808378  6.326533
H    -2.801469  3.011144  5.167922
Ba    1.576497  1.420244  0.950917
