37
Energy: -246335.074401 eV PBE+vdW (tier 2 basis)
C    -0.222270  0.762311  0.561865
C    -0.540098  0.236319  1.925939
O    -0.426737  -0.996809  2.181218
H    -0.351737  1.844950  0.461098
H    -0.865872  0.254200  -0.170292
H    0.813367  0.502707  0.303437
N    -0.946531  1.124531  2.855580
C    -1.410182  0.895977  4.243193
C    -0.296544  0.307530  5.141166
O    0.069799  -0.899037  5.037371
H    -0.961219  2.091679  2.544954
H    -1.622889  1.906039  4.619863
C    -2.705643  0.056429  4.333271
C    -3.969485  0.706918  3.732838
C    -4.726485  1.644839  4.687957
N    -5.979841  2.083526  4.064153
C    -6.777874  3.077715  4.504432
N    -7.795479  3.490694  3.742514
N    -6.536392  3.673181  5.679264
H    -2.875606  -0.189764  5.392687
H    -2.532842  -0.900656  3.825236
H    -4.650146  -0.110189  3.449977
H    -3.727802  1.238628  2.799855
H    -4.131880  2.539770  4.928700
H    -4.933592  1.109465  5.630439
H    -6.362076  1.493029  3.331309
H    -7.871044  3.233605  2.764807
H    -8.533554  4.076798  4.118423
H    -7.053127  4.502724  5.952995
H    -6.018100  3.204781  6.412105
N    0.230357  1.116913  6.050067
C    1.264953  0.731012  7.015011
H    -0.079410  2.084770  6.070424
H    1.189881  1.385548  7.888286
H    2.263640  0.841108  6.572550
H    1.111398  -0.307114  7.323535
Ba    0.501061  -2.799128  3.535775
