37
Energy: -246334.268130 eV PBE+vdW (tier 2 basis)
C    0.312660  0.212903  0.032652
C    -0.009544  -0.090882  1.455312
O    0.895643  -0.420198  2.274835
H    1.013865  1.055927  -0.039725
H    -0.565321  0.399674  -0.591672
H    0.848130  -0.660143  -0.372148
N    -1.295714  -0.044771  1.900721
C    -2.195594  1.086262  1.652005
C    -1.531564  2.328809  2.316477
O    -0.681306  2.145531  3.247411
H    -1.389019  -0.428205  2.842345
H    -2.272514  1.245665  0.568184
C    -3.588882  0.709104  2.224160
C    -4.794975  1.561879  1.797697
C    -6.107190  0.900398  2.257690
N    -7.274712  1.688643  1.853988
C    -8.517564  1.202494  1.650628
N    -9.447161  1.990650  1.099914
N    -8.818404  -0.061491  1.968458
H    -3.523009  0.680501  3.323974
H    -3.755383  -0.327178  1.892649
H    -4.822084  1.668821  0.703160
H    -4.727733  2.572162  2.229533
H    -6.096312  0.763056  3.352086
H    -6.194481  -0.092007  1.792554
H    -7.194450  2.700160  1.893239
H    -9.203753  2.845165  0.612470
H    -10.430758  1.742911  1.125303
H    -9.694116  -0.476859  1.667341
H    -8.284073  -0.580797  2.653986
N    -1.815061  3.560068  1.912612
C    -2.628870  4.030331  0.789146
H    -1.339375  4.290515  2.445227
H    -3.530961  4.534780  1.155453
H    -2.914122  3.203536  0.135055
H    -2.041217  4.749416  0.206490
Ba    1.401596  1.063946  4.194972
