37
Energy: -246334.184654 eV PBE+vdW (tier 2 basis)
C    -1.887431  0.554080  3.256371
C    -2.198376  -0.390358  4.374004
O    -1.820604  -0.139774  5.554159
H    -2.786376  0.789108  2.674334
H    -1.146438  0.120617  2.567015
H    -1.474426  1.478566  3.669647
N    -2.899135  -1.533895  4.146139
C    -2.646051  -2.455711  3.030169
C    -1.129628  -2.840022  3.081746
O    -0.419073  -2.494728  4.074039
H    -3.167994  -1.998769  5.012422
H    -3.179887  -3.376080  3.317458
C    -3.251837  -2.005789  1.668573
C    -3.676096  -3.170078  0.743019
C    -4.885350  -2.898844  -0.166391
N    -4.603554  -1.949233  -1.251924
C    -5.558311  -1.406661  -2.044706
N    -5.203400  -0.535258  -2.995083
N    -6.847463  -1.704873  -1.861787
H    -2.576813  -1.315911  1.145867
H    -4.147606  -1.427102  1.934090
H    -3.970836  -4.038756  1.351502
H    -2.839982  -3.517321  0.111984
H    -5.709136  -2.492737  0.439064
H    -5.214583  -3.865278  -0.582544
H    -3.672238  -1.981170  -1.656953
H    -4.275272  -0.131088  -3.030957
H    -5.855110  -0.246026  -3.716987
H    -7.574313  -1.198118  -2.357091
H    -7.140215  -2.535049  -1.360992
N    -0.630821  -3.573348  2.099803
C    0.745028  -4.085813  2.061638
H    -1.251783  -3.850381  1.345620
H    0.925288  -4.760817  2.906851
H    1.461177  -3.257005  2.094365
H    0.881787  -4.639257  1.129109
Ba    0.152309  -1.431884  6.304233
