37
Energy: -246333.896950 eV PBE+vdW (tier 2 basis)
C    0.218669  1.456951  0.267192
C    0.253187  0.161403  1.009373
O    1.327741  -0.556391  0.916690
H    -0.755561  1.945722  0.287222
H    0.504699  1.301915  -0.777923
H    0.957726  2.127089  0.734637
N    -0.629062  -0.156487  1.978381
C    -2.087821  -0.067270  1.800353
C    -2.362513  -0.648602  0.369932
O    -1.411197  -0.711164  -0.426916
H    -0.341209  -0.982821  2.500487
H    -2.499722  -0.756632  2.551421
C    -2.748754  1.308014  2.054617
C    -2.431300  1.877639  3.449473
C    -3.463873  2.855830  4.023834
N    -3.521829  4.136670  3.303391
C    -4.490246  5.060968  3.478625
N    -4.482826  6.174326  2.734796
N    -5.471906  4.859375  4.363073
H    -3.832809  1.149417  1.965411
H    -2.494755  2.022171  1.260769
H    -1.429925  2.335332  3.465271
H    -2.381808  1.053586  4.177461
H    -3.215132  3.030900  5.083479
H    -4.464153  2.399233  3.981987
H    -2.654672  4.477767  2.899792
H    -5.080022  6.962799  2.958759
H    -3.899725  6.261638  1.911599
H    -5.381454  4.189315  5.116949
H    -6.276700  5.476177  4.398776
N    -3.595350  -1.066353  0.058621
C    -4.795169  -1.145763  0.890090
H    -3.685584  -1.391570  -0.902809
H    -5.425285  -0.253083  0.778304
H    -4.538033  -1.285890  1.945642
H    -5.378481  -2.017800  0.576262
Ba    2.980088  -1.840763  -0.091146
