37
Energy: -246335.186141 eV PBE+vdW (tier 2 basis)
C    0.245478  0.018517  -0.292032
C    0.304983  0.564907  1.096445
O    0.622607  1.770599  1.313294
H    0.006831  -1.049291  -0.334915
H    1.203061  0.194485  -0.799625
H    -0.517411  0.576621  -0.854605
N    -0.001190  -0.257141  2.118975
C    -0.126180  0.139867  3.532602
C    1.286093  0.375256  4.132376
O    1.810465  1.521876  4.022031
H    -0.226808  -1.220363  1.881503
H    -0.601495  1.132247  3.548167
C    -1.040506  -0.862442  4.269078
C    -1.429925  -0.422524  5.692646
C    -2.202552  -1.462755  6.522787
N    -3.614520  -1.594682  6.144488
C    -4.600852  -1.999197  6.974110
N    -5.875516  -1.883128  6.583991
N    -4.317453  -2.492478  8.183547
H    -0.572257  -1.862149  4.296471
H    -1.937804  -0.977031  3.640763
H    -2.006754  0.513993  5.658079
H    -0.520679  -0.198787  6.270195
H    -2.176829  -1.136843  7.571227
H    -1.697075  -2.442039  6.465612
H    -3.863265  -1.527094  5.163515
H    -6.623461  -2.354904  7.081534
H    -6.147852  -1.273446  5.821998
H    -5.050254  -2.633017  8.871641
H    -3.407678  -2.876614  8.407517
N    1.917499  -0.631794  4.716346
C    3.270522  -0.561698  5.279299
H    1.450255  -1.533830  4.746684
H    3.353950  -1.294568  6.087202
H    3.449345  0.441262  5.676547
H    4.019451  -0.792970  4.510641
Ba    2.001776  3.431156  2.445870
