37
Energy: -246333.475984 eV PBE+vdW (tier 2 basis)
C    -0.488755  -0.571472  -0.893435
C    -0.339024  -0.341411  0.579585
O    0.648668  -0.891829  1.212193
H    -1.351947  -0.053483  -1.324275
H    -0.607101  -1.646693  -1.090224
H    0.413448  -0.224831  -1.417147
N    -1.231241  0.420770  1.181184
C    -1.378956  0.823005  2.590362
C    -2.906693  0.717634  2.847421
O    -3.638529  1.386839  2.099558
H    -1.987025  0.797802  0.600365
H    -0.780261  0.152269  3.215278
C    -0.970124  2.309187  2.754632
C    -1.498965  2.951531  4.045145
C    -1.530771  4.485696  4.031153
N    -2.211633  5.139656  2.885335
C    -3.549304  5.234137  2.687102
N    -4.063589  6.395304  2.267786
N    -4.347168  4.178157  2.889924
H    -1.382365  2.852405  1.891468
H    0.123797  2.393602  2.690613
H    -0.881808  2.662639  4.908726
H    -2.508540  2.585432  4.276004
H    -0.507882  4.880658  4.004701
H    -1.984315  4.835852  4.969376
H    -1.685671  5.910266  2.483978
H    -4.990147  6.447384  1.856469
H    -3.573039  7.273230  2.402024
H    -5.353358  4.312382  2.883774
H    -4.022802  3.224113  2.701629
N    -3.366786  -0.047468  3.845507
C    -2.611785  -0.845894  4.811478
H    -4.383127  -0.054951  3.924742
H    -3.316160  -1.239987  5.549629
H    -1.874895  -0.237339  5.350494
H    -2.118648  -1.702466  4.332686
Ba    2.576196  -2.238128  1.368614
