37
Energy: -246333.791517 eV PBE+vdW (tier 2 basis)
C    -1.428026  0.032842  -0.244685
C    -0.380031  0.074836  0.810929
O    0.784619  0.559097  0.485621
H    -2.404370  -0.280350  0.119203
H    -1.123255  -0.685785  -1.017299
H    -1.499673  1.028712  -0.704666
N    -0.547862  -0.293075  2.075336
C    -1.582314  -1.113636  2.751485
C    -1.475433  -2.556782  2.167498
O    -1.501334  -2.683591  0.944426
H    0.285481  -0.148747  2.644511
H    -1.278290  -1.083330  3.805625
C    -3.033418  -0.582382  2.669077
C    -3.905074  -1.163751  3.796749
C    -5.341611  -0.631001  3.869584
N    -6.209693  -1.210888  2.833603
C    -7.490081  -0.842530  2.623422
N    -8.195610  -1.426992  1.646828
N    -8.047868  0.124386  3.359113
H    -3.469198  -0.828576  1.692053
H    -3.007775  0.514140  2.755356
H    -3.444168  -0.930332  4.767640
H    -3.935894  -2.263781  3.736974
H    -5.346172  0.463755  3.756239
H    -5.741124  -0.871613  4.868313
H    -5.945962  -2.124577  2.476625
H    -9.199147  -1.302276  1.572941
H    -7.760167  -2.035967  0.964953
H    -7.645308  0.424485  4.238209
H    -8.966195  0.490292  3.131918
N    -1.382277  -3.590660  3.029739
C    -1.222970  -3.585025  4.484667
H    -1.358454  -4.496781  2.564767
H    -0.938788  -4.594246  4.797002
H    -2.151629  -3.324722  5.008788
H    -0.420737  -2.908208  4.805216
Ba    2.699837  1.270866  -0.632421
