37
Energy: -246333.727226 eV PBE+vdW (tier 2 basis)
C    0.148777  -1.860494  1.373501
C    0.325668  -0.484551  1.925969
O    1.516560  -0.002844  2.105409
H    -0.147294  -2.549356  2.181358
H    1.087231  -2.222174  0.944895
H    -0.642855  -1.909363  0.613639
N    -0.726390  0.253342  2.256451
C    -2.143070  -0.147845  2.097080
C    -2.609542  -0.127459  0.603237
O    -2.942310  -1.204059  0.118633
H    -0.529744  1.182391  2.629282
H    -2.196004  -1.215991  2.339287
C    -3.063332  0.599411  3.079634
C    -4.526664  0.155746  2.899143
C    -5.465743  0.739031  3.962252
N    -6.830702  0.246216  3.744829
C    -7.956753  0.798816  4.230374
N    -9.145980  0.365174  3.795164
N    -7.896880  1.794860  5.123142
H    -2.981030  1.688459  2.947358
H    -2.726198  0.373657  4.103357
H    -4.575171  -0.944441  2.939999
H    -4.888711  0.447372  1.902055
H    -5.481072  1.837327  3.897686
H    -5.114921  0.459379  4.969984
H    -6.930504  -0.653115  3.283434
H    -10.004276  0.600448  4.281114
H    -9.232505  -0.208387  2.964289
H    -8.730640  2.311232  5.381392
H    -7.070938  1.952850  5.686324
N    -2.616831  1.031600  -0.102975
C    -2.392080  2.404365  0.330109
H    -2.953470  0.900227  -1.055412
H    -2.239053  3.024441  -0.558868
H    -1.486611  2.499671  0.943414
H    -3.246223  2.820405  0.883512
Ba    3.846235  0.229426  2.176603
