37
Energy: -246334.471093 eV PBE+vdW (tier 2 basis)
C    0.898716  -2.945378  2.258088
C    0.404727  -1.957323  3.259517
O    1.202657  -1.297070  3.988369
H    0.096529  -3.467651  1.726534
H    1.540914  -3.683044  2.758141
H    1.530173  -2.422359  1.525263
N    -0.924489  -1.761096  3.385518
C    -1.463460  -0.710849  4.255675
C    -1.172124  -1.010387  5.751012
O    -0.359712  -0.225344  6.334523
H    -1.541880  -2.262468  2.753146
H    -0.822740  0.166691  4.088177
C    -2.871382  -0.202404  3.860136
C    -4.116372  -1.106784  3.890125
C    -5.313124  -0.354655  3.277157
N    -6.533350  -1.165503  3.306767
C    -7.792934  -0.681692  3.245659
N    -8.823042  -1.509629  3.449679
N    -8.016029  0.616142  3.012934
H    -2.748933  0.201314  2.842221
H    -3.055440  0.674016  4.499863
H    -4.370785  -1.394694  4.918543
H    -3.951566  -2.035120  3.318174
H    -5.072928  -0.057708  2.242127
H    -5.501472  0.561184  3.856360
H    -6.435330  -2.166217  3.164537
H    -8.699698  -2.423323  3.870339
H    -9.771909  -1.240306  3.211640
H    -8.944711  1.010236  3.124125
H    -7.328635  1.202882  2.556333
N    -1.679166  -2.039479  6.419524
C    -2.500548  -3.166305  5.981009
H    -1.394708  -2.062325  7.400467
H    -2.031883  -4.096744  6.323585
H    -2.571765  -3.198269  4.893228
H    -3.503986  -3.104037  6.419270
Ba    2.051869  0.109167  5.828225
