37
Energy: -246334.196669 eV PBE+vdW (tier 2 basis)
C    0.680236  1.392521  1.080541
C    0.285825  0.680342  2.329255
O    1.155959  0.188169  3.104384
H    1.209715  2.328084  1.313190
H    -0.156807  1.599710  0.407650
H    1.407447  0.756479  0.554410
N    -1.028574  0.521311  2.652759
C    -1.981878  1.630668  2.648255
C    -1.643036  2.511822  3.892076
O    -0.775716  2.103196  4.730448
H    -1.142419  -0.102392  3.451721
H    -1.772498  2.246095  1.760509
C    -3.442623  1.129152  2.512480
C    -3.996176  0.277758  3.666702
C    -5.263507  -0.522457  3.317847
N    -6.451425  0.319631  3.122369
C    -7.571891  -0.079710  2.475217
N    -8.579254  0.785658  2.317000
N    -7.667296  -1.310688  1.964686
H    -3.458164  0.543640  1.581301
H    -4.095486  1.992614  2.332764
H    -4.176569  0.893369  4.562967
H    -3.265788  -0.486721  3.973809
H    -5.445943  -1.254052  4.121346
H    -5.088485  -1.080110  2.386426
H    -6.584060  1.078018  3.785928
H    -9.496795  0.477667  2.012204
H    -8.465038  1.777652  2.487205
H    -7.088908  -2.073688  2.294544
H    -8.435675  -1.560050  1.349922
N    -2.218501  3.695452  4.052092
C    -3.133776  4.418325  3.163884
H    -1.940894  4.187329  4.902309
H    -2.912726  5.488013  3.242060
H    -4.178085  4.258769  3.460348
H    -2.992355  4.118494  2.121146
Ba    1.435728  1.068699  5.402545
