37
Energy: -246333.171742 eV PBE+vdW (tier 2 basis)
C    0.362452  -0.045097  0.437860
C    0.094437  0.259683  1.878251
O    1.005753  0.836050  2.591192
H    -0.478344  -0.536887  -0.063072
H    1.240149  -0.701933  0.355543
H    0.586407  0.884612  -0.104095
N    -1.079416  -0.082279  2.387991
C    -1.576846  0.101891  3.762514
C    -2.224501  -1.216486  4.295897
O    -3.373011  -1.199050  4.737561
H    -1.722206  -0.524685  1.733074
H    -0.691436  0.301071  4.383472
C    -2.519836  1.321621  3.889964
C    -3.651123  1.544486  2.864816
C    -4.843859  0.572711  2.830744
N    -5.544636  0.429938  4.105336
C    -6.794261  0.822677  4.392122
N    -7.423895  0.284559  5.445579
N    -7.425466  1.747588  3.655407
H    -1.882262  2.217026  3.852130
H    -2.929919  1.288140  4.908250
H    -3.241144  1.589314  1.842516
H    -4.032607  2.557976  3.058926
H    -4.528824  -0.436257  2.530238
H    -5.554654  0.905120  2.063171
H    -5.066088  -0.188643  4.762125
H    -8.270831  0.694476  5.822417
H    -7.093625  -0.570259  5.877055
H    -8.420016  1.910891  3.762291
H    -6.930576  2.343444  3.005914
N    -1.484282  -2.347525  4.283147
C    -0.078996  -2.544846  3.954301
H    -1.986648  -3.153121  4.653779
H    0.286902  -3.415263  4.508461
H    0.525033  -1.682245  4.265490
H    0.076066  -2.738164  2.882932
Ba    3.052599  1.906598  3.097580
