37
Energy: -246333.047636 eV PBE+vdW (tier 2 basis)
C    0.092036  0.668819  0.405292
C    -0.055495  -0.023627  1.716587
O    1.032558  -0.368750  2.341047
H    -0.827593  1.107473  0.022260
H    0.464128  -0.057919  -0.333127
H    0.848776  1.457950  0.496408
N    -1.210502  -0.337788  2.288403
C    -2.670622  -0.138297  2.016644
C    -3.421316  -1.499065  1.914397
O    -4.423030  -1.636574  2.628291
H    -1.074963  -0.831323  3.173089
H    -3.033761  0.258903  2.974967
C    -3.089479  0.846904  0.913841
C    -4.615234  1.044587  0.746407
C    -5.412187  1.693418  1.894741
N    -5.954233  0.711248  2.837121
C    -7.117428  0.829127  3.490382
N    -7.651543  -0.253638  4.075186
N    -7.758316  2.003826  3.565211
H    -2.723221  0.511390  -0.065258
H    -2.626172  1.823282  1.122859
H    -5.100849  0.102793  0.452489
H    -4.721678  1.705779  -0.123806
H    -6.255790  2.235859  1.445703
H    -4.793390  2.439564  2.422289
H    -5.458696  -0.190697  2.910086
H    -8.421086  -0.177882  4.729558
H    -7.308510  -1.183137  3.865288
H    -8.705652  2.062318  3.920626
H    -7.299038  2.877067  3.342394
N    -3.018736  -2.456903  1.058583
C    -1.941760  -2.451638  0.075477
H    -3.609532  -3.287173  1.089355
H    -2.163721  -3.212590  -0.679190
H    -0.969593  -2.699977  0.525731
H    -1.875174  -1.490819  -0.446869
Ba    3.235846  -0.663725  3.115655
