37
Energy: -246333.866306 eV PBE+vdW (tier 2 basis)
C    -0.886735  2.580552  1.292756
C    -0.493851  1.262380  1.877638
O    0.523131  1.247466  2.678963
H    0.001943  3.113907  0.940247
H    -1.353709  3.174897  2.094486
H    -1.589684  2.513907  0.463037
N    -1.291216  0.170004  1.861521
C    -1.902621  -0.347079  0.625653
C    -0.768986  -0.248958  -0.458065
O    0.207003  0.482586  -0.217243
H    -0.929632  -0.564859  2.467933
H    -2.103897  -1.408455  0.831445
C    -3.224032  0.324293  0.188705
C    -4.418550  0.157056  1.150875
C    -5.275414  -1.089907  0.885602
N    -6.477970  -1.054681  1.726665
C    -7.368253  -2.053307  1.875713
N    -8.342289  -1.940015  2.785960
N    -7.265844  -3.170135  1.144052
H    -3.490119  -0.068686  -0.802314
H    -3.055959  1.393596  0.024444
H    -5.062268  1.041174  1.027383
H    -4.077718  0.163983  2.197019
H    -4.720501  -2.014130  1.110571
H    -5.559292  -1.109950  -0.180631
H    -6.747842  -0.150340  2.101974
H    -9.140865  -2.565186  2.786243
H    -8.328041  -1.217011  3.495750
H    -7.857819  -3.971237  1.335992
H    -6.757012  -3.183405  0.269273
N    -0.876866  -0.953252  -1.590595
C    -1.906319  -1.902512  -2.005945
H    -0.115740  -0.790860  -2.248442
H    -2.370664  -2.383685  -1.138236
H    -1.434561  -2.688516  -2.605171
H    -2.679003  -1.419371  -2.619555
Ba    2.764538  1.628936  3.167330
