37
Energy: -246335.068203 eV PBE+vdW (tier 2 basis)
C    0.013801  0.997307  0.814851
C    -0.475461  0.368878  2.081404
O    -0.441100  -0.886116  2.230943
H    1.057514  0.702716  0.640563
H    -0.052547  2.090258  0.806075
H    -0.570663  0.595979  -0.025389
N    -0.948842  1.190366  3.040409
C    -1.579404  0.862537  4.339521
C    -0.599694  0.146003  5.298676
O    -0.269852  -1.062934  5.123395
H    -0.888886  2.180850  2.822571
H    -1.798216  1.844433  4.781557
C    -2.906403  0.080523  4.203126
C    -4.065223  0.843300  3.527323
C    -4.895797  1.720641  4.478458
N    -6.043718  2.286225  3.760939
C    -6.851550  3.267714  4.211640
N    -7.750849  3.811378  3.385677
N    -6.734557  3.720800  5.466279
H    -3.208492  -0.250963  5.208436
H    -2.711111  -0.834381  3.629816
H    -4.735983  0.090587  3.086559
H    -3.693754  1.449693  2.687151
H    -4.299054  2.553831  4.881145
H    -5.239280  1.105587  5.327841
H    -6.353212  1.798221  2.925639
H    -7.713755  3.666804  2.383029
H    -8.504788  4.393735  3.734976
H    -7.248208  4.542361  5.768380
H    -6.327800  3.151187  6.197739
N    -0.152325  0.849536  6.330282
C    0.750321  0.344035  7.368874
H    -0.429986  1.824938  6.401759
H    1.792721  0.578248  7.115951
H    0.627272  -0.737833  7.464489
H    0.498989  0.825704  8.319095
Ba    0.252891  -2.843148  3.508821
