37
Energy: -246333.951598 eV PBE+vdW (tier 2 basis)
C    -1.140454  2.594403  1.285969
C    -0.424087  1.547746  0.499023
O    0.778776  1.704232  0.144797
H    -0.809570  3.578722  0.931152
H    -0.859179  2.534534  2.349351
H    -2.229760  2.525414  1.205662
N    -1.060229  0.395488  0.148878
C    -1.841400  -0.391135  1.104253
C    -0.839889  -0.936624  2.170377
O    0.411691  -0.826197  1.963534
H    -0.494656  -0.180870  -0.476120
H    -2.546013  0.282325  1.615311
C    -2.632671  -1.497776  0.365982
C    -3.716122  -0.926146  -0.566672
C    -4.368720  -1.944112  -1.521322
N    -5.331967  -2.873448  -0.913569
C    -6.667856  -2.865781  -1.115025
N    -7.370788  -3.984412  -0.904788
N    -7.298226  -1.752900  -1.504734
H    -3.078523  -2.172355  1.109273
H    -1.918431  -2.110047  -0.210093
H    -3.267100  -0.150171  -1.204760
H    -4.493520  -0.423478  0.029847
H    -3.597669  -2.550751  -2.018523
H    -4.883781  -1.405889  -2.327130
H    -4.961029  -3.727544  -0.510213
H    -8.384013  -3.967906  -0.850774
H    -6.931674  -4.898249  -0.900650
H    -8.256249  -1.784759  -1.837399
H    -6.864470  -0.840786  -1.450059
N    -1.286315  -1.484789  3.290841
C    -2.660695  -1.641812  3.774199
H    -0.554390  -1.838166  3.908931
H    -2.675371  -1.434997  4.849917
H    -3.013122  -2.668603  3.612694
H    -3.334911  -0.935705  3.281365
Ba    2.534409  0.293735  1.191562
