37
Energy: -246334.923674 eV PBE+vdW (tier 2 basis)
C    -1.389712  -3.062790  -0.134567
C    -1.026759  -2.054870  0.903872
O    0.110019  -1.496684  0.911580
H    -0.649724  -3.874488  -0.132185
H    -1.332676  -2.585737  -1.123848
H    -2.390132  -3.487768  -0.002729
N    -1.939918  -1.737871  1.841608
C    -1.770121  -0.670124  2.840343
C    -0.667111  -1.057733  3.860761
O    0.478142  -0.529500  3.709176
H    -2.847637  -2.193369  1.781310
H    -1.330721  0.192536  2.317676
C    -3.150803  -0.246993  3.383765
C    -3.131942  0.920871  4.384937
C    -4.562432  1.283260  4.826821
N    -4.594985  2.375949  5.806281
C    -5.424605  3.442209  5.808690
N    -5.970483  3.902199  4.677349
N    -5.689860  4.058884  6.964980
H    -3.667476  -1.109260  3.828264
H    -3.744201  0.042465  2.502049
H    -2.650739  1.803834  3.938610
H    -2.537386  0.653528  5.273553
H    -5.056540  0.403151  5.269014
H    -5.171043  1.568736  3.960361
H    -4.124496  2.198452  6.689336
H    -6.716272  4.589383  4.702552
H    -5.593828  3.672029  3.767443
H    -6.103395  4.985491  6.986418
H    -5.539156  3.607320  7.860166
N    -0.866519  -1.928130  4.843920
C    -2.046315  -2.729787  5.184011
H    -0.048923  -2.065093  5.439342
H    -2.749272  -2.163246  5.807442
H    -1.707789  -3.599207  5.756004
H    -2.549336  -3.097207  4.284785
Ba    2.130146  -0.503445  1.848914
