37
Energy: -246333.521988 eV PBE+vdW (tier 2 basis)
C    2.562431  0.442988  1.803383
C    1.735926  0.018417  2.978130
O    2.298339  -0.112629  4.138852
H    3.033185  1.414395  2.009771
H    1.979979  0.532172  0.880596
H    3.361463  -0.291847  1.628510
N    0.453736  -0.212885  2.784727
C    -0.576754  -0.716452  3.695954
C    -1.484327  -1.582610  2.787933
O    -1.659972  -1.202325  1.617240
H    0.089315  -0.173296  1.821440
H    -0.091670  -1.316790  4.474073
C    -1.438858  0.399694  4.371880
C    -1.678899  1.737333  3.643227
C    -2.318455  1.774271  2.241170
N    -3.543180  0.991251  2.055103
C    -4.790853  1.482859  1.954925
N    -5.735675  0.760496  1.338424
N    -5.106501  2.675482  2.474792
H    -0.970349  0.648181  5.333870
H    -2.405164  -0.059777  4.626498
H    -0.729308  2.287526  3.553180
H    -2.288592  2.337017  4.336000
H    -1.615769  1.408336  1.483159
H    -2.523735  2.821105  1.978495
H    -3.384193  0.042050  1.715897
H    -5.494121  0.018035  0.692527
H    -6.717550  1.004150  1.409616
H    -5.985941  3.128028  2.251059
H    -4.507070  3.145115  3.140292
N    -2.083476  -2.658207  3.314602
C    -1.932063  -3.222586  4.656841
H    -2.663951  -3.173291  2.654357
H    -2.703494  -3.985984  4.793692
H    -2.080830  -2.463749  5.434517
H    -0.954740  -3.707468  4.785793
Ba    4.111839  -0.205213  5.638009
