37
Energy: -246333.979531 eV PBE+vdW (tier 2 basis)
C    -0.960782  0.661664  0.607233
C    -0.164694  0.108763  1.740489
O    1.093486  0.422428  1.796736
H    -1.989072  0.305468  0.573867
H    -0.478720  0.406436  -0.342628
H    -0.972044  1.758397  0.708790
N    -0.692095  -0.511820  2.803893
C    -1.787272  -1.495857  2.777949
C    -1.365922  -2.547832  1.688156
O    -0.629343  -2.184622  0.766526
H    -0.001057  -0.695463  3.530258
H    -1.757873  -1.963356  3.772916
C    -3.212605  -0.910889  2.581230
C    -4.320568  -1.855563  3.079774
C    -5.756828  -1.342620  2.905251
N    -6.119295  -0.316662  3.894638
C    -7.260788  0.402790  3.857831
N    -7.494380  1.320552  4.804294
N    -8.140981  0.232929  2.866099
H    -3.394950  -0.692496  1.520498
H    -3.253226  0.046677  3.120551
H    -4.155767  -2.126228  4.136494
H    -4.279611  -2.798296  2.516660
H    -6.439472  -2.203358  2.993190
H    -5.880970  -0.912732  1.899949
H    -5.672106  -0.386707  4.804265
H    -8.408861  1.744774  4.914348
H    -6.778608  1.601379  5.463271
H    -8.934445  0.856072  2.760279
H    -8.135408  -0.595799  2.284546
N    -1.857071  -3.787843  1.827676
C    -1.574958  -4.868216  0.878044
H    -2.338973  -4.033059  2.685870
H    -2.396145  -5.590766  0.906461
H    -0.637556  -5.380024  1.132078
H    -1.491714  -4.449684  -0.128927
Ba    3.300262  0.780705  1.162979
