37
Energy: -246333.684143 eV PBE+vdW (tier 2 basis)
C    0.828290  0.243157  0.048959
C    0.612266  0.131353  1.527988
O    1.557839  0.230340  2.341088
H    -0.089346  0.171774  -0.544273
H    1.515787  -0.551879  -0.271136
H    1.327872  1.196603  -0.166815
N    -0.670293  -0.069432  1.948347
C    -1.150281  -0.381002  3.302011
C    -0.858449  0.701123  4.354005
O    -1.813115  1.032468  5.170733
H    -1.375654  -0.115920  1.219431
H    -2.242291  -0.337439  3.210378
C    -0.842156  -1.845279  3.803200
C    0.447272  -2.544988  3.339838
C    1.722282  -2.242909  4.153836
N    2.952661  -2.392961  3.375126
C    3.810661  -3.427286  3.395402
N    3.474083  -4.596519  3.955301
N    5.027224  -3.281575  2.854925
H    -1.681118  -2.456311  3.446409
H    -0.917570  -1.855809  4.902179
H    0.629730  -2.318152  2.281655
H    0.247758  -3.626040  3.365222
H    1.788648  -2.881223  5.044915
H    1.717831  -1.209072  4.517282
H    3.176243  -1.614323  2.759565
H    4.173673  -5.309165  4.131831
H    2.509405  -4.855109  4.114742
H    5.417515  -2.366457  2.663134
H    5.615331  -4.082967  2.653789
N    0.324444  1.252629  4.416326
C    0.719166  2.301014  5.350841
H    0.998621  0.902155  3.669465
H    1.763900  2.561196  5.159913
H    0.629833  1.955243  6.389361
H    0.111333  3.204503  5.203940
Ba    -3.492105  1.911187  6.538300
