37
Energy: -246334.139117 eV PBE+vdW (tier 2 basis)
C    -0.621191  0.545836  -0.901378
C    -0.120167  0.652930  0.500881
O    1.159874  0.799969  0.693202
H    -0.410157  1.482692  -1.437076
H    -1.692440  0.341251  -0.969692
H    -0.077073  -0.254157  -1.421101
N    -0.916965  0.609719  1.543934
C    -2.382466  0.712345  1.619607
C    -2.578196  1.442554  2.988132
O    -1.641648  1.407004  3.798593
H    -0.545828  0.773360  2.508121
H    -2.738850  1.347435  0.797779
C    -3.136762  -0.640133  1.564794
C    -3.067477  -1.512108  2.828710
C    -3.934455  -2.769850  2.675502
N    -3.966967  -3.544293  3.921388
C    -4.895313  -4.462866  4.245872
N    -4.932225  -4.955298  5.490631
N    -5.793221  -4.872074  3.342180
H    -2.776403  -1.202657  0.689653
H    -4.189058  -0.398224  1.350905
H    -3.423183  -0.939780  3.698198
H    -2.025774  -1.801089  3.039779
H    -3.553886  -3.392995  1.848668
H    -4.966792  -2.477140  2.431229
H    -3.174760  -3.457578  4.550022
H    -4.450551  -4.501372  6.257568
H    -5.480010  -5.778142  5.716622
H    -6.586152  -5.441737  3.616801
H    -5.645592  -4.746059  2.348917
N    -3.765578  2.021857  3.195466
C    -4.115852  2.734882  4.426492
H    -4.435089  2.048829  2.432034
H    -4.177860  3.813677  4.237892
H    -3.341075  2.543221  5.173123
H    -5.083733  2.380809  4.798637
Ba    3.408839  1.366008  0.764176
