37
Energy: -246335.081602 eV PBE+vdW (tier 2 basis)
C    -1.517449  0.628383  0.182812
C    -0.930901  0.248291  1.504895
O    -0.056928  -0.664625  1.582650
H    -2.035336  -0.248232  -0.233345
H    -0.711336  0.880837  -0.518603
H    -2.222607  1.464469  0.233664
N    -1.367487  0.908811  2.592491
C    -1.098339  0.672138  4.030084
C    0.392147  0.881423  4.386539
O    1.280179  0.038134  4.067213
H    -2.060117  1.629242  2.405419
H    -1.660247  1.475113  4.527113
C    -1.673822  -0.669039  4.544189
C    -1.943188  -0.669093  6.060492
C    -2.647062  -1.959586  6.522854
N    -2.893365  -2.001425  7.967794
C    -4.089024  -2.050757  8.590990
N    -4.153712  -2.510110  9.844908
N    -5.207777  -1.644100  7.978884
H    -1.004022  -1.495820  4.267304
H    -2.615444  -0.837612  4.001286
H    -2.569244  0.197176  6.326673
H    -1.001406  -0.554325  6.620090
H    -2.038530  -2.839352  6.264215
H    -3.605325  -2.093292  6.003948
H    -2.086164  -2.166077  8.562000
H    -3.413869  -3.074377  10.247961
H    -4.971933  -2.350808  10.423808
H    -6.119485  -1.846561  8.375171
H    -5.185914  -1.032597  7.173907
N    0.687010  1.981318  5.067798
C    2.030020  2.361996  5.512893
H    -0.065158  2.635169  5.269911
H    1.941586  2.958203  6.426155
H    2.532892  2.964661  4.745006
H    2.617574  1.463001  5.718609
Ba    2.139783  -1.411575  2.256219
