37
Energy: -246335.163992 eV PBE+vdW (tier 2 basis)
C    0.574170  -0.332707  0.005377
C    0.203757  0.004805  1.412222
O    0.952753  0.729797  2.130024
H    -0.138102  -1.001149  -0.489431
H    1.571689  -0.791190  -0.014200
H    0.644611  0.601830  -0.570417
N    -0.957728  -0.473671  1.897653
C    -1.554491  -0.135219  3.202528
C    -0.777836  -0.863362  4.332612
O    0.249883  -0.307418  4.819763
H    -1.503322  -1.065913  1.275948
H    -1.362481  0.934002  3.378392
C    -3.078759  -0.367245  3.138440
C    -3.860016  0.168199  4.351142
C    -5.353335  -0.214415  4.372723
N    -6.200099  0.451833  3.373572
C    -7.190511  1.333180  3.636429
N    -8.173974  1.499783  2.746073
N    -7.192019  2.051051  4.764531
H    -3.294193  -1.441403  2.995035
H    -3.431141  0.130721  2.221724
H    -3.756217  1.262640  4.404856
H    -3.431051  -0.230361  5.283459
H    -5.768676  -0.001179  5.365484
H    -5.469693  -1.299439  4.231037
H    -6.225267  0.043409  2.444721
H    -8.380122  0.802594  2.039171
H    -8.810915  2.287717  2.805281
H    -8.016538  2.566626  5.053901
H    -6.367067  2.147595  5.341658
N    -1.192319  -2.054413  4.736686
C    -0.535075  -2.877676  5.756937
H    -2.011477  -2.450820  4.283964
H    0.155861  -3.590154  5.287539
H    -1.298708  -3.435326  6.308069
H    0.014144  -2.231979  6.446851
Ba    2.205268  1.084256  4.188247
