37
Energy: -246333.465394 eV PBE+vdW (tier 2 basis)
C    2.152567  2.287798  0.244126
C    1.437744  1.604069  1.378711
O    1.972332  1.384517  2.470713
H    2.920089  1.607031  -0.151441
H    2.675044  3.169916  0.632772
H    1.502005  2.588569  -0.584757
N    0.135882  1.230200  1.112371
C    -0.780304  0.413402  1.909600
C    -1.961373  1.231407  2.468714
O    -3.165711  0.781626  2.271414
H    -0.181830  1.430334  0.169105
H    -1.256572  -0.282509  1.201823
C    -0.159597  -0.440391  3.047139
C    0.951266  -1.403425  2.584328
C    1.946927  -1.670085  3.731167
N    3.215876  -2.248947  3.296158
C    4.369341  -1.570526  3.140967
N    4.378975  -0.236152  3.060652
N    5.520244  -2.253380  3.065057
H    -0.986201  -1.007806  3.501437
H    0.230095  0.221474  3.828287
H    1.501319  -0.975012  1.738674
H    0.520113  -2.349102  2.226914
H    1.512201  -2.350116  4.476139
H    2.170766  -0.732776  4.256892
H    3.263138  -3.256620  3.185230
H    5.254355  0.266075  3.153812
H    3.538603  0.323685  2.888167
H    5.590424  -3.215246  3.376372
H    6.378368  -1.808124  2.760965
N    -1.807752  2.351884  3.142072
C    -0.588275  3.072260  3.531387
H    -2.677821  2.799047  3.431756
H    -0.745538  3.477663  4.536711
H    -0.414259  3.904578  2.837192
H    0.282326  2.412501  3.539180
Ba    -5.377550  0.071635  1.916826
