37
Energy: -246333.137269 eV PBE+vdW (tier 2 basis)
C    0.028353  -0.132057  0.282391
C    -0.110616  -0.412558  1.745871
O    0.831211  -0.795609  2.461380
H    0.392110  -1.038387  -0.220310
H    0.802788  0.633336  0.136662
H    -0.899516  0.199737  -0.195942
N    -1.353034  -0.228597  2.313089
C    -1.511345  -0.400936  3.752372
C    -2.055601  -1.814734  4.021425
O    -3.282387  -2.062195  4.331124
H    -2.119388  0.117602  1.743999
H    -0.476237  -0.439814  4.124315
C    -2.221562  0.745929  4.470426
C    -1.662241  2.148102  4.137894
C    -0.143584  2.349342  4.048551
N    0.590066  2.042381  5.290969
C    1.890841  1.660069  5.335861
N    2.419633  0.893673  4.378330
N    2.639150  2.028015  6.383604
H    -2.135206  0.552952  5.550360
H    -3.298084  0.753666  4.239603
H    -2.082815  2.855442  4.867847
H    -2.055388  2.481501  3.166669
H    0.037939  3.400477  3.775419
H    0.288211  1.747857  3.243507
H    0.274657  2.550556  6.114145
H    1.856555  0.380178  3.695529
H    3.423952  0.760075  4.331697
H    2.388333  2.820609  6.964220
H    3.544996  1.606196  6.559843
N    -1.177043  -2.787983  3.875516
C    -1.451038  -4.218994  3.984251
H    -0.234365  -2.495902  3.594317
H    -1.813950  -4.467088  4.990401
H    -0.519882  -4.766323  3.814062
H    -2.179886  -4.535082  3.225611
Ba    -5.449089  -2.775934  4.908006
