37
Energy: -246333.222885 eV PBE+vdW (tier 2 basis)
C    0.431779  -1.254652  0.679448
C    0.124016  -0.137484  1.627116
O    1.082786  0.605117  2.073982
H    0.903723  -0.852740  -0.228443
H    -0.455028  -1.822105  0.377196
H    1.140338  -1.952993  1.147219
N    -1.136238  0.051349  1.987857
C    -1.702315  1.066716  2.896047
C    -2.703256  0.396023  3.885169
O    -3.856793  0.820915  3.968307
H    -1.804955  -0.591748  1.566938
H    -0.860348  1.452089  3.489515
C    -2.319954  2.257140  2.123247
C    -3.294718  1.977216  0.956654
C    -4.803832  1.904874  1.240976
N    -5.377407  3.190355  1.662278
C    -6.171901  3.398170  2.733968
N    -7.019632  4.437004  2.722337
N    -6.095978  2.607279  3.804399
H    -1.470560  2.826595  1.719463
H    -2.790899  2.912348  2.868949
H    -3.027492  1.049754  0.425892
H    -3.134759  2.765532  0.206207
H    -5.038213  1.154165  1.999298
H    -5.311023  1.597104  0.314470
H    -5.409251  3.917053  0.952675
H    -7.478833  4.749946  3.570148
H    -7.306127  4.880800  1.857648
H    -6.812957  2.641586  4.519351
H    -5.318876  1.954659  3.929085
N    -2.270162  -0.630568  4.647266
C    -0.932515  -1.188453  4.797659
H    -2.995468  -1.007498  5.256259
H    -0.846543  -1.616107  5.801852
H    -0.167120  -0.406855  4.708165
H    -0.731951  -1.989268  4.071355
Ba    3.296644  1.420508  2.270480
