37
Energy: -246335.100108 eV PBE+vdW (tier 2 basis)
C    -0.627749  -0.175207  0.530759
C    -0.392979  -0.186388  2.006126
O    0.691938  0.237407  2.497389
H    0.202728  -0.675905  0.017122
H    -0.627064  0.870204  0.187921
H    -1.571420  -0.643468  0.232018
N    -1.378448  -0.646547  2.803398
C    -1.394288  -0.576333  4.271219
C    -0.533167  -1.714231  4.878298
O    0.726709  -1.594604  4.838448
H    -2.209827  -0.999354  2.338910
H    -0.822685  0.326574  4.534381
C    -2.820855  -0.336196  4.825365
C    -3.997233  -1.238196  4.394544
C    -5.313961  -0.694812  4.982223
N    -6.463332  -1.510116  4.581373
C    -7.652214  -1.549323  5.223316
N    -8.564229  -2.454746  4.855280
N    -7.908952  -0.715702  6.236966
H    -3.071654  0.698587  4.547662
H    -2.739970  -0.331885  5.922940
H    -3.878416  -2.284735  4.716210
H    -4.092067  -1.261870  3.296056
H    -5.449762  0.351529  4.660260
H    -5.256332  -0.705158  6.080391
H    -6.449943  -1.914499  3.649702
H    -8.324461  -3.251803  4.276867
H    -9.529284  -2.385979  5.161528
H    -8.730909  -0.845290  6.818449
H    -7.415342  0.161936  6.345263
N    -1.106047  -2.769077  5.435179
C    -0.372335  -3.883024  6.047425
H    -2.119254  -2.817930  5.437319
H    0.454546  -3.495387  6.650919
H    0.024933  -4.553441  5.274826
H    -1.058558  -4.441283  6.689953
Ba    2.622885  -0.304747  3.891991
