37
Energy: -246335.208077 eV PBE+vdW (tier 2 basis)
C    0.966711  -1.515008  2.406805
C    0.447853  -0.120895  2.239919
O    1.237167  0.866886  2.283841
H    1.472187  -1.588094  3.380182
H    1.728651  -1.715761  1.641494
H    0.193280  -2.287810  2.346882
N    -0.876239  0.027743  2.043061
C    -1.697111  1.255989  1.951514
C    -1.330748  2.142532  0.739864
O    -0.234429  2.772577  0.674768
H    -1.400564  -0.841408  1.994739
H    -2.709543  0.873805  1.760416
C    -1.764655  2.071858  3.265475
C    -2.543962  1.343711  4.376393
C    -2.787763  2.230328  5.607660
N    -3.601982  1.517482  6.598124
C    -3.744688  1.862690  7.893937
N    -4.369561  1.028920  8.731861
N    -3.239991  3.015177  8.350635
H    -2.262343  3.025251  3.029439
H    -0.748425  2.320759  3.602098
H    -2.011592  0.432495  4.686818
H    -3.520859  1.026559  3.974514
H    -3.291126  3.161662  5.296794
H    -1.830942  2.500149  6.078860
H    -4.235865  0.803115  6.252916
H    -4.548707  0.061350  8.488992
H    -4.680612  1.334989  9.647797
H    -3.220944  3.213032  9.345733
H    -3.053398  3.794329  7.731857
N    -2.249202  2.248022  -0.210624
C    -2.127262  3.081524  -1.410374
H    -3.100006  1.698377  -0.121234
H    -3.127589  3.402338  -1.716695
H    -1.671063  2.509632  -2.229009
H    -1.514663  3.959235  -1.187179
Ba    2.167984  2.814461  1.152732
