37
Energy: -246334.244075 eV PBE+vdW (tier 2 basis)
C    0.371406  1.596682  0.747350
C    0.013499  0.782163  1.943256
O    0.791494  0.704052  2.938096
H    0.450005  2.662593  1.005028
H    -0.311136  1.467323  -0.097428
H    1.379841  1.287495  0.432627
N    -1.151903  0.076053  1.978890
C    -2.445423  0.679217  1.660267
C    -2.846862  1.549677  2.894141
O    -2.109546  1.534678  3.934282
H    -1.188172  -0.544202  2.787915
H    -2.285126  1.386362  0.831832
C    -3.470515  -0.360255  1.148821
C    -3.882035  -1.510205  2.084034
C    -4.858440  -2.443040  1.343637
N    -5.283557  -3.572590  2.174059
C    -5.766509  -4.743132  1.703722
N    -5.977645  -5.753873  2.554156
N    -6.007695  -4.909431  0.399259
H    -3.025099  -0.777679  0.233731
H    -4.370214  0.177580  0.822345
H    -4.364185  -1.115252  2.993515
H    -3.008340  -2.100780  2.399745
H    -4.359020  -2.849743  0.452300
H    -5.734904  -1.864482  1.005322
H    -5.428148  -3.398479  3.164008
H    -5.579943  -5.760217  3.485988
H    -6.522398  -6.565883  2.283407
H    -6.211197  -5.829495  0.022130
H    -6.156161  -4.123846  -0.222130
N    -3.911505  2.337344  2.845939
C    -4.818416  2.629822  1.729868
H    -4.089676  2.853396  3.708343
H    -5.705007  1.984206  1.761325
H    -4.309381  2.521167  0.767229
H    -5.146133  3.670372  1.823638
Ba    0.108799  1.606328  5.140492
