37
Energy: -246333.680966 eV PBE+vdW (tier 2 basis)
C    0.308788  0.656763  0.307051
C    0.078821  0.498604  1.776660
O    1.065310  0.633111  2.598469
H    1.075920  -0.054044  -0.030945
H    0.679464  1.671105  0.100193
H    -0.594798  0.497529  -0.291286
N    -1.149465  0.218993  2.200562
C    -1.629245  0.096602  3.584222
C    -2.061610  -1.341622  4.002043
O    -2.642574  -1.463564  5.082017
H    -1.860276  0.185663  1.470520
H    -0.768072  0.328462  4.225469
C    -2.729155  1.138471  3.895938
C    -4.081420  1.050235  3.162881
C    -5.000704  -0.142867  3.489630
N    -5.264167  -0.332988  4.914986
C    -6.422628  -0.116218  5.556497
N    -6.613412  -0.663518  6.764801
N    -7.389945  0.638957  5.019095
H    -2.301921  2.133135  3.705054
H    -2.892494  1.084531  4.980493
H    -3.952554  1.069785  2.067579
H    -4.613816  1.984514  3.394531
H    -4.575431  -1.084976  3.115908
H    -5.953757  -0.023723  2.958513
H    -4.510028  -0.800578  5.423883
H    -7.376007  -0.369513  7.364336
H    -6.030597  -1.421877  7.098138
H    -8.322926  0.652818  5.415265
H    -7.218317  1.251845  4.233387
N    -1.745161  -2.367865  3.190521
C    -2.080540  -3.760582  3.500746
H    -1.288872  -2.179114  2.305684
H    -1.269680  -4.414309  3.163719
H    -3.011050  -4.061313  3.001846
H    -2.204856  -3.860647  4.582462
Ba    3.235766  1.061232  3.431332
