37
Energy: -246334.048840 eV PBE+vdW (tier 2 basis)
C    0.910501  -0.236215  2.024473
C    -0.224242  0.731901  2.060556
O    0.033927  2.003635  1.943309
H    1.383306  -0.209290  1.032164
H    0.607287  -1.264274  2.238512
H    1.671828  0.068630  2.754446
N    -1.473618  0.358035  2.201428
C    -2.114129  -0.968658  2.175940
C    -3.475348  -0.618351  1.485588
O    -3.917466  0.520840  1.693400
H    -2.243122  1.062973  2.170000
H    -1.510820  -1.661858  1.578679
C    -2.329695  -1.499767  3.620321
C    -3.197100  -2.766957  3.704638
C    -3.578016  -3.218283  5.121130
N    -2.483856  -3.911735  5.819301
C    -2.540814  -4.300258  7.110633
N    -1.502225  -4.947650  7.654195
N    -3.609575  -4.013263  7.860300
H    -2.811473  -0.694935  4.196185
H    -1.340502  -1.666657  4.073446
H    -2.729150  -3.606707  3.165764
H    -4.151989  -2.582453  3.193926
H    -4.448595  -3.889357  5.040211
H    -3.875900  -2.346209  5.722471
H    -1.825421  -4.419216  5.235550
H    -1.575926  -5.398895  8.559216
H    -0.617403  -5.037941  7.170502
H    -4.491933  -3.738061  7.447393
H    -3.611951  -4.193861  8.858379
N    -4.108412  -1.523519  0.725041
C    -3.699894  -2.857477  0.293491
H    -4.995030  -1.178851  0.355922
H    -3.801497  -2.935383  -0.795322
H    -4.326613  -3.630933  0.756310
H    -2.654490  -3.052006  0.549160
Ba    0.553752  4.222763  1.508727
