37
Energy: -246334.611450 eV PBE+vdW (tier 2 basis)
C    0.174135  0.784593  0.457577
C    0.064985  -0.552600  1.120510
O    1.017432  -1.380466  1.054826
H    0.351192  0.631226  -0.616450
H    1.053289  1.314563  0.848518
H    -0.708554  1.419473  0.587175
N    -1.080205  -0.825746  1.779626
C    -1.524236  -2.073709  2.439553
C    -0.631147  -2.446013  3.642527
O    0.542331  -2.895243  3.470724
H    -1.754359  -0.066075  1.792006
H    -2.512552  -1.820452  2.840314
C    -1.680420  -3.273682  1.473828
C    -2.791376  -3.133642  0.411435
C    -4.206746  -3.469988  0.920569
N    -5.242559  -3.328348  -0.107659
C    -5.951499  -4.317427  -0.690051
N    -7.109412  -4.026092  -1.290635
N    -5.515540  -5.583330  -0.671822
H    -1.854335  -4.172997  2.085493
H    -0.723453  -3.437253  0.962388
H    -2.548668  -3.805344  -0.424279
H    -2.783493  -2.120098  -0.018869
H    -4.495345  -2.816913  1.758369
H    -4.248736  -4.495968  1.310644
H    -5.543423  -2.384465  -0.330945
H    -7.549639  -4.677673  -1.932301
H    -7.611397  -3.165894  -1.099648
H    -6.125619  -6.345172  -0.949140
H    -4.540762  -5.810522  -0.526552
N    -1.121424  -2.324200  4.869733
C    -2.428927  -1.820682  5.311965
H    -0.486669  -2.638430  5.605029
H    -2.404918  -1.743004  6.402733
H    -3.235903  -2.512891  5.040565
H    -2.628019  -0.820295  4.910782
Ba    2.634971  -2.812237  2.190461
