37
Energy: -246334.140764 eV PBE+vdW (tier 2 basis)
C    0.149376  1.105053  -0.157982
C    0.126811  0.430505  1.172551
O    1.181469  -0.231002  1.556381
H    0.390456  0.366991  -0.934913
H    0.946791  1.861415  -0.170788
H    -0.795878  1.589826  -0.415017
N    -0.909495  0.477313  1.975700
C    -2.169936  1.234076  1.910432
C    -2.475791  1.435657  3.431516
O    -2.048860  0.578494  4.213795
H    -0.872156  0.027192  2.916636
H    -2.007019  2.195315  1.403856
C    -3.270817  0.404983  1.199521
C    -4.639014  1.099936  1.103460
C    -5.663505  0.233611  0.356037
N    -6.974823  0.891845  0.331830
C    -7.982092  0.606163  -0.514122
N    -7.906332  -0.451317  -1.331142
N    -9.056226  1.403727  -0.555213
H    -3.371496  -0.550512  1.736507
H    -2.906706  0.164465  0.188433
H    -4.543298  2.068020  0.587039
H    -5.019734  1.304098  2.116108
H    -5.740399  -0.752713  0.843908
H    -5.340075  0.077230  -0.683633
H    -7.197491  1.512829  1.103664
H    -8.585943  -0.584661  -2.072118
H    -7.284608  -1.226453  -1.138599
H    -9.048143  2.330384  -0.145589
H    -9.912345  1.113230  -1.014618
N    -3.196341  2.511424  3.775559
C    -3.563433  2.822793  5.159617
H    -3.404049  3.205002  3.064079
H    -4.616238  3.121950  5.205033
H    -2.941630  3.638601  5.549035
H    -3.409678  1.929641  5.770621
Ba    3.169106  -1.230336  2.210268
