37
Energy: -246335.332778 eV PBE+vdW (tier 2 basis)
C    -1.409114  -0.355081  -0.285013
C    -1.166463  -0.816713  1.115608
O    -0.580171  -1.912792  1.349082
H    -1.941255  0.599879  -0.348401
H    -1.978569  -1.118368  -0.831903
H    -0.439819  -0.259943  -0.795296
N    -1.581341  -0.026281  2.125117
C    -1.344799  -0.257400  3.560164
C    -2.301030  -1.366838  4.077794
O    -1.989190  -2.577399  3.872342
H    -2.092156  0.814599  1.867219
H    -0.340044  -0.697071  3.651808
C    -1.387305  1.069002  4.343769
C    -0.212179  2.023255  4.053736
C    -0.318452  3.311218  4.887615
N    0.809083  4.208234  4.618909
C    1.231427  5.199478  5.431279
N    2.384396  5.821750  5.162927
N    0.523318  5.543595  6.512781
H    -1.385069  0.818995  5.415170
H    -2.339772  1.591684  4.144810
H    -0.186588  2.284116  2.983647
H    0.738842  1.520681  4.285201
H    -0.304809  3.060484  5.958647
H    -1.273500  3.819211  4.669460
H    1.207833  4.194410  3.685152
H    3.063499  5.434253  4.518180
H    2.629770  6.696340  5.614902
H    0.911160  6.173911  7.207199
H    -0.465552  5.340274  6.589583
N    -3.414759  -1.024775  4.704588
C    -4.411683  -1.961738  5.233041
H    -3.608062  -0.034701  4.829230
H    -3.937015  -2.926249  5.428968
H    -5.230974  -2.091836  4.514040
H    -4.816713  -1.556843  6.165898
Ba    -0.716947  -4.111342  2.417744
