21
Energy: -239611.542454 eV PBE+vdW (tier 2 basis)
N    0.448131  1.154389  1.316650
C    0.063939  0.218166  2.386165
C    1.367437  -0.084654  3.143175
O    1.401949  -0.770523  4.188679
H    0.136924  2.108258  1.504231
H    0.098697  0.896882  0.394396
H    -0.615882  0.694749  3.108892
C    -0.633737  -1.075606  1.903973
C    0.070889  -1.938733  0.845484
C    1.174422  -2.879341  1.302005
O    1.303453  -3.249793  2.506076
N    1.983761  -3.354486  0.361193
H    -1.605837  -0.774346  1.491158
H    -0.872018  -1.687010  2.785061
H    0.449770  -1.337505  0.005687
H    -0.692788  -2.595213  0.394334
H    1.885600  -3.092688  -0.615196
H    2.679147  -4.061002  0.586487
O    2.425820  0.406905  2.590977
H    1.988457  0.926732  1.780672
Ba    1.702067  -3.062962  4.911319
