21
Energy: -239610.44349 eV PBE+vdW (tier 2 basis)
N    0.178483  -0.571597  0.155510
C    -0.006840  -0.226146  1.609346
C    1.338125  -0.273904  2.347610
O    1.452952  -0.556869  3.513733
H    -0.572801  -0.174358  -0.417698
H    1.075483  -0.209116  -0.189962
H    -0.325391  0.826988  1.661376
C    -1.102795  -1.089584  2.254840
C    -0.773573  -2.532169  2.676175
C    -0.389020  -3.537648  1.617742
O    -0.432009  -4.811376  2.005136
N    -0.022757  -3.168107  0.436964
H    -1.980105  -1.080060  1.590372
H    -1.416599  -0.562772  3.165115
H    -1.651898  -2.933134  3.202560
H    0.036065  -2.521893  3.424064
H    0.230028  -3.941273  -0.183281
H    0.134678  -1.716708  0.109980
O    2.349170  0.090565  1.524981
H    3.179316  0.130490  2.042768
Ba    -0.537201  -6.903073  2.809577
