21
Energy: -239610.21136 eV PBE+vdW (tier 2 basis)
N    -0.445239  0.502383  -0.059670
C    -0.201107  0.021871  1.310788
C    1.126570  -0.732099  1.366444
O    1.520034  -1.521688  0.512241
H    -1.085418  1.297057  -0.016543
H    0.414459  0.868306  -0.473602
H    -0.129631  0.833633  2.052649
C    -1.372572  -0.887288  1.758301
C    -1.453795  -2.308392  1.142335
C    -1.565592  -2.408473  -0.357947
O    -2.737755  -2.536952  -0.914861
N    -0.478542  -2.433286  -1.080783
H    -2.300456  -0.333198  1.553709
H    -1.329027  -1.024876  2.847438
H    -2.332271  -2.810688  1.567210
H    -0.575584  -2.892125  1.450816
H    -0.526520  -2.463036  -2.095554
H    0.422545  -2.159726  -0.613740
O    1.810470  -0.455948  2.473209
H    2.641730  -0.976805  2.476078
Ba    -4.820386  -2.895272  -1.777742
