21
Energy: -239610.390361 eV PBE+vdW (tier 2 basis)
N    0.194662  0.236881  -0.146718
C    -0.006687  -0.166424  1.287834
C    1.235226  0.088317  2.161141
O    1.316362  -0.305935  3.294300
H    1.069763  -0.152421  -0.516155
H    0.258598  1.254974  -0.251649
H    -0.792208  0.494438  1.686459
C    -0.457543  -1.632668  1.387370
C    -1.948726  -1.931088  1.167128
C    -2.537289  -1.725013  -0.212649
O    -3.696686  -2.343846  -0.434285
N    -1.948281  -0.979895  -1.084244
H    -0.209558  -1.951423  2.408372
H    0.159040  -2.252528  0.717508
H    -2.560260  -1.338811  1.869915
H    -2.128337  -2.979634  1.444933
H    -0.687981  -0.198079  -0.705057
H    -2.448447  -0.906161  -1.973747
O    2.165795  0.811320  1.497657
H    2.919495  0.973483  2.102589
Ba    -5.629598  -3.445213  -0.733685
