21
Energy: -239610.265244 eV PBE+vdW (tier 2 basis)
N    -0.077984  -0.388457  0.167228
C    -0.154907  -0.282458  1.632458
C    1.147190  -0.771881  2.252126
O    1.398365  -1.951977  2.508082
H    0.166869  0.502707  -0.261103
H    0.610935  -1.073137  -0.144229
H    -0.241825  0.780023  1.887812
C    -1.415449  -0.998977  2.209533
C    -2.009747  -2.129449  1.350337
C    -1.583719  -3.544205  1.588432
O    -2.418697  -4.504358  1.279912
N    -0.402993  -3.832385  2.064442
H    -2.197915  -0.232842  2.270333
H    -1.236644  -1.324124  3.243706
H    -1.767305  -1.887612  0.293047
H    -3.104861  -2.117749  1.418484
H    0.313720  -3.068852  2.282655
H    -0.131969  -4.804625  2.191867
O    2.027409  0.204294  2.438185
H    2.865160  -0.172128  2.781576
Ba    -4.050585  -5.975390  0.674428
