21
Energy: -239610.840676 eV PBE+vdW (tier 2 basis)
N    1.176919  0.755708  2.365297
C    0.692920  -0.574716  2.711074
C    1.327651  -1.456137  1.635792
O    2.467311  -1.972215  1.852454
H    0.590493  1.271173  1.713384
H    1.384105  1.334078  3.175856
H    1.207692  -0.871978  3.634278
C    -0.823159  -0.757071  2.987770
C    -1.847399  -0.054905  2.059403
C    -2.437193  -0.899814  0.972872
O    -1.711813  -1.570612  0.140596
N    -3.740733  -0.974684  0.816615
H    -0.984962  -0.333446  3.987335
H    -1.058493  -1.827830  3.084638
H    -1.398789  0.826170  1.568108
H    -2.667065  0.346945  2.666824
H    -4.379027  -0.479122  1.430982
H    -4.138664  -1.528004  0.059072
O    0.787753  -1.601571  0.460139
H    -0.688526  -1.497384  0.312427
Ba    3.077339  -2.515566  -0.434822
