21
Energy: -239610.526573 eV PBE+vdW (tier 2 basis)
N    -0.842450  0.448795  0.077756
C    -0.273904  0.485190  1.465240
C    1.255249  0.499593  1.282707
O    1.769703  0.206218  0.224539
H    -0.106248  0.033624  -0.526336
H    -1.025605  1.390305  -0.283430
H    -0.594321  1.411837  1.959383
C    -0.696373  -0.745045  2.292426
C    -2.153402  -0.818508  2.785245
C    -3.222100  -1.187579  1.775221
O    -4.335152  -1.717399  2.285967
N    -3.037451  -0.975772  0.519258
H    -0.055451  -0.743259  3.184102
H    -0.439498  -1.658874  1.734987
H    -2.453838  0.134496  3.253680
H    -2.197665  -1.562501  3.592686
H    -1.779459  -0.154390  0.092108
H    -3.823345  -1.255787  -0.072965
O    1.883579  0.836154  2.409472
H    2.851330  0.811527  2.255202
Ba    -6.184318  -2.653569  3.142050
