21
Energy: -239609.915655 eV PBE+vdW (tier 2 basis)
N    -0.491503  -0.037732  0.332060
C    0.221031  -0.088098  1.616435
C    1.730008  -0.291502  1.407293
O    2.234590  -1.379661  1.227806
H    -0.386532  0.875380  -0.110108
H    -0.116302  -0.731126  -0.319467
H    0.055081  0.867235  2.132522
C    -0.322113  -1.256844  2.459935
C    -1.845154  -1.187572  2.537374
C    -2.574264  -2.399345  2.991256
O    -3.856580  -2.347068  3.196811
N    -1.942515  -3.541625  3.174439
H    0.138666  -1.244860  3.457505
H    0.017030  -2.176365  1.952713
H    -2.199987  -0.940612  1.511066
H    -2.183765  -0.348898  3.167130
H    -0.936649  -3.600529  3.029985
H    -2.433559  -4.386650  3.453371
O    2.385877  0.883611  1.385066
H    3.327857  0.703159  1.185573
Ba    -6.105691  -1.906071  3.392581
