21
Energy: -239611.451482 eV PBE+vdW (tier 2 basis)
N    0.078937  -0.640222  -0.237757
C    0.160954  -0.079576  1.149547
C    1.632173  -0.189303  1.586752
O    2.531549  -0.185606  0.675022
H    -0.800385  -0.405419  -0.708170
H    0.866831  -0.296906  -0.801822
H    -0.025464  1.005095  1.092798
C    -0.866164  -0.704335  2.125883
C    -1.508147  -2.062733  1.760628
C    -0.543090  -3.188255  1.438853
O    0.370948  -3.025312  0.587020
N    -0.701550  -4.358315  2.056741
H    -1.691069  0.005889  2.258811
H    -0.369869  -0.778163  3.101727
H    -2.168405  -1.960204  0.883285
H    -2.173608  -2.341840  2.587245
H    -1.449001  -4.521751  2.721572
H    -0.120915  -5.148380  1.787459
O    1.925682  -0.202697  2.822633
H    0.195316  -1.754631  -0.072538
Ba    4.392357  -0.109747  2.373340
