21
Energy: -239610.155301 eV PBE+vdW (tier 2 basis)
N    -0.284608  0.057028  0.562675
C    -0.169287  -0.270773  2.025839
C    1.282654  -0.367103  2.514161
O    1.579635  -0.854463  3.572438
H    0.341577  0.832533  0.314451
H    -0.033886  -0.736307  -0.037838
H    -0.601202  0.605259  2.533937
C    -0.965929  -1.530334  2.408797
C    -2.346785  -1.751394  1.739171
C    -3.275913  -0.553531  1.613541
O    -4.479184  -0.654207  2.173926
N    -2.870299  0.465588  0.935412
H    -1.072884  -1.500131  3.499816
H    -0.356978  -2.421088  2.199587
H    -2.855818  -2.548331  2.292408
H    -2.206247  -2.142321  0.719135
H    -1.359054  0.336484  0.453170
H    -3.547590  1.228116  0.859762
O    2.134215  0.194873  1.624277
H    3.041324  0.153747  1.992685
Ba    -6.555238  -0.887127  3.002548
