21
Energy: -239611.53683 eV PBE+vdW (tier 2 basis)
N    0.672131  1.095295  0.167513
C    0.185681  0.880998  1.538187
C    1.364560  1.300215  2.447538
O    1.260961  1.438427  3.688023
H    0.262791  1.910538  -0.288391
H    0.548101  0.288755  -0.444145
H    -0.656178  1.549268  1.779670
C    -0.249202  -0.593553  1.726429
C    -0.571548  -1.107578  3.146552
C    -1.671174  -0.377151  3.892477
O    -1.401126  0.401326  4.855291
N    -2.930899  -0.570379  3.518460
H    0.550229  -1.240694  1.334679
H    -1.119224  -0.746379  1.071636
H    0.324889  -1.086335  3.776693
H    -0.855359  -2.166104  3.050095
H    -3.181313  -1.235799  2.793723
H    -3.689820  -0.109639  4.015523
O    2.464667  1.515892  1.817114
H    2.146893  1.383096  0.821744
Ba    0.379032  1.686833  5.937800
