21
Energy: -239611.595915 eV PBE+vdW (tier 2 basis)
N    0.154336  0.958467  0.202796
C    -0.013818  0.044203  1.360084
C    1.223444  -0.857442  1.459929
O    2.043507  -0.956679  0.545185
H    -0.759272  1.347469  -0.046363
H    0.697143  1.771432  0.511341
H    -0.038719  0.619677  2.303059
C    -1.355842  -0.745280  1.330404
C    -1.914119  -1.278261  -0.010916
C    -1.072707  -2.302179  -0.740408
O    -0.087665  -1.933977  -1.441897
N    -1.392240  -3.586421  -0.633532
H    -2.125578  -0.071052  1.730210
H    -1.291369  -1.572451  2.051819
H    -2.084839  -0.454581  -0.717994
H    -2.906880  -1.693492  0.209013
H    -2.207071  -3.898791  -0.114880
H    -0.853076  -4.291609  -1.131431
O    1.427184  -1.550389  2.563536
H    0.784969  -1.357553  3.274587
Ba    1.715802  -0.345607  -1.885584
