21
Energy: -239611.005963 eV PBE+vdW (tier 2 basis)
N    -0.864804  -0.042593  0.226547
C    -0.100869  -0.000867  1.510017
C    1.381048  -0.280126  1.165392
O    1.753318  -0.353240  0.013293
H    -0.117283  -0.091912  -0.496397
H    -1.325569  -0.956216  0.151351
H    -0.106287  1.036563  1.896200
C    -0.648674  -0.928469  2.602577
C    -2.149287  -0.777782  2.965206
C    -2.570492  0.632449  3.293601
O    -2.738383  1.482588  2.357685
N    -2.748051  0.983988  4.556505
H    -0.037740  -0.777613  3.501590
H    -0.493850  -1.975958  2.302663
H    -2.362546  -1.451844  3.804792
H    -2.788503  -1.112504  2.135152
H    -2.643748  0.318701  5.317133
H    -3.032398  1.931893  4.795671
O    2.142218  -0.375353  2.254488
H    3.073933  -0.523635  1.986492
Ba    -2.510868  2.107826  0.042994
