21
Energy: -239611.676416 eV PBE+vdW (tier 2 basis)
N    0.002942  -2.225068  0.997556
C    0.130465  -0.745376  0.937614
C    1.617727  -0.378251  0.935402
O    2.473685  -1.142667  1.387675
H    -0.917075  -2.456723  1.381425
H    -0.019861  -2.585183  0.038408
H    -0.317023  -0.368822  0.002196
C    -0.608396  -0.003588  2.087638
C    0.016294  0.067661  3.502045
C    -0.047378  -1.198206  4.329114
O    0.637334  -2.215834  4.019555
N    -0.834369  -1.212346  5.398319
H    -1.630617  -0.408493  2.137998
H    -0.736856  1.037399  1.760427
H    -0.491673  0.880893  4.036174
H    1.076140  0.361421  3.448568
H    -1.373236  -0.400794  5.683649
H    -0.876134  -2.037624  5.992456
O    1.997009  0.803585  0.493438
H    1.273104  1.324947  0.094146
Ba    2.137067  -3.406647  2.495999
