21
Energy: -239609.918499 eV PBE+vdW (tier 2 basis)
N    -0.306246  -0.208296  -0.079649
C    -0.237650  0.043931  1.355027
C    1.187766  0.388123  1.818638
O    2.177436  0.014738  1.231836
H    -0.432129  0.662122  -0.595668
H    0.588825  -0.599862  -0.391162
H    -0.905424  0.876547  1.616890
C    -0.698409  -1.228487  2.120323
C    -2.043649  -1.682686  1.556775
C    -2.515748  -3.056295  1.855664
O    -3.701142  -3.429718  1.475196
N    -1.744945  -3.923010  2.483554
H    -0.742727  -1.029702  3.199519
H    0.072500  -1.998154  1.942065
H    -1.940474  -1.587412  0.448761
H    -2.854082  -0.988972  1.832478
H    -0.819037  -3.651084  2.804831
H    -2.046499  -4.877630  2.659021
O    1.178478  1.108058  2.958154
H    2.107675  1.283452  3.213912
Ba    -5.787047  -3.756881  0.560925
