21
Energy: -239611.78772 eV PBE+vdW (tier 2 basis)
N    0.125268  -0.977269  0.040165
C    0.120591  0.082888  1.084958
C    1.404124  -0.087132  1.891466
O    1.863684  -1.209891  2.146190
H    -0.772522  -0.961968  -0.450641
H    0.808354  -0.714626  -0.678337
H    0.098271  1.087458  0.638735
C    -1.048892  -0.042059  2.110032
C    -2.427973  -0.447094  1.570108
C    -2.681774  -1.948588  1.569228
O    -1.731782  -2.781244  1.633428
N    -3.941799  -2.358888  1.492628
H    -1.136600  0.939077  2.592702
H    -0.774616  -0.742361  2.912555
H    -2.611269  -0.063859  0.551942
H    -3.201646  0.032954  2.186164
H    -4.721183  -1.708204  1.466215
H    -4.158311  -3.352679  1.483085
O    1.918432  1.040101  2.322087
H    2.707394  0.877861  2.884857
Ba    0.648416  -3.392453  1.377131
