21
Energy: -239610.009367 eV PBE+vdW (tier 2 basis)
N    -0.088415  0.356854  0.089492
C    -0.167142  -0.157792  1.449180
C    1.225029  -0.607367  1.877249
O    2.252747  -0.302731  1.328678
H    0.853430  0.703603  -0.102489
H    -0.744927  1.121396  -0.061942
H    -0.429534  0.614810  2.199066
C    -1.270525  -1.246408  1.541501
C    -1.202986  -2.250978  0.380976
C    -0.484785  -3.541179  0.562614
O    -0.630450  -4.472647  -0.336174
N    0.300791  -3.765273  1.592809
H    -2.233314  -0.725917  1.457264
H    -1.285221  -1.721753  2.530990
H    -0.704892  -1.698082  -0.452410
H    -2.204736  -2.505764  0.007473
H    0.799796  -4.646550  1.680515
H    0.490701  -3.032238  2.291678
O    1.190292  -1.395103  3.010309
H    2.115122  -1.472745  3.324454
Ba    -1.045316  -5.802387  -2.159537
