21
Energy: -239610.95408 eV PBE+vdW (tier 2 basis)
N    0.942308  -0.006719  0.195083
C    0.124163  0.018427  1.409365
C    1.024165  -0.392841  2.570735
O    2.059130  0.312024  2.804596
H    0.449018  0.450743  -0.573968
H    1.812847  0.509476  0.327955
H    -0.205640  1.039499  1.700157
C    -1.160082  -0.806630  1.212926
C    -0.954780  -2.195302  0.552178
C    -1.190222  -3.356356  1.454440
O    -0.724051  -3.391309  2.665622
N    -1.870386  -4.408268  1.057028
H    -1.808254  -0.219625  0.549456
H    -1.713726  -0.877771  2.159071
H    0.088521  -2.251905  0.184929
H    -1.584471  -2.302080  -0.338541
H    -2.280722  -4.452630  0.129648
H    -1.997204  -5.207514  1.675832
O    0.765507  -1.399519  3.342397
H    -0.190213  -2.550390  2.903122
Ba    2.804980  -0.778647  4.861957
