21
Energy: -239611.258526 eV PBE+vdW (tier 2 basis)
N    0.094078  -1.539004  0.393626
C    0.171394  -0.361570  1.309649
C    1.542714  0.301330  1.325083
O    1.791592  1.356129  1.821675
H    -0.130088  -1.189009  -0.544187
H    -0.733173  -2.081585  0.661542
H    -0.498895  0.430237  0.938544
C    -0.298796  -0.641990  2.760635
C    0.660368  -1.297140  3.780803
C    0.908043  -2.775944  3.617812
O    1.477488  -3.232679  2.577606
N    0.531617  -3.594623  4.589540
H    -1.249068  -1.194917  2.711192
H    -0.553685  0.339471  3.180811
H    0.255131  -1.099546  4.781419
H    1.643565  -0.800199  3.758271
H    0.090053  -3.253356  5.438048
H    0.714983  -4.593545  4.523865
O    2.560063  -0.465158  0.701066
H    3.354448  0.111105  0.735126
Ba    2.358170  -3.133006  0.333875
