21
Energy: -239611.601576 eV PBE+vdW (tier 2 basis)
N    0.677349  -0.068340  0.110453
C    -0.076898  0.220768  1.388560
C    0.965223  1.051235  2.216328
O    0.573447  1.436751  3.375168
H    0.250893  0.331700  -0.731460
H    0.852093  -1.065827  -0.052999
H    -0.906846  0.892729  1.132805
C    -0.582804  -1.038954  2.124543
C    -2.102884  -1.230606  2.176130
C    -2.860434  -0.289740  3.101727
O    -2.300314  0.305825  4.062794
N    -4.165369  -0.149852  2.880205
H    -0.186884  -1.029538  3.147910
H    -0.147991  -1.936425  1.661891
H    -2.311837  -2.247157  2.550232
H    -2.548407  -1.192401  1.171128
H    -4.739572  0.393001  3.519823
H    -4.639806  -0.640378  2.128447
O    2.053873  1.258166  1.678270
H    1.610625  0.443437  0.344178
Ba    -0.645459  1.618608  5.371864
