21
Energy: -239609.973919 eV PBE+vdW (tier 2 basis)
N    1.013285  0.308593  0.464897
C    1.106207  -0.484586  1.689535
C    2.204864  -1.538323  1.551225
O    2.527455  -2.041413  0.490877
H    1.819857  0.148727  -0.138321
H    0.950828  1.304853  0.664129
H    1.325321  0.123400  2.577670
C    -0.255172  -1.212711  1.937827
C    -0.654983  -1.937624  0.654631
C    -2.016610  -2.500544  0.517239
O    -2.287272  -3.255973  -0.504129
N    -2.968948  -2.238774  1.391020
H    -0.984546  -0.423545  2.180554
H    -0.179983  -1.888489  2.801172
H    0.057666  -2.741425  0.411441
H    -0.516298  -1.182999  -0.156145
H    -2.778432  -1.662602  2.206748
H    -3.912882  -2.597649  1.272640
O    2.724539  -1.868412  2.744554
H    3.416674  -2.546808  2.603257
Ba    -2.097033  -4.419577  -2.482899
