21
Energy: -239610.546316 eV PBE+vdW (tier 2 basis)
N    -0.699107  0.488147  0.428087
C    -0.232314  -0.026192  1.758437
C    1.106103  -0.727775  1.486989
O    1.607151  -0.762754  0.382512
H    0.111509  0.443585  -0.216831
H    -1.048916  1.448308  0.482383
H    -0.015473  0.835293  2.406210
C    -1.284813  -0.898125  2.469319
C    -1.583008  -2.302545  1.912459
C    -2.385473  -2.397903  0.631097
O    -2.987695  -3.568687  0.417271
N    -2.448584  -1.400316  -0.179959
H    -2.217777  -0.320756  2.545799
H    -0.926319  -1.024988  3.498999
H    -2.133520  -2.859023  2.683878
H    -0.650639  -2.873238  1.761223
H    -1.497558  -0.206662  0.054574
H    -3.007747  -1.575461  -1.018544
O    1.618570  -1.257181  2.601902
H    2.501172  -1.629753  2.396181
Ba    -4.019999  -5.526817  0.060278
