21
Energy: -239611.209093 eV PBE+vdW (tier 2 basis)
N    0.623625  -0.433572  0.063107
C    -0.092440  -0.153540  1.296804
C    0.925779  -0.100366  2.433476
O    1.253035  -1.085136  3.140734
H    1.157610  0.354014  -0.299724
H    1.198810  -1.273848  0.077956
H    -0.533073  0.849345  1.203509
C    -1.193236  -1.191592  1.529955
C    -2.129584  -0.865686  2.718930
C    -2.484268  -2.085352  3.531105
O    -1.559457  -2.779796  4.065686
N    -3.753609  -2.419942  3.692093
H    -0.729470  -2.182361  1.661901
H    -1.771417  -1.258016  0.600859
H    -3.029337  -0.345578  2.369461
H    -1.636721  -0.178963  3.427554
H    -4.506176  -1.880962  3.274203
H    -4.007819  -3.229772  4.254082
O    1.520622  1.068208  2.549911
H    2.263669  1.035269  3.188849
Ba    0.794395  -3.156311  4.440581
