21
Energy: -239610.827605 eV PBE+vdW (tier 2 basis)
N    -1.072858  0.676925  1.044214
C    -0.375200  -0.040470  2.112003
C    0.996983  -0.357991  1.512491
O    2.031179  0.248091  1.925747
H    -1.666928  0.101580  0.452510
H    -1.619051  1.456521  1.403162
H    -0.165576  0.694066  2.899474
C    -1.099324  -1.217123  2.819402
C    -1.139385  -2.631682  2.181261
C    -1.714212  -2.722308  0.801345
O    -1.077601  -2.251975  -0.224106
N    -2.880132  -3.284530  0.576939
H    -2.126536  -0.875098  3.011281
H    -0.637473  -1.359705  3.806604
H    -1.709128  -3.286232  2.853068
H    -0.123840  -3.053746  2.127781
H    -3.427788  -3.687922  1.330978
H    -3.248789  -3.352709  -0.371089
O    1.109310  -1.167657  0.495543
H    -0.164292  -1.826314  0.049057
Ba    3.442958  -0.134559  -0.033496
