21
Energy: -239610.88431 eV PBE+vdW (tier 2 basis)
N    -0.139016  0.251119  0.088254
C    -0.083380  -0.120841  1.483647
C    1.367969  -0.377658  1.878495
O    2.239999  -0.693307  1.016222
H    0.026691  -0.530979  -0.544614
H    -1.026762  0.686483  -0.156024
H    -0.391661  0.763230  2.065310
C    -1.011383  -1.315921  1.881315
C    -0.995517  -1.845011  3.343211
C    -1.215635  -0.798916  4.393210
O    -0.297763  0.068937  4.684656
N    -2.345731  -0.715174  5.057315
H    -0.775373  -2.172365  1.233905
H    -2.032448  -1.003610  1.623019
H    -0.032807  -2.327480  3.569219
H    -1.762414  -2.624642  3.435581
H    -3.103711  -1.372139  4.899663
H    -2.476125  0.004595  5.767569
O    1.729892  -0.242021  3.124437
H    0.544604  -0.045043  4.097330
Ba    4.231691  -0.242579  2.363993
