21
Energy: -239610.13809 eV PBE+vdW (tier 2 basis)
N    0.673418  0.745363  0.574377
C    0.194616  0.202033  1.836014
C    1.331980  0.189492  2.855485
O    1.596093  -0.731544  3.625673
H    -0.099467  1.050131  -0.016319
H    1.289677  1.545332  0.711006
H    -0.593332  0.822238  2.325437
C    -0.394631  -1.199360  1.567487
C    -1.309852  -1.790996  2.680626
C    -0.813681  -3.058159  3.321994
O    -1.593987  -4.100764  3.398356
N    0.398368  -3.091125  3.806421
H    0.422463  -1.884712  1.306735
H    -0.999402  -1.104405  0.657656
H    -2.313426  -1.990426  2.289709
H    -1.438513  -1.053546  3.491764
H    0.978921  -2.205196  3.748105
H    0.767718  -3.926381  4.252632
O    2.012567  1.330999  2.860070
H    2.719867  1.283839  3.536499
Ba    -3.093945  -5.825804  3.480990
