21
Energy: -239610.936228 eV PBE+vdW (tier 2 basis)
N    0.224193  -0.971209  -0.058696
C    -0.194368  -0.216385  1.172357
C    1.194826  -0.047112  1.796962
O    1.972248  0.800167  1.273176
H    -0.288397  -1.852633  -0.128521
H    -0.005271  -0.433797  -0.896303
H    -0.580142  0.771973  0.891861
C    -1.224821  -0.988479  1.998805
C    -1.503668  -0.398486  3.408207
C    -0.959659  -1.223103  4.541867
O    0.223034  -1.741752  4.515010
N    -1.678727  -1.438977  5.619727
H    -0.915551  -2.040958  2.086168
H    -2.167844  -0.995961  1.437603
H    -2.580236  -0.255519  3.557448
H    -1.059234  0.606769  3.513481
H    -2.624798  -1.081850  5.711178
H    -1.287706  -1.963117  6.402055
O    1.661482  -0.992865  2.539819
H    0.771100  -1.487478  3.675433
Ba    3.353517  -1.064420  0.470622
