21
Energy: -239611.676682 eV PBE+vdW (tier 2 basis)
N    -0.385358  -0.558801  0.209554
C    0.250999  -0.283160  1.532236
C    1.697289  -0.792835  1.551385
O    2.112900  -1.537860  0.599146
H    -0.223037  0.197201  -0.461917
H    0.021555  -1.411278  -0.196822
H    0.289257  0.806395  1.675979
C    -0.560630  -0.911905  2.687816
C    -1.945035  -0.288573  2.959402
C    -3.042805  -0.673230  1.983023
O    -2.808322  -0.881101  0.760523
N    -4.286849  -0.762661  2.443176
H    0.041395  -0.787084  3.596934
H    -0.657318  -1.995892  2.520512
H    -1.879713  0.812448  2.953242
H    -2.251909  -0.560148  3.978176
H    -4.519379  -0.610936  3.417881
H    -5.044773  -0.965516  1.795788
O    2.446374  -0.466877  2.529353
H    -1.554605  -0.709676  0.399750
Ba    4.433669  -1.667560  1.626453
