21
Energy: -239611.477313 eV PBE+vdW (tier 2 basis)
N    -0.676891  0.207613  0.615514
C    -0.025147  -0.282034  1.864236
C    1.485854  -0.465874  1.701226
O    2.051973  -0.093512  0.618148
H    -0.184429  1.017253  0.224505
H    -0.707830  -0.507604  -0.117937
H    -0.151269  0.534083  2.594315
C    -0.722149  -1.546175  2.418933
C    -2.264439  -1.631385  2.261948
C    -3.051051  -0.353923  2.498421
O    -2.819254  0.679824  1.809680
N    -4.016761  -0.348958  3.411082
H    -0.451020  -1.616635  3.478865
H    -0.302437  -2.440376  1.937025
H    -2.620369  -2.436500  2.916186
H    -2.522550  -1.948160  1.238943
H    -4.249450  -1.169168  3.959076
H    -4.588761  0.484481  3.528692
O    2.146081  -0.957281  2.674967
H    -1.763188  0.492861  1.013930
Ba    4.345718  -0.664313  1.537125
