21
Energy: -239610.247982 eV PBE+vdW (tier 2 basis)
N    -0.382648  -0.126903  0.253848
C    -0.342791  -0.577589  1.681948
C    1.049987  -0.237967  2.231473
O    1.849621  0.408310  1.593345
H    0.134485  -0.762038  -0.365302
H    0.077013  0.791258  0.170159
H    -1.065856  0.067720  2.203272
C    -0.757097  -2.049950  1.848461
C    -1.927573  -2.575190  0.973404
C    -3.158627  -1.693815  0.812065
O    -4.331956  -2.229300  1.151057
N    -3.013627  -0.515042  0.312346
H    -0.993517  -2.185151  2.911107
H    0.107512  -2.699148  1.649035
H    -2.230735  -3.545808  1.381359
H    -1.561626  -2.784026  -0.044269
H    -1.456151  -0.114590  0.015537
H    -3.885404  0.008834  0.203059
O    1.214885  -0.717013  3.469358
H    2.100471  -0.449057  3.793140
Ba    -6.342416  -3.151715  1.535294
