21
Energy: -239610.184078 eV PBE+vdW (tier 2 basis)
N    -0.098640  -0.360802  -0.203896
C    -0.107111  -0.108162  1.232507
C    1.287510  0.291534  1.726445
O    2.053359  -0.422513  2.378671
H    -0.019188  0.496431  -0.749109
H    0.649318  -0.993741  -0.489265
H    -0.773939  0.749921  1.408325
C    -0.672644  -1.352046  1.936272
C    -0.907493  -1.235029  3.470051
C    -0.079760  -2.160552  4.322308
O    -0.650372  -2.866966  5.258454
N    1.206840  -2.237606  4.113425
H    -0.030071  -2.215226  1.710686
H    -1.631370  -1.557215  1.447206
H    -1.960383  -1.415294  3.712704
H    -0.688701  -0.210010  3.816729
H    1.637013  -1.607955  3.371338
H    1.795619  -2.845344  4.677124
O    1.637910  1.503750  1.301649
H    2.565252  1.682538  1.561789
Ba    -1.829818  -4.007523  6.854318
