21
Energy: -239610.589424 eV PBE+vdW (tier 2 basis)
N    -0.215230  -0.764680  0.213033
C    0.368325  -0.808822  1.581039
C    1.519691  -1.823016  1.559406
O    2.135679  -2.023490  0.495796
H    -0.860727  -1.562877  0.140112
H    -0.883608  0.071462  0.275911
H    0.892020  0.155611  1.731447
C    -0.682567  -0.941050  2.704561
C    -1.386921  0.367807  3.120350
C    -2.233318  1.083113  2.066903
O    -1.906229  1.139707  0.863156
N    -3.327808  1.708682  2.517434
H    -0.207784  -1.310085  3.629269
H    -1.418333  -1.710572  2.423995
H    -0.631292  1.100290  3.450916
H    -1.997832  0.150604  4.006414
H    -3.612093  1.688877  3.489659
H    -3.880234  2.264610  1.870439
O    1.930853  -2.443469  2.634035
H    1.380835  -2.247263  3.419499
Ba    1.628630  -1.059913  -1.731121
