23
Energy: -100684.518599 eV PBE+vdW (tier 2 basis)
C    -0.002607  0.585899  -0.345439
C    0.194204  0.257282  1.096950
O    1.358165  0.091164  1.578374
H    0.784281  0.086976  -0.923746
H    0.117700  1.668424  -0.512005
H    -0.984950  0.282224  -0.721192
N    -0.871132  0.150434  1.925638
C    -1.983190  1.099783  1.932436
C    -1.409130  2.488827  2.329890
O    -0.219621  2.571241  2.794367
H    -0.648229  -0.240001  2.842255
H    -2.398838  1.169512  0.916593
C    -3.065665  0.618316  2.905414
H    -3.927342  1.292702  2.918948
H    -2.677454  0.552363  3.931230
H    -3.418813  -0.372540  2.596961
N    -2.142741  3.578370  2.193244
C    -3.501161  3.725294  1.659848
H    -1.698967  4.434587  2.528273
H    -4.231240  3.775638  2.477630
H    -3.754818  2.897413  0.992274
H    -3.546928  4.658144  1.088248
Sr    1.937476  1.774948  3.065807
