23
Energy: -100685.224892 eV PBE+vdW (tier 2 basis)
C    -1.490276  1.437653  -0.023425
C    -1.041845  0.131365  0.542976
O    0.013921  -0.432201  0.115831
H    -2.446054  1.784388  0.382607
H    -1.564716  1.362166  -1.115824
H    -0.718370  2.191117  0.191976
N    -1.767961  -0.426623  1.521595
C    -1.388631  -1.599612  2.332169
C    -1.655289  -2.908618  1.552078
O    -0.838764  -3.254316  0.638883
H    -2.598762  0.078286  1.823114
H    -0.294850  -1.563507  2.454174
C    -2.044178  -1.500152  3.707014
H    -1.760741  -2.351120  4.337676
H    -3.142468  -1.452333  3.650944
H    -1.705151  -0.589723  4.216055
N    -2.713407  -3.633082  1.861515
C    -3.105136  -4.895343  1.232437
H    -3.302518  -3.295744  2.619989
H    -3.243144  -5.657080  2.008401
H    -2.323401  -5.212550  0.539511
H    -4.049802  -4.761626  0.690852
Sr    0.899542  -2.399345  -0.587548
