23
Energy: -100684.571546 eV PBE+vdW (tier 2 basis)
C    0.366944  -0.688372  1.843803
C    0.042784  0.643189  2.435414
O    0.962320  1.401189  2.879051
H    1.217347  -1.107774  2.395536
H    0.691427  -0.578084  0.797071
H    -0.473288  -1.389036  1.878261
N    -1.238630  1.073053  2.501409
C    -2.185849  0.941865  1.399549
C    -1.733270  1.933541  0.276697
O    -0.679824  2.636538  0.427140
H    -1.371900  1.902644  3.081908
H    -2.096602  -0.074687  0.987203
C    -3.619219  1.176288  1.884026
H    -4.351050  1.024074  1.081984
H    -3.753455  2.195045  2.272027
H    -3.857483  0.460730  2.679259
N    -2.473291  1.992434  -0.813416
C    -2.235406  2.838080  -1.985165
H    -3.299990  1.398583  -0.846814
H    -2.126716  2.206787  -2.875111
H    -1.325506  3.421503  -1.833992
H    -3.087231  3.513835  -2.127691
Sr    1.226888  3.292575  1.573854
