23
Energy: -100685.021601 eV PBE+vdW (tier 2 basis)
C    0.477272  -1.018917  0.080393
C    0.091958  -0.560267  1.446549
O    0.912240  0.081416  2.174080
H    0.719439  -0.136587  -0.529570
H    -0.306301  -1.594490  -0.422779
H    1.391114  -1.624579  0.140583
N    -1.144524  -0.826286  1.894352
C    -1.714010  -0.299222  3.145634
C    -1.120876  -1.036271  4.372139
O    -0.112102  -0.495579  4.939075
H    -1.777964  -1.313284  1.264059
H    -1.321223  0.721948  3.259617
C    -3.235720  -0.201830  3.052075
H    -3.661455  0.090573  4.019469
H    -3.710648  -1.138424  2.740693
H    -3.502941  0.573569  2.323932
N    -1.594527  -2.176143  4.846579
C    -2.686495  -3.032963  4.369862
H    -1.108102  -2.500225  5.683642
H    -3.658522  -2.668344  4.722753
H    -2.521788  -4.035394  4.775786
H    -2.683268  -3.105505  3.278512
Sr    1.750444  0.631803  4.219566
