23
Energy: -100683.493152 eV PBE+vdW (tier 2 basis)
C    0.381839  1.369788  0.554784
C    -0.229697  0.517894  1.619661
O    0.363627  0.447081  2.787601
H    0.441253  2.411407  0.900501
H    -0.193531  1.345164  -0.375861
H    1.403502  1.024456  0.343109
N    -1.327102  -0.131987  1.366945
C    -2.134315  -1.034066  2.191314
C    -3.056445  -1.679941  1.102860
O    -3.062304  -1.144495  -0.015673
H    -1.795032  -0.123202  0.414231
H    -1.484903  -1.790284  2.655954
C    -2.949603  -0.269566  3.242889
H    -3.561737  -0.957494  3.836021
H    -3.618245  0.453473  2.760273
H    -2.292598  0.274780  3.933301
N    -3.804602  -2.744681  1.412636
C    -3.886775  -3.485576  2.666129
H    -4.407016  -3.051756  0.650384
H    -4.720478  -3.136074  3.290621
H    -2.952245  -3.405982  3.231920
H    -4.044502  -4.545372  2.439517
Sr    1.702910  0.707433  4.445881
