23
Energy: -100683.682283 eV PBE+vdW (tier 2 basis)
C    0.083432  -0.144896  -0.052839
C    0.002097  0.396676  1.333213
O    1.121243  0.699411  1.950503
H    0.775301  0.463966  -0.648011
H    -0.887918  -0.177810  -0.553800
H    0.490121  -1.166583  -0.020238
N    -1.117245  0.580869  1.970575
C    -2.514918  0.358181  1.577550
C    -3.261882  1.165033  2.686916
O    -2.594420  1.527602  3.673524
H    -1.168709  1.008186  2.939537
H    -2.697259  0.799761  0.587541
C    -2.888886  -1.129441  1.605396
H    -2.293264  -1.701164  0.883474
H    -3.943301  -1.266639  1.342575
H    -2.729580  -1.548961  2.606292
N    -4.566840  1.415041  2.553750
C    -5.466824  1.075445  1.454792
H    -4.973605  1.896921  3.353832
H    -6.190169  1.887975  1.329072
H    -6.016534  0.146430  1.657369
H    -4.918122  0.972421  0.513062
Sr    2.907282  1.235577  3.002916
