23
Energy: -100684.571474 eV PBE+vdW (tier 2 basis)
C    0.482448  0.999575  1.038266
C    -0.391157  -0.204673  0.916704
O    0.112095  -1.369752  0.836581
H    -0.006493  1.920122  0.704202
H    1.385353  0.826034  0.439669
H    0.814078  1.133954  2.079887
N    -1.738333  -0.077939  0.898147
C    -2.472428  0.791605  1.812046
C    -2.386773  0.144898  3.232366
O    -1.709643  -0.919191  3.419784
H    -2.233937  -0.929885  0.630411
H    -1.946810  1.757134  1.866157
C    -3.905831  1.014204  1.322864
H    -4.472958  0.074189  1.289894
H    -3.884988  1.450027  0.317518
H    -4.451844  1.713227  1.967316
N    -3.019999  0.739911  4.223906
C    -3.028057  0.271209  5.614323
H    -3.550506  1.581577  4.012302
H    -2.004284  0.208990  6.000729
H    -3.507544  -0.712476  5.682393
H    -3.594311  0.987236  6.215080
Sr    -0.304080  -2.631977  2.729455
