23
Energy: -100685.221976 eV PBE+vdW (tier 2 basis)
C    -1.944576  1.408680  0.235492
C    -1.310757  0.112954  0.619731
O    -0.356599  -0.370788  -0.066163
H    -1.182282  2.199048  0.299690
H    -2.793792  1.683970  0.869249
H    -2.270707  1.365803  -0.811612
N    -1.759442  -0.521518  1.711589
C    -1.143830  -1.698053  2.355040
C    -1.510172  -2.989655  1.588889
O    -0.904654  -3.256834  0.501975
H    -2.521468  -0.078533  2.220697
H    -0.054258  -1.597095  2.231242
C    -1.477048  -1.694870  3.844568
H    -1.082054  -0.785165  4.312919
H    -1.013423  -2.550206  4.350093
H    -2.560704  -1.716944  4.036132
N    -2.432247  -3.794826  2.079293
C    -2.863152  -5.049213  1.454527
H    -2.868486  -3.533772  2.960057
H    -3.529193  -4.845910  0.606479
H    -3.401084  -5.640549  2.200042
H    -1.989964  -5.609424  1.104736
Sr    0.453891  -2.249101  -1.047669
