23
Energy: -100683.529553 eV PBE+vdW (tier 2 basis)
C    -0.041174  -0.064388  -0.104622
C    0.029983  0.321284  1.344649
O    1.263683  0.445446  1.834021
H    0.277811  -1.109867  -0.223660
H    0.647855  0.556554  -0.690253
H    -1.044831  0.032479  -0.529253
N    -0.964655  0.524976  2.137205
C    -2.363710  0.406418  1.740043
C    -3.080487  1.196334  2.842231
O    -2.332978  1.520647  3.847174
H    -1.397955  1.171202  3.487113
H    -2.572083  0.887012  0.769711
C    -2.847189  -1.057411  1.730126
H    -2.647883  -1.532681  2.698172
H    -2.316671  -1.617318  0.951821
H    -3.920082  -1.131805  1.520152
N    -4.347522  1.528037  2.843932
C    -5.345694  1.283562  1.800550
H    -4.667444  2.015969  3.682162
H    -4.860990  1.084658  0.841074
H    -5.966909  2.179445  1.698140
H    -5.984830  0.434882  2.074140
Sr    3.217754  0.593567  2.606371
