23
Energy: -100683.765505 eV PBE+vdW (tier 2 basis)
C    0.162377  0.330268  0.314952
C    -0.258535  -0.554885  1.437722
O    0.367109  -1.698322  1.598515
H    -0.239812  1.343614  0.400347
H    -0.185225  -0.098950  -0.636655
H    1.257260  0.379241  0.272211
N    -1.218352  -0.259779  2.265854
C    -2.085499  0.919243  2.375555
C    -2.689322  0.709565  3.804210
O    -2.477071  -0.378389  4.367207
H    -1.468412  -0.866914  3.097740
H    -1.471965  1.832487  2.361670
C    -3.166042  0.959544  1.288826
H    -3.811171  1.835726  1.424584
H    -3.796935  0.063317  1.332856
H    -2.724322  1.033776  0.287737
N    -3.406048  1.712880  4.311408
C    -4.070079  1.663461  5.614166
H    -3.507991  2.562219  3.764340
H    -3.822804  0.713617  6.094418
H    -5.156982  1.735672  5.487484
H    -3.723255  2.492696  6.241531
Sr    1.375075  -3.561087  1.913324
