23
Energy: -100685.156043 eV PBE+vdW (tier 2 basis)
C    0.380965  1.503156  0.098866
C    -0.475548  0.513980  0.819989
O    -0.130665  -0.705988  0.878744
H    1.405416  1.455096  0.490232
H    0.015723  2.533015  0.165461
H    0.430502  1.211656  -0.960441
N    -1.606720  0.955922  1.389868
C    -2.707214  0.182434  2.012322
C    -2.289267  -0.466843  3.346794
O    -1.526154  -1.481525  3.369922
H    -1.785628  1.951230  1.285722
H    -3.465664  0.942225  2.242776
C    -3.352608  -0.832700  1.063557
H    -3.730182  -0.319398  0.171607
H    -4.199956  -1.324197  1.557284
H    -2.652626  -1.605785  0.724369
N    -2.797876  0.050129  4.453406
C    -2.574480  -0.450746  5.810645
H    -3.400808  0.864359  4.360450
H    -3.533128  -0.485638  6.339550
H    -1.891938  0.218137  6.350175
H    -2.145254  -1.453765  5.760661
Sr    -0.031890  -2.625754  2.070043
