15
Energy: -173807.5089294  eV PBE+vdW (tier 2 basis)
N    0.210830  0.211535  -0.045418
C    0.046401  -0.025882  1.442971
C    1.394335  -0.484515  2.011901
O    1.480868  -0.527760  3.271341
H    -0.670933  0.133473  -0.574160
H    0.590202  1.155394  -0.224417
H    -0.334621  0.896569  1.898347
C    -0.921375  -1.187527  1.798967
S    -0.229341  -2.931522  1.784629
H    -1.769079  -1.227247  1.098438
H    -1.307276  -0.999659  2.805641
H    -0.990183  -3.376283  2.820319
O    2.130025  -1.114780  1.194968
H    0.908093  -0.466937  -0.410737
Cd    2.222259  -2.634416  2.994899
