15
Energy: -173806.8864264  eV PBE+vdW (tier 2 basis)
N    0.435401  -0.532585  0.130456
C    0.315866  0.044941  1.499722
C    1.589413  -0.181855  2.340977
O    2.435142  -1.059459  2.076771
H    -0.519437  -0.877025  -0.129685
H    0.683513  0.191614  -0.555365
H    0.151492  1.131024  1.411065
C    -0.891904  -0.604431  2.237567
S    -2.375275  -0.494932  1.155436
H    -1.088703  -0.074419  3.177572
H    -0.690567  -1.655665  2.480312
H    -2.772133  -1.784102  1.300175
O    1.778822  0.518330  3.420394
H    1.117685  1.222080  3.588555
Cd    2.116193  -2.078111  0.162239
