15
Energy: -173807.4276634  eV PBE+vdW (tier 2 basis)
N    0.953288  -0.298498  0.105250
C    0.810668  -0.040925  1.591415
C    2.308345  0.160799  2.058622
O    2.600034  0.336840  3.313436
H    0.756079  -1.267750  -0.179217
H    0.389063  0.331545  -0.480057
H    0.285974  0.920575  1.695517
C    0.019019  -1.178150  2.272213
S    -0.820689  -0.630812  3.840510
H    0.647214  -2.052697  2.481621
H    -0.827764  -1.489068  1.642253
H    -0.937548  -1.864933  4.406909
O    3.148665  0.171398  1.172335
H    1.999693  -0.110783  -0.039555
Cd    1.349320  0.185383  4.967551
