15
Energy: -173808.1850904  eV PBE+vdW (tier 2 basis)
N    -0.080991  0.291500  0.492643
C    -0.260917  -0.752842  1.532397
C    1.104311  -0.999045  2.196507
O    2.168029  -0.941476  1.555522
H    -0.954858  0.459209  -0.019153
H    0.190391  1.190513  0.907967
H    -0.976764  -0.437887  2.308108
C    -0.829924  -2.060275  0.914135
S    0.107706  -2.839685  -0.491894
H    -1.822043  -1.858963  0.486334
H    -0.953811  -2.832195  1.683897
H    0.993856  -3.569350  0.241727
O    1.014955  -1.305902  3.458937
H    1.893994  -1.485949  3.867243
Cd    1.640066  -0.756650  -0.655374
