15
Energy: -173807.3186878  eV PBE+vdW (tier 2 basis)
N    2.485656  -6.164187  0.479599
C    2.812295  -7.369185  1.244648
C    4.339970  -7.599203  0.994144
O    5.036586  -8.572569  1.408915
H    1.973583  -6.327340  -0.389999
H    2.012210  -5.438839  1.019541
H    2.713487  -7.140309  2.318274
C    1.875110  -8.541801  0.872241
S    1.782513  -10.072670  1.933482
H    2.080817  -8.942560  -0.131235
H    0.833740  -8.186887  0.883655
H    1.486504  -9.479718  3.126652
O    4.898769  -6.660906  0.338869
H    4.088809  -6.018435  0.145819
Cd    4.266950  -10.301389  2.349397
