15
Energy: -173806.7642699  eV PBE+vdW (tier 2 basis)
N    -0.596031  -0.690176  -0.213549
C    -0.064378  -0.262375  1.003727
C    1.573798  -0.311541  1.114287
O    2.236467  0.021835  0.109844
H    -0.617878  -1.681115  -0.441455
H    -0.523083  -0.076139  -1.020869
H    -0.247439  0.819309  1.123687
C    -0.736760  -1.054516  2.143795
S    -0.229420  -0.482263  3.831642
H    -0.557987  -2.134438  2.081794
H    -1.817718  -0.866282  2.102969
H    -1.331082  -0.930254  4.505729
O    2.061546  -0.631564  2.233734
H    0.551192  -1.521690  4.232181
Cd    4.191059  -0.263059  1.221713
