15
Energy: -173807.4520499  eV PBE+vdW (tier 2 basis)
N    -0.021970  -0.096444  -0.052164
C    -0.004991  0.040308  1.468821
C    1.461989  0.201101  1.922906
O    1.709702  0.109539  3.166414
H    0.755867  0.462078  -0.448091
H    0.124243  -1.072270  -0.353505
H    -0.490017  1.005105  1.690788
C    -0.768680  -1.110268  2.142267
S    -1.051744  -0.764845  3.906502
H    -0.256036  -2.071551  2.017185
H    -1.765881  -1.189045  1.680009
H    -0.265516  -1.756322  4.392230
O    2.318989  0.464851  1.035067
H    -0.913246  0.226809  -0.457050
Cd    3.901288  0.591955  2.787626
