15
Energy: -173807.4501253  eV PBE+vdW (tier 2 basis)
N    0.075223  -0.558115  0.062612
C    0.070330  0.043048  1.447741
C    1.522197  0.362468  1.857326
O    2.415452  0.372633  0.953279
H    -0.817761  -0.405312  -0.427889
H    0.846754  -0.181745  -0.511263
H    -0.444373  1.016270  1.395755
C    -0.667228  -0.884848  2.438797
S    -0.120371  -2.627845  2.324539
H    -1.748852  -0.827979  2.269412
H    -0.464264  -0.520815  3.454162
H    -1.267683  -3.132875  1.807372
O    1.749335  0.649264  3.070014
H    0.212328  -1.591387  0.186716
Cd    3.901175  1.024383  2.565616
