15
Energy: -173807.4406288  eV PBE+vdW (tier 2 basis)
N    -0.089526  -0.149158  -0.164299
C    -0.057656  0.168413  1.318738
C    1.387973  0.159216  1.823242
O    2.102339  -0.813608  1.436608
H    -1.024499  -0.433269  -0.497078
H    0.192321  0.674526  -0.720970
H    -0.543142  1.137269  1.474998
C    -0.750182  -0.983023  2.117114
S    -0.173561  -1.233545  3.874191
H    -0.613242  -1.941604  1.603365
H    -1.822482  -0.765032  2.222717
H    -0.336885  -2.583715  3.865218
O    1.605045  0.888817  2.829881
H    0.588571  -0.906791  -0.368753
Cd    2.570921  -0.963495  3.719027
