15
Energy: -173806.7959724  eV PBE+vdW (tier 2 basis)
N    0.763846  -0.033455  0.716448
C    0.152264  -0.326428  2.053954
C    1.241638  -0.271586  3.162830
O    2.162063  0.581127  3.122607
H    1.108736  -0.890769  0.264360
H    0.064109  0.368162  0.081932
H    -0.471477  0.552464  2.296058
C    -0.795033  -1.541156  2.059523
S    0.026478  -3.133775  2.467423
H    -1.309229  -1.623826  1.090144
H    -1.574133  -1.350619  2.811702
H    -1.120795  -3.818787  2.708983
O    1.169026  -1.038563  4.193785
H    0.596948  -1.862881  4.026016
Cd    2.502661  1.440039  1.160053
