15
Energy: -173806.9618332  eV PBE+vdW (tier 2 basis)
N    1.421542  0.389333  0.354405
C    1.446373  0.926639  1.741897
C    2.879232  1.004810  2.304487
O    3.817784  0.303437  1.873890
H    0.519526  -0.142569  0.262697
H    1.408653  1.146072  -0.340718
H    1.012672  1.938383  1.737119
C    0.596802  0.006689  2.679920
S    -0.942970  -0.573550  1.895331
H    0.382068  0.519927  3.624383
H    1.147222  -0.913326  2.929171
H    -1.625795  0.599896  1.960885
O    3.130098  1.764888  3.329611
H    2.384861  2.325810  3.630072
Cd    3.321932  -0.832441  0.067848
