15
Energy: -173807.3008852  eV PBE+vdW (tier 2 basis)
N    2.532365  -6.192563  0.388323
C    2.856512  -7.362742  1.201817
C    4.394990  -7.574743  1.010225
O    5.084746  -8.544620  1.441671
H    2.087547  -6.397012  -0.508945
H    1.996276  -5.475207  0.877766
H    2.721426  -7.090959  2.262674
C    1.975036  -8.586314  0.854682
S    1.850527  -9.852693  2.229062
H    2.288908  -9.089126  -0.068298
H    0.931838  -8.256120  0.744829
H    1.444115  -10.915745  1.475443
O    4.968286  -6.627093  0.379639
H    4.162112  -5.999028  0.145161
Cd    4.336445  -10.294212  2.375260
