15
Energy: -173807.8551666  eV PBE+vdW (tier 2 basis)
N    0.681306  -0.976272  -0.127719
C    0.257246  -0.518890  1.216429
C    1.523250  -0.406543  2.102488
O    2.452245  -1.220712  1.976001
H    -0.126047  -1.119642  -0.744679
H    1.281790  -0.281748  -0.587596
H    -0.248436  0.459422  1.159979
C    -0.773237  -1.496936  1.855972
S    -0.273052  -3.290242  2.013323
H    -1.714003  -1.474711  1.292455
H    -0.993764  -1.185000  2.885073
H    -1.044708  -3.789120  1.009076
O    1.612902  0.503022  3.030742
H    0.887875  1.161595  3.047688
Cd    1.847632  -2.873221  0.589768
