15
Energy: -173807.4590937  eV PBE+vdW (tier 2 basis)
N    -0.376866  0.359688  0.382141
C    0.241990  0.033662  1.722495
C    1.767422  0.247592  1.634208
O    2.497818  -0.237720  2.546359
H    -0.352941  -0.519702  -0.188336
H    -1.360363  0.653796  0.473998
H    -0.114339  0.784731  2.447280
C    -0.183606  -1.376304  2.183382
S    -0.134184  -2.654078  0.888377
H    -1.234618  -1.340879  2.505411
H    0.420510  -1.666381  3.051367
H    1.195506  -2.917972  0.953317
O    2.213411  0.959372  0.679654
H    0.152909  1.098673  -0.107423
Cd    4.289349  0.758522  1.613764
