15
Energy: -173807.8945169  eV PBE+vdW (tier 2 basis)
N    -0.108411  0.312936  0.493510
C    -0.196961  -0.741457  1.534238
C    1.201111  -0.896064  2.176832
O    2.225201  -0.768040  1.487215
H    -1.001691  0.423768  -0.000075
H    0.115061  1.227386  0.903736
H    -0.941362  -0.473414  2.302310
C    -0.675176  -2.088387  0.914963
S    0.299721  -2.801987  -0.498155
H    -1.682841  -1.955996  0.496345
H    -0.740259  -2.872842  1.679322
H    1.254536  -3.447994  0.229007
O    1.328536  -1.227593  3.431355
H    0.496696  -1.244288  3.948585
Cd    1.670836  -0.611025  -0.691189
