29
Energy: -106888.685605 eV PBE+vdW (tier 2 basis)
C    -1.035904  1.623488  0.998635
C    -0.259348  0.636034  1.806354
O    0.843725  0.960983  2.347282
H    -0.325260  2.283303  0.486912
H    -1.649011  2.259881  1.656118
H    -1.694081  1.150176  0.263135
N    -0.727756  -0.621777  1.983655
C    -2.120977  -0.905372  2.318489
C    -2.385326  -0.359486  3.760105
O    -1.432399  0.189981  4.421416
H    -0.052543  -1.250601  2.421305
H    -2.759391  -0.314186  1.646665
C    -2.446071  -2.416873  2.151408
C    -3.433944  -2.746348  1.031010
C    -4.844851  -2.264044  1.292791
O    -5.185464  -1.572740  2.250943
O    -5.691470  -2.671417  0.353847
H    -2.819718  -2.823747  3.099701
H    -1.507171  -2.947263  1.942144
H    -3.478638  -3.834971  0.880541
H    -3.107100  -2.342333  0.059729
N    -3.608901  -0.484982  4.207179
C    -4.100805  -0.052339  5.511222
H    -4.286461  -0.929835  3.541430
H    -4.573441  -0.901773  6.018435
H    -4.853072  0.734944  5.376561
H    -3.276514  0.325453  6.120190
H    -6.591407  -2.345043  0.563163
Sr    0.657002  1.085603  4.659246
