29
Energy: -106889.270008 eV PBE+vdW (tier 2 basis)
C    -1.517359  -2.056575  1.313830
C    -0.763567  -0.932392  1.944860
O    0.422368  -0.655608  1.555704
H    -1.568410  -1.883884  0.229958
H    -2.529803  -2.166579  1.714061
H    -0.966055  -2.995325  1.460424
N    -1.361387  -0.237000  2.909644
C    -0.856698  1.003674  3.514939
C    0.302357  0.702491  4.494860
O    1.485621  0.598197  4.039788
H    -2.381803  -0.415802  3.094705
H    -0.396681  1.612767  2.718705
C    -2.016547  1.802419  4.139803
C    -3.168667  2.179637  3.189666
C    -4.226582  1.101936  3.036939
O    -4.020894  -0.101984  3.182994
O    -5.412388  1.607459  2.719903
H    -1.590228  2.728250  4.547980
H    -2.449653  1.249982  4.989066
H    -2.802120  2.428545  2.180079
H    -3.662121  3.090826  3.549778
N    0.040819  0.554998  5.780841
C    1.029640  0.257920  6.818545
H    -0.927530  0.647806  6.077041
H    1.048472  -0.819151  7.029950
H    0.755135  0.795612  7.731559
H    2.017312  0.584806  6.484406
H    -6.057584  0.877755  2.609186
Sr    2.513355  -0.038777  2.090786
