29
Energy: -106888.85245 eV PBE+vdW (tier 2 basis)
C    0.621276  0.815920  0.357430
C    0.065015  1.007399  1.728173
O    0.541240  1.919347  2.499747
H    1.691830  0.579926  0.433378
H    0.535765  1.754264  -0.207011
H    0.118276  0.016825  -0.195847
N    -0.917266  0.228426  2.143025
C    -1.558285  0.245744  3.453318
C    -2.240837  -1.152314  3.536020
O    -2.614714  -1.668098  2.485544
H    -1.322262  -0.504760  1.539750
H    -0.786659  0.373604  4.228071
C    -2.621535  1.375946  3.522382
C    -3.081878  1.764802  4.928357
C    -2.102004  2.593992  5.719475
O    -1.030787  3.021906  5.250896
O    -2.371634  2.910779  6.968421
H    -3.496308  1.055116  2.940854
H    -2.229965  2.266250  3.011118
H    -3.363642  0.881761  5.526655
H    -4.009106  2.360471  4.859052
N    -2.434682  -1.669457  4.766298
C    -3.084670  -2.968672  4.965019
H    -1.913793  -1.280624  5.544858
H    -3.529662  -2.997595  5.964288
H    -2.365184  -3.791333  4.861632
H    -3.867756  -3.090916  4.211254
H    -3.234987  2.565848  7.272951
Sr    0.866643  3.512077  4.009359
