29
Energy: -106888.059942 eV PBE+vdW (tier 2 basis)
C    -0.786717  -0.741382  -0.305398
C    -0.118473  -0.135329  0.906282
O    1.065637  -0.209455  1.143687
H    -1.435065  -0.028699  -0.834817
H    -1.390854  -1.617589  -0.025496
H    -0.001835  -1.080975  -0.986571
N    -0.939040  0.595236  1.808350
C    -2.384219  0.582807  1.876966
C    -2.987865  1.888373  1.302149
O    -4.256485  2.022388  1.174237
H    -0.428154  0.826788  2.660295
H    -2.756983  -0.215718  1.215775
C    -2.876612  0.307747  3.332394
C    -3.981637  -0.779901  3.498844
C    -5.243325  -0.338568  2.847642
O    -5.591173  -0.624094  1.700736
O    -6.030897  0.587615  3.465750
H    -3.184123  1.242503  3.822755
H    -2.017502  -0.068338  3.901542
H    -4.138466  -0.961760  4.572117
H    -3.667999  -1.723563  3.036384
N    -2.133075  2.819573  0.948440
C    -2.433480  4.128585  0.381824
H    -1.153678  2.537569  1.076258
H    -1.854982  4.891850  0.914290
H    -3.500059  4.342219  0.486980
H    -2.153377  4.152017  -0.679163
H    -5.757848  0.786668  4.383125
Sr    -6.423232  1.486570  0.867376
