29
Energy: -106888.78169 eV PBE+vdW (tier 2 basis)
C    -0.617225  0.101377  -0.195845
C    -0.364247  -0.827289  0.950191
O    0.534813  -1.737424  0.853059
H    -0.968247  -0.491241  -1.052832
H    0.315900  0.591911  -0.503484
H    -1.367198  0.865702  0.030445
N    -1.085796  -0.678104  2.047721
C    -1.191924  -1.532970  3.228733
C    -2.423368  -0.919991  3.972159
O    -2.715760  0.255766  3.724951
H    -1.763878  0.102251  2.136125
H    -1.401121  -2.565114  2.910266
C    0.048319  -1.549190  4.157123
C    0.639844  -0.175116  4.498089
C    1.692116  0.320899  3.540879
O    2.373929  -0.437187  2.825489
O    1.959112  1.607869  3.467927
H    0.828037  -2.191477  3.724517
H    -0.250938  -2.043919  5.089941
H    1.148838  -0.229189  5.476939
H    -0.146810  0.586298  4.615549
N    -3.047681  -1.708993  4.856025
C    -4.195491  -1.273366  5.653902
H    -2.773658  -2.684472  4.921159
H    -3.996333  -1.436711  6.719328
H    -5.092545  -1.833365  5.363527
H    -4.360170  -0.208635  5.469984
H    1.399595  2.143359  4.065446
Sr    2.731298  -2.021867  1.179362
