29
Energy: -106888.899045 eV PBE+vdW (tier 2 basis)
C    -0.130095  -0.264577  0.023299
C    0.020592  -0.174571  1.507410
O    1.152119  -0.381649  2.045776
H    0.594054  0.405203  -0.458685
H    -1.137133  -0.023200  -0.331592
H    0.122867  -1.287158  -0.291548
N    -1.063936  0.125093  2.235244
C    -1.242242  0.132795  3.704193
C    -0.423846  1.242191  4.379967
O    0.828509  1.098142  4.584877
H    -1.919537  0.264206  1.703957
H    -2.301709  0.363162  3.858143
C    -1.017074  -1.252996  4.343396
C    -1.376657  -1.347713  5.833992
C    -2.835186  -1.046265  6.144156
O    -3.528976  -0.268504  5.508415
O    -3.253048  -1.721468  7.219156
H    0.024742  -1.581405  4.211657
H    -1.628560  -1.966040  3.772618
H    -0.772529  -0.653962  6.442600
H    -1.137267  -2.352215  6.204199
N    -1.030773  2.345584  4.782476
C    -2.442506  2.735635  4.646373
H    -0.413108  3.021347  5.233885
H    -2.613934  3.591619  5.304771
H    -3.103605  1.918576  4.955778
H    -2.662985  3.041879  3.616131
H    -4.183497  -1.475174  7.403764
Sr    2.645421  0.069978  3.680802
