29
Energy: -106889.274343 eV PBE+vdW (tier 2 basis)
C    0.250129  0.050264  0.485016
C    0.025811  0.290195  1.940027
O    0.971420  0.588402  2.717376
H    1.148312  -0.573223  0.381857
H    0.472400  0.999814  -0.023929
H    -0.591103  -0.442430  -0.011694
N    -1.232334  0.197834  2.466113
C    -2.426849  0.754664  1.839746
C    -2.139125  2.214871  1.386628
O    -1.222533  2.882335  1.940990
H    -1.234000  0.204597  3.484256
H    -2.689570  0.154828  0.955044
C    -3.631355  0.681491  2.813617
C    -3.760188  1.742234  3.941045
C    -2.747191  1.676733  5.067072
O    -1.547981  1.955670  4.905783
O    -3.122706  1.317399  6.276822
H    -3.661073  -0.335227  3.231746
H    -4.544879  0.777265  2.212797
H    -4.775232  1.654592  4.350891
H    -3.686724  2.755764  3.517699
N    -2.909752  2.702821  0.423509
C    -2.833539  4.058665  -0.124974
H    -3.594145  2.076897  0.004333
H    -3.805235  4.555357  -0.019867
H    -2.569440  4.012764  -1.188362
H    -2.071202  4.621476  0.417670
H    -4.078215  1.123498  6.341815
Sr    0.387079  2.684075  3.705958
