29
Energy: -106888.304359 eV PBE+vdW (tier 2 basis)
C    0.710221  -1.136957  0.015490
C    0.339038  -0.107767  1.017611
O    1.076244  0.934193  1.169327
H    1.455774  -1.800906  0.484497
H    1.196758  -0.664505  -0.844246
H    -0.124967  -1.785358  -0.275584
N    -0.741129  -0.200900  1.806543
C    -1.993993  -0.991854  1.714914
C    -1.761909  -2.535218  1.686809
O    -1.481973  -3.086638  0.624304
H    -0.770167  0.532765  2.512003
H    -2.533995  -0.723051  2.632747
C    -2.855212  -0.596865  0.501139
C    -3.070604  0.926545  0.297657
C    -1.901008  1.640333  -0.317673
O    -1.248140  2.534869  0.250864
O    -1.491757  1.300401  -1.535862
H    -3.842375  -1.057615  0.640271
H    -2.436751  -1.078436  -0.395213
H    -3.326382  1.433590  1.235776
H    -3.929572  1.060593  -0.380443
N    -1.909176  -3.156718  2.872147
C    -1.762260  -4.601653  3.038874
H    -2.176687  -2.612812  3.685554
H    -0.992097  -4.819307  3.788380
H    -1.468850  -5.030797  2.077197
H    -2.712683  -5.045670  3.358953
H    -2.064710  0.626862  -1.953899
Sr    1.019513  3.102089  0.569613
