29
Energy: -106889.159411 eV PBE+vdW (tier 2 basis)
C    0.660069  0.476305  0.519545
C    -0.575623  1.058198  1.120004
O    -1.008893  2.188048  0.756323
H    1.049240  -0.387358  1.067272
H    1.427549  1.261904  0.508952
H    0.477594  0.198388  -0.528072
N    -1.268087  0.404940  2.080744
C    -1.444843  -1.028134  2.351036
C    -1.264252  -1.904395  1.110564
O    -1.813188  -1.634344  -0.022296
H    -1.980918  0.988071  2.518396
H    -0.724466  -1.361473  3.114483
C    -2.875868  -1.201186  2.941153
C    -4.075748  -0.915672  1.995609
C    -3.938157  0.358372  1.185301
O    -4.285097  1.479968  1.640700
O    -3.376144  0.290602  0.005836
H    -2.927294  -0.544858  3.822654
H    -2.977128  -2.225369  3.321867
H    -4.973198  -0.827185  2.620012
H    -4.230836  -1.755480  1.306129
N    -0.558705  -3.007617  1.233136
C    -0.376077  -4.026024  0.192793
H    -0.099174  -3.171018  2.126899
H    -0.513259  -5.015316  0.642532
H    0.638736  -3.955724  -0.218749
H    -1.107837  -3.871130  -0.603009
H    -2.509782  -0.800496  -0.036520
Sr    -3.153656  2.787373  -0.044303
