29
Energy: -106888.811711 eV PBE+vdW (tier 2 basis)
C    -0.515556  -1.184250  0.611045
C    -1.042323  -0.709326  1.933651
O    -1.247725  -1.436488  2.896286
H    -0.219257  -0.373488  -0.064463
H    -1.296534  -1.780864  0.118834
H    0.334329  -1.855108  0.780986
N    -1.342688  0.664523  2.022189
C    -1.736142  1.175385  3.315356
C    -3.139320  1.771234  3.355005
O    -3.622384  2.114046  4.490578
H    -0.889647  1.287446  1.358087
H    -1.836805  0.243760  3.912177
C    -0.671064  2.086509  3.973391
C    0.369191  1.294205  4.771672
C    -0.160978  0.712303  6.058398
O    -1.245754  1.065482  6.562516
O    0.534166  -0.185915  6.715139
H    -1.145421  2.834559  4.622675
H    -0.155107  2.662419  3.193413
H    1.217973  1.943446  5.049518
H    0.802844  0.480774  4.168322
N    -3.824512  1.855882  2.235625
C    -5.198708  2.328367  2.089381
H    -3.344390  1.486703  1.413010
H    -5.243386  3.063361  1.277942
H    -5.523935  2.795181  3.021838
H    -5.859998  1.487417  1.845327
H    1.366301  -0.431360  6.263186
Sr    -3.411169  1.835381  6.723937
