29
Energy: -106889.277277 eV PBE+vdW (tier 2 basis)
C    -1.767449  -0.806151  -0.404352
C    -1.311492  -0.657118  1.014251
O    -0.200450  -1.141480  1.373640
H    -2.730594  -0.330068  -0.614456
H    -1.841522  -1.878291  -0.634911
H    -1.005917  -0.388778  -1.076066
N    -2.131523  -0.002283  1.855607
C    -2.079776  0.247910  3.316290
C    -0.879545  1.101163  3.762698
O    0.315980  0.784023  3.497741
H    -2.987169  0.331946  1.420946
H    -2.972480  0.865081  3.483323
C    -2.312483  -1.005695  4.201085
C    -1.189826  -2.041685  4.349875
C    -0.087090  -1.605083  5.279135
O    -0.191996  -1.044651  6.328521
O    1.205557  -1.962080  4.780295
H    -3.199559  -1.510775  3.796278
H    -2.592936  -0.649068  5.202623
H    -0.804301  -2.393171  3.387204
H    -1.620779  -2.933653  4.836091
N    -1.155848  2.165247  4.502588
C    -0.137205  3.021700  5.115337
H    -2.129542  2.390794  4.684833
H    -0.642351  3.831177  5.648011
H    0.514420  3.448709  4.344452
H    0.465958  2.442895  5.825404
H    1.806090  -1.887950  5.553019
Sr    1.730826  -0.790665  2.556534
