29
Energy: -106889.611632 eV PBE+vdW (tier 2 basis)
C    0.872830  1.222867  -0.955386
C    0.043501  0.764790  0.206617
O    0.203133  -0.388053  0.683880
H    1.934482  1.180533  -0.677692
H    0.636279  2.233869  -1.302601
H    0.733284  0.516678  -1.785143
N    -0.862123  1.643858  0.687495
C    -1.885836  1.547701  1.746324
C    -1.321690  1.289821  3.156660
O    -0.414406  0.449056  3.391141
H    -0.869664  2.534452  0.199095
H    -2.281204  2.570903  1.786657
C    -3.142947  0.708497  1.369773
C    -3.037722  -0.794714  1.011542
C    -2.897448  -1.728086  2.191856
O    -1.805395  -2.144472  2.594047
O    -3.975740  -2.115341  2.853480
H    -3.567092  1.203169  0.485611
H    -3.883864  0.852941  2.170569
H    -2.197976  -0.979064  0.333379
H    -3.954475  -1.056826  0.462817
N    -1.846292  1.995638  4.159228
C    -2.848029  3.066974  4.126569
H    -1.451247  1.766308  5.070717
H    -2.984058  3.428164  5.149670
H    -3.819213  2.707647  3.765433
H    -2.509492  3.913339  3.515212
H    -4.804853  -1.810496  2.437651
Sr    0.482256  -1.579152  2.657399
