29
Energy: -106889.538236 eV PBE+vdW (tier 2 basis)
C    0.316178  0.211816  -0.357554
C    -0.024749  -0.101134  1.060150
O    0.871392  -0.244158  1.937317
H    -0.561871  0.329469  -1.000864
H    0.954078  -0.587604  -0.758524
H    0.911097  1.134946  -0.383482
N    -1.333810  -0.224788  1.399852
C    -1.686506  -0.487701  2.787139
C    -1.635909  -1.999344  3.110452
O    -0.582301  -2.449534  3.642431
H    -2.042645  -0.115582  0.679723
H    -0.827391  -0.084136  3.318133
C    -2.848914  0.308087  3.385394
C    -2.777516  0.297643  4.940079
C    -1.471477  0.798084  5.546478
O    -0.366944  0.283449  5.307449
O    -1.491102  1.812717  6.388568
H    -3.838279  -0.070514  3.092135
H    -2.785836  1.341185  3.015307
H    -2.906286  -0.731228  5.313960
H    -3.625480  0.873936  5.330949
N    -2.675816  -2.764637  2.804713
C    -2.739700  -4.215383  3.000283
H    -3.483708  -2.321887  2.374572
H    -2.789443  -4.720651  2.028014
H    -3.633099  -4.468313  3.582465
H    -1.845442  -4.540340  3.536593
H    -2.389310  2.163316  6.544534
Sr    1.294787  -1.065714  4.133731
