29
Energy: -106889.206234 eV PBE+vdW (tier 2 basis)
C    -0.051341  1.192906  0.791749
C    -0.975128  1.568272  1.901101
O    -0.877626  2.670753  2.502925
H    -0.302656  1.762415  -0.115525
H    -0.057944  0.122951  0.562437
H    0.963407  1.498197  1.078544
N    -1.968389  0.713006  2.288209
C    -2.823547  -0.026473  1.365297
C    -3.366612  0.940145  0.279598
O    -3.393338  2.184540  0.506154
H    -2.418728  1.003065  3.154022
H    -2.233359  -0.817506  0.881392
C    -3.972907  -0.722572  2.138583
C    -5.208408  0.114551  2.569772
C    -4.995938  1.154183  3.653868
O    -4.317053  2.178416  3.476488
O    -5.546465  0.996156  4.839615
H    -3.527926  -1.231677  3.005637
H    -4.365659  -1.522724  1.498794
H    -5.984135  -0.595615  2.885757
H    -5.622177  0.654428  1.703916
N    -3.811853  0.451891  -0.872401
C    -3.863820  -0.936335  -1.338343
H    -4.177954  1.158525  -1.511426
H    -4.845574  -1.382928  -1.134198
H    -3.082250  -1.541451  -0.869106
H    -3.695354  -0.945198  -2.419963
H    -6.076392  0.178476  4.912568
Sr    -2.991873  3.759603  2.257538
