29
Energy: -106888.749894 eV PBE+vdW (tier 2 basis)
C    0.433788  -0.767017  0.143397
C    0.270491  -1.006723  1.608934
O    1.157110  -1.640678  2.261677
H    0.632533  -1.716157  -0.370046
H    1.320492  -0.133184  -0.005045
H    -0.430243  -0.278184  -0.318476
N    -0.823311  -0.524187  2.213953
C    -1.082071  -0.451254  3.663275
C    -1.597757  -1.804178  4.211088
O    -0.799292  -2.801184  4.193979
H    -1.490781  -0.039337  1.618643
H    -0.101616  -0.324493  4.150667
C    -1.919771  0.798805  3.976053
C    -3.230534  0.979460  3.159380
C    -4.430299  1.320410  4.027706
O    -5.106362  2.305508  3.962983
O    -4.656819  0.299497  4.937212
H    -1.275350  1.670959  3.808251
H    -2.127054  0.798518  5.054379
H    -3.503105  0.064623  2.606258
H    -3.134734  1.788328  2.428035
N    -2.806049  -1.911128  4.718646
C    -3.335314  -3.153685  5.286956
H    -3.424161  -1.088853  4.776176
H    -3.257278  -3.970193  4.560540
H    -4.386592  -2.991565  5.537997
H    -2.785260  -3.426666  6.196254
H    -5.432523  0.550944  5.479029
Sr    1.334190  -3.410680  3.673734
