29
Energy: -106889.081909 eV PBE+vdW (tier 2 basis)
C    0.118687  -0.819525  -0.320900
C    0.067340  -0.396481  1.113159
O    1.144548  -0.212988  1.762141
H    0.588660  -1.812846  -0.369658
H    0.762921  -0.136735  -0.888998
H    -0.864324  -0.871039  -0.800193
N    -1.138072  -0.233067  1.674969
C    -1.514901  -0.030575  3.085147
C    -1.127332  1.330026  3.690986
O    -0.009560  1.899298  3.458030
H    -1.923658  -0.379947  1.047352
H    -2.609463  -0.026391  3.057405
C    -1.080572  -1.197209  4.026331
C    -2.190574  -2.224499  4.264075
C    -3.407345  -1.652581  4.971413
O    -3.631704  -0.456004  5.124504
O    -4.222876  -2.614148  5.397016
H    -0.768809  -0.780520  4.994227
H    -0.202104  -1.701448  3.604532
H    -1.810911  -3.065347  4.860793
H    -2.535799  -2.679268  3.321110
N    -2.017273  1.824812  4.526806
C    -1.863598  3.051305  5.303246
H    -2.817652  1.207765  4.740533
H    -2.825473  3.574184  5.327448
H    -1.111475  3.693558  4.838938
H    -1.565537  2.816016  6.333776
H    -5.005232  -2.207806  5.824946
Sr    2.137372  1.497426  2.875522
