29
Energy: -106888.400692 eV PBE+vdW (tier 2 basis)
C    0.053413  0.497924  1.042726
C    -0.306929  0.155897  2.451078
O    0.617115  0.125412  3.346110
H    -0.798696  0.509894  0.357959
H    0.824398  -0.188146  0.667242
H    0.510465  1.498248  1.049838
N    -1.543710  -0.123819  2.825455
C    -2.741729  -0.508467  2.089068
C    -3.882196  -0.107924  3.078155
O    -3.596056  -0.104393  4.282106
H    -1.785349  -0.146271  3.836621
H    -2.808266  0.015392  1.128203
C    -2.814465  -2.049995  1.916456
C    -1.703109  -2.735212  1.109443
C    -0.389713  -3.027936  1.796735
O    -0.134396  -2.795940  2.989714
O    0.581737  -3.575069  1.079775
H    -3.766092  -2.278735  1.417864
H    -2.881628  -2.505290  2.914763
H    -1.473371  -2.187247  0.179743
H    -2.078920  -3.716080  0.766984
N    -5.102214  0.150160  2.589526
C    -5.509443  0.253400  1.188977
H    -5.796352  0.364869  3.302821
H    -5.358087  -0.688499  0.645187
H    -4.987740  1.069276  0.671110
H    -6.579893  0.475135  1.163587
H    0.313316  -3.776558  0.161139
Sr    1.230376  -1.670909  4.560546
