29
Energy: -106888.586536 eV PBE+vdW (tier 2 basis)
C    0.131320  -0.261306  0.154358
C    0.018328  -0.500808  1.625808
O    1.024383  -0.963385  2.276435
H    0.378883  -1.208202  -0.345038
H    0.955462  0.437218  -0.043383
H    -0.788453  0.140181  -0.281957
N    -1.128193  -0.224989  2.219221
C    -1.571037  -0.498694  3.582751
C    -3.087236  -0.839048  3.365065
O    -3.601533  -0.498286  2.298397
H    -1.970266  -0.011679  1.644120
H    -1.021916  -1.360932  3.983822
C    -1.453990  0.738724  4.528668
C    -0.496890  0.606626  5.746205
C    0.949747  0.703345  5.365174
O    1.658335  -0.294335  5.144386
O    1.515384  1.886948  5.193519
H    -2.443920  0.961852  4.946542
H    -1.191010  1.616462  3.922594
H    -0.652164  -0.348830  6.261147
H    -0.738979  1.406946  6.460888
N    -3.761419  -1.448759  4.356127
C    -3.276354  -1.886262  5.657937
H    -4.751035  -1.578831  4.154052
H    -3.940178  -2.672291  6.031102
H    -3.269620  -1.071336  6.396832
H    -2.271690  -2.321553  5.582913
H    0.923976  2.627097  5.434622
Sr    2.793337  -1.480021  3.507144
