29
Energy: -106889.099165 eV PBE+vdW (tier 2 basis)
C    -1.233722  -1.070323  0.381666
C    -0.909254  -0.623940  1.768699
O    0.282603  -0.601592  2.179513
H    -0.592833  -0.536423  -0.331182
H    -2.283882  -0.928092  0.106982
H    -0.986701  -2.139494  0.299628
N    -1.927437  -0.276641  2.578778
C    -1.885477  0.136989  3.996773
C    -1.057064  1.432939  4.190692
O    0.194127  1.374310  4.360390
H    -2.854850  -0.322577  2.166564
H    -2.932750  0.376869  4.217874
C    -1.438047  -0.939022  5.031976
C    -1.515465  -2.409823  4.611703
C    -0.354463  -3.007140  3.859676
O    -0.398288  -3.816710  2.984816
O    0.931145  -2.586126  4.365913
H    -2.082117  -0.802248  5.910313
H    -0.432715  -0.707839  5.408612
H    -2.418153  -2.639238  4.033347
H    -1.585473  -3.018661  5.529360
N    -1.719668  2.580151  4.187400
C    -1.114874  3.902964  4.355453
H    -2.727516  2.547559  4.055461
H    -0.120470  3.791044  4.793935
H    -1.746299  4.500342  5.021492
H    -1.035897  4.409843  3.385151
H    1.525716  -3.307887  4.069266
Sr    1.830824  -0.208233  3.820750
