29
Energy: -106888.718342 eV PBE+vdW (tier 2 basis)
C    0.283854  -1.951486  -0.021321
C    -0.124996  -1.049605  1.104610
O    0.530425  -0.056661  1.448365
H    1.326513  -2.258122  0.124126
H    0.248448  -1.374391  -0.955720
H    -0.349246  -2.839007  -0.129903
N    -1.293583  -1.359768  1.764949
C    -1.879590  -0.418598  2.718389
C    -1.164036  -0.558260  4.086022
O    -1.734407  -1.061891  5.117582
H    -1.812920  -2.190757  1.501218
H    -1.606260  0.583340  2.345820
C    -3.411672  -0.550487  2.738041
C    -4.199802  0.736969  3.035930
C    -4.452351  1.094887  4.477562
O    -4.409548  0.271549  5.408441
O    -4.789405  2.328440  4.791277
H    -3.734863  -1.363322  3.404675
H    -3.707544  -0.859438  1.726936
H    -5.210727  0.637689  2.599631
H    -3.752120  1.599689  2.518779
N    0.083891  -0.149952  4.100181
C    0.991620  -0.260577  5.237140
H    0.447121  0.136624  3.157746
H    0.994728  -1.282750  5.635258
H    1.998992  -0.005568  4.898229
H    0.704222  0.438891  6.033191
H    -4.827102  2.924295  4.016694
Sr    -3.298860  -1.288238  6.685118
