29
Energy: -106889.051414 eV PBE+vdW (tier 2 basis)
C    1.078276  0.031940  1.392939
C    0.349137  -0.063588  2.691034
O    0.962005  -0.298920  3.770602
H    0.419881  0.031417  0.518548
H    1.753878  -0.831457  1.324982
H    1.710197  0.930918  1.377884
N    -0.993245  0.085392  2.756490
C    -1.929569  0.858897  1.931050
C    -1.284080  2.066620  1.258946
O    -0.483145  2.863479  1.882958
H    -1.376224  -0.174116  3.665096
H    -2.368918  0.217179  1.155555
C    -3.082188  1.325446  2.871316
C    -2.718959  2.344272  3.987262
C    -1.454531  2.004291  4.753652
O    -1.461172  1.216524  5.736247
O    -0.317814  2.493791  4.331034
H    -3.503569  0.411983  3.316522
H    -3.883535  1.759262  2.259556
H    -3.553467  2.363004  4.699034
H    -2.615027  3.353855  3.569272
N    -1.573049  2.363992  0.009549
C    -2.422864  1.631494  -0.939943
H    -1.161958  3.239999  -0.319227
H    -2.290137  2.088244  -1.924345
H    -3.481153  1.706486  -0.661923
H    -2.123971  0.579140  -1.007986
H    -0.394305  2.726119  2.954561
Sr    0.936138  0.909464  5.807045
