29
Energy: -106889.006142 eV PBE+vdW (tier 2 basis)
C    0.555146  0.367071  -0.232461
C    0.066476  1.075092  0.989113
O    0.551092  2.214637  1.298633
H    0.098433  -0.617611  -0.370538
H    1.646258  0.257609  -0.168824
H    0.346894  0.986075  -1.116162
N    -0.879015  0.478964  1.714759
C    -1.398124  0.820497  3.054540
C    -2.002168  2.229978  3.150510
O    -1.285814  3.269883  3.288286
H    -1.014470  -0.526394  1.540433
H    -2.234756  0.120540  3.183388
C    -0.371615  0.533541  4.183604
C    -0.434407  -0.887030  4.768009
C    -0.322771  -2.051915  3.797966
O    -0.676670  -2.042687  2.624929
O    0.168825  -3.132434  4.405616
H    -0.551351  1.229464  5.015028
H    0.640215  0.745211  3.807991
H    -1.392180  -1.031763  5.296662
H    0.337107  -1.000405  5.539950
N    -3.325059  2.304106  3.146136
C    -4.101820  3.536048  3.286899
H    -3.846105  1.439727  3.021448
H    -5.029687  3.307444  3.820246
H    -4.350667  3.948294  2.300192
H    -3.524110  4.268001  3.857507
H    0.155946  -3.884799  3.777691
Sr    0.636027  4.146015  2.420075
