29
Energy: -106889.212214 eV PBE+vdW (tier 2 basis)
C    1.015993  0.929513  0.053545
C    0.228882  1.327591  1.265648
O    0.457025  2.412954  1.864733
H    0.998428  1.752362  -0.672508
H    0.652427  0.017900  -0.432019
H    2.063871  0.770596  0.346238
N    -0.731841  0.473675  1.675617
C    -1.634109  0.562867  2.838885
C    -2.240376  1.967601  3.012984
O    -1.881695  2.767064  3.947883
H    -0.826542  -0.376054  1.125860
H    -2.493462  -0.060666  2.553076
C    -1.099748  -0.064428  4.164207
C    0.402348  -0.009877  4.467223
C    1.056996  1.342704  4.514723
O    2.267858  1.474766  4.191838
O    0.363976  2.407891  4.817974
H    -1.370495  -1.127895  4.138575
H    -1.682827  0.358439  4.994467
H    0.984586  -0.626291  3.770774
H    0.559998  -0.470361  5.457302
N    -3.231161  2.311111  2.216426
C    -3.978440  3.571353  2.269872
H    -3.535849  1.627420  1.527011
H    -3.514586  4.239472  2.997811
H    -5.013527  3.366673  2.570071
H    -3.977659  4.033905  1.276292
H    -0.945084  2.493224  4.431289
Sr    1.886015  3.636491  3.336206
