29
Energy: -106888.675064 eV PBE+vdW (tier 2 basis)
C    0.720706  2.195793  1.767069
C    0.192040  0.850457  2.145713
O    0.914969  0.050028  2.842753
H    1.628409  2.065060  1.161370
H    -0.001113  2.791225  1.199574
H    1.010226  2.747839  2.671072
N    -1.021949  0.513478  1.747434
C    -1.696433  -0.778889  1.836928
C    -2.474642  -0.852682  0.478875
O    -2.748787  0.214433  -0.069934
H    -1.536677  1.116388  1.078779
H    -0.950463  -1.579483  1.931900
C    -2.744131  -0.819686  2.973643
C    -2.211716  -0.711989  4.425807
C    -1.471710  -1.939621  4.883829
O    -0.228832  -2.016672  4.901582
O    -2.135563  -3.015439  5.255041
H    -3.347613  -1.731508  2.859550
H    -3.437045  0.019359  2.820773
H    -3.070587  -0.541322  5.092376
H    -1.547122  0.154008  4.528590
N    -2.847122  -2.059226  0.014526
C    -2.468176  -3.376387  0.513419
H    -3.378789  -2.015730  -0.852722
H    -2.971016  -4.130213  -0.099002
H    -1.386007  -3.552165  0.432989
H    -2.790686  -3.536671  1.551602
H    -3.103067  -2.876896  5.272485
Sr    1.889575  -1.293370  4.316733
