29
Energy: -106889.222003 eV PBE+vdW (tier 2 basis)
C    0.008557  1.655751  0.031051
C    -0.098135  1.223519  1.454459
O    0.598224  1.747393  2.364231
H    1.055302  1.908467  -0.176804
H    -0.574160  2.577293  -0.123280
H    -0.335244  0.894044  -0.675968
N    -0.976873  0.236088  1.807729
C    -2.358485  0.182033  1.351177
C    -3.032166  1.576447  1.554570
O    -2.540384  2.421240  2.351981
H    -0.854816  -0.043135  2.780440
H    -2.380839  -0.032897  0.271746
C    -3.129714  -0.972887  2.054328
C    -2.794236  -1.318159  3.534137
C    -2.896437  -0.182445  4.528512
O    -1.992210  0.655667  4.659747
O    -3.973240  -0.042255  5.279284
H    -2.937969  -1.894656  1.490317
H    -4.205598  -0.774553  1.960070
H    -1.773614  -1.720798  3.610266
H    -3.459117  -2.143191  3.824932
N    -4.121912  1.815392  0.836012
C    -4.917919  3.043951  0.876992
H    -4.420345  1.100157  0.176234
H    -5.961816  2.799670  1.105581
H    -4.873642  3.547264  -0.096481
H    -4.517147  3.704309  1.648643
H    -4.612091  -0.772984  5.167430
Sr    -0.861151  2.668442  4.023467
