29
Energy: -106888.61472 eV PBE+vdW (tier 2 basis)
C    -0.484293  1.710733  0.288770
C    -1.180582  0.433345  0.637122
O    -1.759380  -0.235544  -0.268468
H    0.270428  1.511319  -0.483652
H    -0.004428  2.201293  1.141659
H    -1.217891  2.399278  -0.153656
N    -1.161183  0.049120  1.924132
C    -1.800900  -1.077952  2.647416
C    -1.318479  -2.460853  2.185444
O    -1.506476  -2.869614  0.996474
H    -0.663811  0.688550  2.537921
H    -1.429040  -0.941916  3.668784
C    -3.341013  -0.999438  2.786491
C    -4.218573  -1.291852  1.570687
C    -5.709034  -1.163023  1.901249
O    -6.144717  -0.826765  2.971365
O    -6.441848  -1.481966  0.807937
H    -3.579385  0.003919  3.165729
H    -3.625523  -1.686148  3.597545
H    -4.083858  -2.331391  1.218373
H    -4.021936  -0.586049  0.748026
N    -0.747255  -3.264111  3.071996
C    -0.440014  -3.018822  4.488071
H    -0.504675  -4.184607  2.704423
H    -1.353569  -2.850223  5.071113
H    0.248909  -2.173645  4.604511
H    0.053256  -3.912065  4.880865
H    -7.389355  -1.385253  1.037358
Sr    -2.388885  -2.273731  -1.031875
