29
Energy: -106888.474954 eV PBE+vdW (tier 2 basis)
C    1.411319  -0.052621  0.673958
C    1.162219  -1.486191  0.999752
O    1.972770  -2.390602  0.584462
H    2.336802  0.254925  1.183832
H    0.604136  0.614322  0.989956
H    1.595459  0.067059  -0.401093
N    0.125027  -1.875025  1.728291
C    -1.128059  -1.233023  2.098850
C    -1.766833  -2.292092  3.046568
O    -1.421021  -3.475222  2.899884
H    0.049740  -2.873783  2.003383
H    -0.949422  -0.286550  2.622737
C    -2.087645  -0.991690  0.880110
C    -1.761794  -1.746332  -0.433323
C    -1.615677  -3.251339  -0.380767
O    -0.538011  -3.821393  -0.642084
O    -2.641368  -4.020078  -0.093691
H    -2.083008  0.074089  0.619052
H    -3.115915  -1.211705  1.199905
H    -0.841452  -1.356701  -0.881812
H    -2.570469  -1.518922  -1.147331
N    -2.692920  -1.886638  3.924219
C    -3.083166  -0.513980  4.254559
H    -3.078623  -2.636503  4.494984
H    -3.924208  -0.560781  4.951916
H    -3.421671  0.040180  3.370257
H    -2.267231  0.034098  4.744350
H    -3.460663  -3.517503  0.081492
Sr    1.718844  -4.359116  -0.507110
