29
Energy: -106889.493709 eV PBE+vdW (tier 2 basis)
C    -3.860195  -0.481171  -0.078231
C    -2.899236  -0.385650  1.058433
O    -1.667388  -0.611307  0.899490
H    -3.523937  0.183160  -0.885685
H    -4.888118  -0.224243  0.197606
H    -3.838985  -1.503490  -0.480213
N    -3.374516  -0.042376  2.282288
C    -2.455427  0.084705  3.404470
C    -2.143468  -1.268326  4.077637
O    -1.025410  -1.791468  3.784997
H    -4.371661  0.120837  2.392640
H    -1.516425  0.288078  2.897709
C    -2.614853  1.320690  4.312058
C    -1.666304  2.460349  3.859417
C    -0.189495  2.113826  3.878696
O    0.344275  1.187977  3.233787
O    0.510849  2.917890  4.650357
H    -2.394944  1.049939  5.353558
H    -3.642109  1.708840  4.305029
H    -1.817478  3.344008  4.488468
H    -1.907450  2.754232  2.824832
N    -2.986194  -1.870037  4.903820
C    -4.311474  -1.438669  5.341284
H    -2.655899  -2.766885  5.264054
H    -5.066600  -2.164540  5.015290
H    -4.558805  -0.458345  4.926666
H    -4.337358  -1.368695  6.435412
H    1.466580  2.697816  4.613672
Sr    0.381026  -0.974144  2.046459
