29
Energy: -106888.703522 eV PBE+vdW (tier 2 basis)
C    -0.458830  1.397625  0.802843
C    -0.101269  0.536034  1.966673
O    1.093087  0.567467  2.439336
H    0.164721  1.136505  -0.063151
H    -0.214955  2.438074  1.059524
H    -1.514404  1.340686  0.522809
N    -0.974064  -0.275862  2.543350
C    -2.273700  -0.787461  2.126227
C    -2.794473  -1.481444  3.423580
O    -1.952634  -1.846362  4.257394
H    -0.712476  -0.776150  3.416211
H    -2.945675  0.024932  1.817203
C    -2.139457  -1.815136  0.972265
C    -1.148691  -2.987439  1.248337
C    0.292425  -2.643532  0.981230
O    1.133390  -2.418879  1.869461
O    0.716338  -2.538392  -0.271227
H    -1.866793  -1.284445  0.047741
H    -3.128827  -2.253844  0.787975
H    -1.423047  -3.828372  0.593599
H    -1.232681  -3.335365  2.285039
N    -4.114003  -1.677494  3.511941
C    -4.760761  -2.352527  4.638304
H    -4.714192  -1.276434  2.797404
H    -5.386499  -1.644247  5.194634
H    -3.984562  -2.745485  5.299672
H    -5.385246  -3.175688  4.272585
H    0.034626  -2.796985  -0.922234
Sr    2.677794  -0.975309  2.876377
