29
Energy: -106889.091721 eV PBE+vdW (tier 2 basis)
C    0.352148  0.147488  -0.094463
C    0.202890  0.055788  1.391332
O    1.217368  -0.186209  2.117129
H    1.151558  0.855841  -0.345594
H    -0.566822  0.440299  -0.612481
H    0.670699  -0.836643  -0.468536
N    -1.021064  0.231622  1.907483
C    -1.538995  -0.004031  3.270354
C    -1.036631  0.999363  4.325924
O    0.199977  1.288725  4.455460
H    -1.743665  0.437545  1.222820
H    -2.614698  0.179509  3.170472
C    -1.378113  -1.477794  3.718353
C    -2.147514  -1.859549  5.000941
C    -3.627427  -1.514290  4.965373
O    -4.063506  -0.373415  4.831884
O    -4.405159  -2.585006  5.100792
H    -0.317041  -1.723176  3.864221
H    -1.726401  -2.102827  2.883925
H    -1.726046  -1.344267  5.877750
H    -2.027551  -2.934456  5.175319
N    -1.969776  1.489756  5.114943
C    -1.749938  2.409225  6.226419
H    -2.912052  1.068706  5.006407
H    -2.485939  3.218948  6.167441
H    -0.741595  2.825424  6.172692
H    -1.883631  1.884765  7.181667
H    -5.344488  -2.302004  5.100318
Sr    2.313226  0.735779  3.870950
