29
Energy: -106889.093382 eV PBE+vdW (tier 2 basis)
C    -1.445858  -0.462046  0.067907
C    -1.049509  -0.321221  1.502178
O    0.143375  -0.515146  1.864379
H    -1.166036  -1.464421  -0.283504
H    -0.868611  0.255680  -0.531508
H    -2.513386  -0.301272  -0.113460
N    -2.008267  0.000764  2.392189
C    -1.890299  0.231678  3.847118
C    -0.985748  1.459463  4.130515
O    0.270960  1.330434  4.162788
H    -2.941319  0.122232  2.008616
H    -2.913476  0.487118  4.147152
C    -1.423573  -0.969946  4.727903
C    -1.343236  -2.368326  4.082630
C    -0.198745  -3.193338  4.610132
O    -0.220575  -4.275971  5.098731
O    1.083853  -2.528202  4.445212
H    -2.101947  -1.020050  5.588236
H    -0.453790  -0.707273  5.167709
H    -1.205339  -2.309484  2.994480
H    -2.253519  -2.951125  4.256336
N    -1.589128  2.619962  4.342484
C    -0.909104  3.886088  4.622077
H    -2.605468  2.640273  4.312722
H    -1.416565  4.387817  5.452965
H    -0.940403  4.535050  3.737683
H    0.129618  3.683928  4.893012
H    1.711035  -3.184572  4.816760
Sr    1.801061  -0.301095  3.438557
