29
Energy: -106888.67768 eV PBE+vdW (tier 2 basis)
C    -0.655602  1.205142  -0.483702
C    -0.850969  0.701432  0.909503
O    -0.066275  1.092254  1.848235
H    -1.402966  0.818223  -1.183176
H    0.344295  0.911307  -0.832542
H    -0.692308  2.302619  -0.489485
N    -1.838837  -0.144394  1.141912
C    -2.130374  -0.912004  2.349648
C    -2.611611  -2.286346  1.765563
O    -3.007513  -2.291114  0.598602
H    -2.361990  -0.565552  0.348794
H    -1.214280  -1.016223  2.946773
C    -3.292931  -0.310159  3.171129
C    -3.058086  1.085937  3.803964
C    -2.088985  1.066409  4.955300
O    -0.896541  1.408468  4.846555
O    -2.474761  0.639183  6.140579
H    -3.580573  -1.031147  3.949448
H    -4.163586  -0.220435  2.506805
H    -4.027484  1.467040  4.159194
H    -2.690564  1.792880  3.050852
N    -2.606282  -3.374870  2.554739
C    -2.181972  -3.515308  3.940770
H    -2.988980  -4.202371  2.099259
H    -1.702684  -4.491622  4.072431
H    -3.030815  -3.453832  4.637374
H    -1.443482  -2.750447  4.205986
H    -3.430297  0.436779  6.178327
Sr    0.994453  1.918017  3.613054
