29
Energy: -106889.167584 eV PBE+vdW (tier 2 basis)
C    -1.655244  -1.730014  0.616762
C    -0.758075  -0.864730  1.441011
O    0.510268  -0.931953  1.288051
H    -1.489146  -1.491070  -0.443397
H    -2.714634  -1.593989  0.853911
H    -1.381755  -2.784688  0.751007
N    -1.321290  -0.033863  2.314157
C    -0.659430  1.056583  3.041205
C    0.111725  0.542318  4.279846
O    1.114808  -0.220353  4.112639
H    -2.374950  0.026263  2.314037
H    0.143144  1.448662  2.392206
C    -1.647206  2.225595  3.260361
C    -2.982518  2.002790  4.012158
C    -4.100457  1.378418  3.194074
O    -3.941626  0.479496  2.372087
O    -5.285203  1.895871  3.493334
H    -1.872555  2.634994  2.265714
H    -1.095236  3.026722  3.772647
H    -3.339063  2.967358  4.393177
H    -2.884644  1.350159  4.896540
N    -0.232388  0.934537  5.493690
C    0.474230  0.542691  6.717121
H    -1.021096  1.566003  5.587789
H    -0.031716  1.002090  7.569928
H    1.513852  0.889763  6.684553
H    0.460006  -0.547219  6.831629
H    -5.981084  1.436492  2.977106
Sr    2.383282  -1.222924  2.479656
