29
Energy: -106888.21381 eV PBE+vdW (tier 2 basis)
C    -0.553915  -0.092748  -0.113777
C    -0.523662  0.314542  1.331859
O    -0.052245  1.365257  1.745298
H    0.440934  0.062256  -0.547763
H    -1.241879  0.574867  -0.650444
H    -0.867720  -1.130252  -0.274925
N    -1.070122  -0.597147  2.242315
C    -1.216984  -0.179290  3.623770
C    -0.604499  -1.227289  4.550238
O    -1.298672  -1.838237  5.445675
H    -1.561752  -1.417601  1.901378
H    -0.574675  0.726227  3.669152
C    -2.666701  0.267964  3.903076
C    -2.910326  1.198220  5.133964
C    -2.941520  0.421382  6.397956
O    -2.050923  0.345778  7.242186
O    -3.991302  -0.441531  6.612484
H    -3.344732  -0.598609  3.920738
H    -2.953494  0.861920  3.026469
H    -3.872921  1.713016  4.992943
H    -2.130179  1.964632  5.213542
N    0.682310  -1.520551  4.424328
C    1.681480  -0.941259  3.520265
H    1.004320  -2.289553  5.009510
H    2.655342  -0.992660  4.017012
H    1.452331  0.104808  3.295575
H    1.725243  -1.510885  2.583464
H    -4.706508  -0.357951  5.951419
Sr    -2.086781  -2.058793  7.560439
