29
Energy: -106889.553981 eV PBE+vdW (tier 2 basis)
C    -0.567200  0.502047  -0.266935
C    -0.631582  0.003684  1.137196
O    0.400225  -0.409893  1.736438
H    -1.529409  0.860962  -0.646386
H    -0.200986  -0.304637  -0.916772
H    0.171199  1.313263  -0.323128
N    -1.829487  0.007256  1.773283
C    -1.919943  -0.446493  3.154331
C    -2.065109  -1.978274  3.267658
O    -1.011567  -2.630929  3.525844
H    -2.651034  0.332741  1.270516
H    -0.905262  -0.289796  3.508708
C    -2.752488  0.419924  4.119064
C    -1.837961  1.407864  4.887907
C    -0.743250  0.759635  5.716625
O    0.143870  -0.002104  5.278788
O    -0.800662  1.101224  6.986441
H    -3.282127  -0.220842  4.836843
H    -3.523271  1.000003  3.593811
H    -2.439405  2.037890  5.551722
H    -1.334510  2.079816  4.173622
N    -3.248171  -2.547210  3.088710
C    -3.510562  -3.987528  3.147290
H    -4.043589  -1.941027  2.903176
H    -4.248643  -4.196089  3.930648
H    -2.577728  -4.508871  3.372586
H    -3.902654  -4.331204  2.182734
H    -0.058918  0.704314  7.491956
Sr    1.133226  -1.589727  3.656322
