29
Energy: -106888.773114 eV PBE+vdW (tier 2 basis)
C    0.181714  -0.958857  0.566370
C    0.062326  -0.258185  1.886900
O    1.045974  0.207194  2.483352
H    0.745766  -0.321384  -0.125245
H    -0.779234  -1.229490  0.115692
H    0.775358  -1.872053  0.712206
N    -1.201275  -0.146126  2.416000
C    -1.518790  0.292673  3.777390
C    -1.218326  1.780420  4.061060
O    -2.131486  2.486789  4.630588
H    -1.970566  -0.518978  1.870290
H    -2.611908  0.217909  3.853311
C    -0.876173  -0.660764  4.824543
C    -1.121039  -0.331006  6.318932
C    -2.570948  -0.396111  6.723877
O    -3.301626  0.612248  6.774149
O    -3.135357  -1.551287  7.004331
H    0.210591  -0.670358  4.673585
H    -1.233597  -1.674528  4.594940
H    -0.744931  0.670890  6.562537
H    -0.539436  -1.044151  6.921330
N    -0.040327  2.253497  3.744140
C    0.398757  3.633147  3.918025
H    0.598649  1.540324  3.289633
H    0.992235  3.732258  4.836943
H    -0.462355  4.306074  3.962911
H    1.032309  3.906828  3.068110
H    -2.502991  -2.296680  6.991119
Sr    -3.780509  2.777396  6.105783
