29
Energy: -106888.815572 eV PBE+vdW (tier 2 basis)
C    0.086948  -1.223012  -0.301768
C    0.166355  -0.711879  1.097715
O    1.257326  -0.776854  1.750078
H    0.740634  -0.594368  -0.925304
H    -0.919613  -1.204245  -0.727907
H    0.488165  -2.242542  -0.355709
N    -0.898032  -0.153671  1.694705
C    -2.331603  -0.323329  1.385070
C    -3.097727  0.597373  2.344259
O    -3.013764  0.387564  3.585851
H    -0.699597  0.236572  2.616178
H    -2.509212  -0.022103  0.345693
C    -2.862512  -1.786682  1.616619
C    -1.924482  -2.772673  2.338288
C    -1.115773  -2.292910  3.525124
O    0.032706  -2.803488  3.706589
O    -1.533278  -1.395106  4.341689
H    -3.100928  -2.228628  0.641828
H    -3.817367  -1.717332  2.152217
H    -1.212143  -3.227576  1.639429
H    -2.537188  -3.613073  2.706583
N    -3.857707  1.553681  1.832075
C    -4.702249  2.452561  2.623084
H    -3.853481  1.680925  0.823791
H    -4.739693  2.090544  3.653248
H    -5.710872  2.467467  2.195670
H    -4.286693  3.467569  2.605578
H    -2.317530  -0.681690  3.993298
Sr    2.150662  -2.017945  3.487442
