29
Energy: -106889.135161 eV PBE+vdW (tier 2 basis)
C    0.399242  0.450830  0.830802
C    0.147561  -0.427304  2.008544
O    1.081227  -1.097131  2.538943
H    1.265143  1.084834  1.068232
H    -0.446828  1.092458  0.567468
H    0.688275  -0.157733  -0.037598
N    -1.076541  -0.519143  2.577882
C    -2.413231  -0.417660  1.962326
C    -3.401709  -0.944671  3.000986
O    -3.192182  -2.066660  3.603900
H    -1.046694  -1.049434  3.445410
H    -2.646638  0.636939  1.753813
C    -2.558641  -1.211000  0.628046
C    -2.463202  -2.756853  0.680911
C    -1.230684  -3.256935  1.399031
O    -0.163476  -3.501423  0.781734
O    -1.262410  -3.363386  2.704653
H    -1.806991  -0.820568  -0.069421
H    -3.532689  -0.947952  0.192780
H    -2.427895  -3.122693  -0.351965
H    -3.355337  -3.187852  1.154920
N    -4.491891  -0.262138  3.260882
C    -5.567342  -0.680033  4.168259
H    -4.591844  0.646726  2.812770
H    -6.529550  -0.515903  3.671179
H    -5.526399  -0.078135  5.084690
H    -5.446813  -1.736795  4.415696
H    -2.362819  -2.670118  3.224443
Sr    1.289378  -3.441717  2.672413
