29
Energy: -106889.650413 eV PBE+vdW (tier 2 basis)
C    0.585679  0.170594  -0.115056
C    0.102732  -0.107014  1.268053
O    0.855499  0.042039  2.271439
H    0.948861  1.206221  -0.163082
H    -0.181009  0.020364  -0.882039
H    1.445988  -0.477294  -0.331778
N    -1.177940  -0.521713  1.438128
C    -1.679779  -0.750273  2.785142
C    -1.331312  -2.168675  3.293594
O    -0.320041  -2.291836  4.042464
H    -1.773389  -0.634432  0.622116
H    -1.041949  -0.097311  3.378838
C    -3.081183  -0.238153  3.121607
C    -3.250220  -0.121713  4.660801
C    -2.250570  0.773995  5.369194
O    -1.013406  0.611376  5.378889
O    -2.827737  1.763250  6.018155
H    -3.887110  -0.880538  2.739780
H    -3.216161  0.747197  2.653680
H    -3.155161  -1.116355  5.126626
H    -4.257340  0.242048  4.889611
N    -2.083703  -3.194635  2.920831
C    -1.842278  -4.593497  3.283810
H    -2.882637  -3.006251  2.320556
H    -0.991044  -4.641056  3.966400
H    -1.625013  -5.178637  2.382032
H    -2.732534  -5.005181  3.773069
H    -2.163802  2.303973  6.497904
Sr    1.074558  -0.452496  4.586236
