29
Energy: -106889.525871 eV PBE+vdW (tier 2 basis)
C    0.143204  0.874940  2.166324
C    -1.270369  1.067202  1.706042
O    -1.694582  2.214436  1.420172
H    0.409124  -0.167256  2.371254
H    0.305739  1.471839  3.073761
H    0.819164  1.272625  1.397298
N    -2.037746  -0.041044  1.620749
C    -3.416841  -0.285045  1.138300
C    -3.958059  0.763936  0.149793
O    -4.412853  1.877865  0.535350
H    -1.552402  -0.900473  1.866506
H    -3.320472  -1.217005  0.566154
C    -4.414562  -0.661753  2.267523
C    -5.062441  0.410498  3.174820
C    -4.104455  1.249198  3.983963
O    -3.771020  2.390887  3.643783
O    -3.574271  0.766767  5.097050
H    -3.907822  -1.418044  2.886054
H    -5.246470  -1.194637  1.784497
H    -5.742474  -0.120082  3.858658
H    -5.677024  1.091540  2.577440
N    -4.005281  0.430962  -1.137903
C    -3.548364  -0.794401  -1.805315
H    -4.448628  1.133597  -1.729436
H    -4.201285  -1.645402  -1.571980
H    -2.510234  -1.027142  -1.543019
H    -3.590065  -0.621965  -2.884555
H    -3.946366  -0.101124  5.345293
Sr    -3.456143  3.689084  1.691422
