29
Energy: -106889.272725 eV PBE+vdW (tier 2 basis)
C    -0.947886  -0.457098  -0.480600
C    -0.796348  -0.470945  1.009186
O    0.184334  -1.068433  1.537464
H    -0.040114  -0.036981  -0.933249
H    -1.817907  0.105546  -0.834107
H    -1.027265  -1.495405  -0.832181
N    -1.738422  0.166787  1.726881
C    -1.981473  0.285498  3.185515
C    -0.854656  1.007457  3.947363
O    0.343140  0.601507  3.919375
H    -2.462808  0.601794  1.162272
H    -2.854086  0.950816  3.226224
C    -2.467718  -1.017224  3.873637
C    -1.468596  -2.151911  4.138578
C    -0.569073  -1.898818  5.320673
O    -0.866221  -1.439538  6.381923
O    0.778429  -2.308128  5.065228
H    -3.281101  -1.410744  3.249543
H    -2.927679  -0.727577  4.829442
H    -0.906828  -2.442127  3.244573
H    -2.048103  -3.046853  4.422979
N    -1.224359  2.045226  4.685484
C    -0.345058  2.809352  5.570115
H    -2.197480  2.337197  4.645336
H    -0.862682  2.988147  6.518636
H    -0.091342  3.773305  5.111038
H    0.568024  2.238605  5.752532
H    1.201842  -2.355880  5.949339
Sr    1.828914  -0.991252  3.131287
