29
Energy: -106889.194485 eV PBE+vdW (tier 2 basis)
C    0.445588  0.317157  -0.398139
C    0.150139  -0.035672  1.027184
O    0.866920  -0.886957  1.626448
H    1.486208  0.657076  -0.480167
H    -0.215969  1.084235  -0.813379
H    0.360309  -0.594555  -1.006193
N    -0.893630  0.585270  1.606610
C    -1.558637  0.428256  2.920945
C    -0.667797  0.791786  4.117733
O    0.504927  0.325850  4.241249
H    -1.368178  1.244373  0.996003
H    -2.349299  1.186714  2.880519
C    -2.322027  -0.909454  3.115625
C    -1.525372  -2.192696  3.389842
C    -0.981952  -2.272225  4.792823
O    -1.535572  -1.973786  5.808722
O    0.349233  -2.791499  4.824963
H    -2.924058  -1.059247  2.209711
H    -3.037784  -0.762062  3.937033
H    -0.753925  -2.382275  2.636719
H    -2.224957  -3.042815  3.316353
N    -1.173553  1.572214  5.063404
C    -2.499668  2.196018  5.143438
H    -0.551762  1.716454  5.858849
H    -2.510337  2.846033  6.022496
H    -3.288287  1.443262  5.265140
H    -2.700455  2.819281  4.263757
H    0.499943  -3.047321  5.760522
Sr    2.019151  -1.287070  3.568809
