29
Energy: -106889.15219 eV PBE+vdW (tier 2 basis)
C    -0.692386  -0.422219  0.167933
C    -0.348113  -0.248906  1.608557
O    0.822457  -0.425048  2.039316
H    -0.113917  -1.266771  -0.226250
H    -0.376634  0.466572  -0.400016
H    -1.759618  -0.595655  -0.002333
N    -1.312885  0.116567  2.507135
C    -2.270634  1.189343  2.275410
C    -1.517094  2.465533  1.798940
O    -0.270716  2.574873  1.985697
H    -0.962721  0.080430  3.463874
H    -2.958735  0.891382  1.471721
C    -3.135893  1.443744  3.544789
C    -2.486796  1.258745  4.946925
C    -1.235999  2.066851  5.219184
O    -0.122407  1.708475  4.808874
O    -1.303312  3.199702  5.893972
H    -3.981625  0.744843  3.520218
H    -3.568888  2.449676  3.474623
H    -2.229994  0.202389  5.112818
H    -3.262886  1.494027  5.688267
N    -2.188796  3.427708  1.175710
C    -3.608021  3.505819  0.821720
H    -1.615193  4.229685  0.911822
H    -3.694863  3.946635  -0.177120
H    -4.152745  4.140734  1.532597
H    -4.068219  2.514136  0.798617
H    -2.198381  3.383298  6.239877
Sr    1.570486  1.581933  3.111296
