29
Energy: -106888.928002 eV PBE+vdW (tier 2 basis)
C    -1.282179  2.223790  2.057644
C    -0.340800  1.161766  1.620559
O    0.894152  1.575214  1.442782
H    -1.898359  1.897949  2.904290
H    -1.950315  2.497960  1.226828
H    -0.715167  3.114637  2.343531
N    -0.660582  -0.092536  1.409128
C    -2.009907  -0.665364  1.440922
C    -2.117812  -1.739924  2.544389
O    -1.159078  -2.514235  2.815273
H    0.070464  -0.780736  1.075044
H    -2.712180  0.138623  1.680555
C    -2.409649  -1.256517  0.043292
C    -1.257923  -1.768027  -0.858830
C    -0.348941  -2.726260  -0.123009
O    -0.660292  -3.945592  -0.003323
O    0.679865  -2.239797  0.506752
H    -2.942011  -0.475017  -0.513139
H    -3.128977  -2.069847  0.209323
H    -0.667517  -0.929060  -1.248004
H    -1.711022  -2.285069  -1.713170
N    -3.283433  -1.847976  3.176466
C    -4.505286  -1.054379  2.995646
H    -3.319109  -2.596325  3.867450
H    -5.266126  -1.452071  3.672663
H    -4.889132  -1.132342  1.971437
H    -4.341246  -0.001399  3.258285
H    1.502149  0.891111  1.094716
Sr    0.469835  -4.082182  2.062726
