29
Energy: -106889.148331 eV PBE+vdW (tier 2 basis)
C    -1.590772  -2.018366  0.730735
C    -0.767908  -1.011681  1.460938
O    0.506733  -1.055872  1.419734
H    -2.665588  -1.895566  0.897403
H    -1.287234  -3.030288  1.028777
H    -1.384492  -1.926648  -0.345403
N    -1.384056  -0.046704  2.150620
C    -0.650808  1.012779  2.856278
C    0.031070  0.414615  4.107131
O    1.298843  0.251544  4.083477
H    -2.391029  -0.107759  2.303728
H    0.184611  1.276658  2.193214
C    -1.450895  2.332549  3.006902
C    -2.492317  2.558583  4.118737
C    -3.603515  1.540979  4.189725
O    -3.396902  0.323129  4.177482
O    -4.810509  2.077053  4.288558
H    -1.916596  2.515855  2.026908
H    -0.699781  3.125395  3.125023
H    -2.918902  3.560066  3.988181
H    -2.009306  2.565414  5.109603
N    -0.725664  0.036602  5.115374
C    -0.238663  -0.581264  6.346889
H    -1.749165  0.095766  4.957114
H    0.805558  -0.304086  6.513008
H    -0.327481  -1.674701  6.290457
H    -0.847837  -0.226200  7.184416
H    -5.480077  1.366457  4.385123
Sr    2.527683  -0.765310  2.432873
