29
Energy: -106888.620205 eV PBE+vdW (tier 2 basis)
C    -1.156809  -0.796257  -0.131201
C    -0.827900  -0.561876  1.307640
O    0.382350  -0.467300  1.676980
H    -0.681187  -0.020908  -0.745951
H    -2.231236  -0.814388  -0.340121
H    -0.718693  -1.757634  -0.435990
N    -1.844256  -0.460794  2.177398
C    -1.818394  -0.391369  3.656107
C    -1.219003  0.934578  4.157179
O    0.040623  1.127188  4.133532
H    -2.771466  -0.558246  1.772289
H    -2.874357  -0.413047  3.945567
C    -1.149520  -1.613255  4.314482
C    -1.378633  -1.719852  5.835358
C    -2.750890  -2.245255  6.232298
O    -2.949617  -3.256368  6.848475
O    -3.761601  -1.417825  5.794248
H    -0.066172  -1.606389  4.123728
H    -1.532570  -2.513436  3.813693
H    -1.214689  -0.750617  6.333085
H    -0.655987  -2.425082  6.259147
N    -2.016464  1.870801  4.644090
C    -3.481310  1.871345  4.771552
H    -1.530306  2.708722  4.965654
H    -3.760309  2.737248  5.378022
H    -3.829129  0.964971  5.278710
H    -3.959938  1.970637  3.789370
H    -4.599870  -1.823624  6.098381
Sr    1.928980  0.471420  3.035317
