29
Energy: -106888.930192 eV PBE+vdW (tier 2 basis)
C    0.459172  1.653555  0.972602
C    0.279097  0.642330  2.058480
O    1.161397  0.524316  2.970029
H    -0.346548  1.642843  0.232057
H    1.418619  1.469138  0.470216
H    0.521781  2.655747  1.418429
N    -0.823313  -0.109145  2.036768
C    -1.178476  -1.294200  2.843182
C    -1.336919  -0.998759  4.338997
O    -0.328514  -0.836630  5.100218
H    -1.394319  -0.068386  1.187319
H    -2.167668  -1.554885  2.457154
C    -0.272480  -2.518074  2.589377
C    -0.032108  -2.845504  1.101309
C    -1.268399  -2.790613  0.216073
O    -2.048888  -1.846775  0.188235
O    -1.384681  -3.874629  -0.552037
H    -0.742053  -3.377570  3.089995
H    0.707872  -2.382636  3.068845
H    0.435899  -3.832836  1.021040
H    0.679841  -2.127076  0.665596
N    -2.556919  -0.960035  4.853303
C    -3.853283  -1.117322  4.178819
H    -2.582997  -0.819668  5.863702
H    -4.633963  -0.823530  4.885974
H    -4.024481  -2.161771  3.889677
H    -3.925320  -0.465781  3.301482
H    -2.161599  -3.765345  -1.140254
Sr    1.787504  0.005325  5.066220
