29
Energy: -106888.94207 eV PBE+vdW (tier 2 basis)
C    -1.066770  0.923865  1.010856
C    -0.720827  0.513369  2.401603
O    0.332160  0.966321  2.973935
H    -1.201430  2.014437  0.984890
H    -1.977455  0.440898  0.643388
H    -0.230023  0.690474  0.339025
N    -1.527708  -0.325239  3.047181
C    -1.317531  -0.682686  4.448019
C    -0.052827  -1.557095  4.619010
O    0.938319  -1.015931  5.218118
H    -2.408663  -0.705458  2.621219
H    -1.020381  0.242400  4.965009
C    -2.615541  -1.092065  5.187531
C    -3.470696  -2.312518  4.819357
C    -4.162915  -2.278076  3.472335
O    -3.787678  -1.631292  2.494618
O    -5.234020  -3.063560  3.449056
H    -3.254735  -0.197096  5.154145
H    -2.332078  -1.206714  6.243600
H    -4.250313  -2.414850  5.586983
H    -2.909445  -3.256070  4.878816
N    0.078896  -2.787401  4.144837
C    -0.789543  -3.584104  3.277469
H    0.976627  -3.214258  4.378882
H    -1.234819  -4.416817  3.835066
H    -0.177369  -4.000733  2.468907
H    -1.570784  -2.967034  2.830986
H    -5.640842  -3.032117  2.557703
Sr    1.955717  0.949352  4.550835
