29
Energy: -106889.766616 eV PBE+vdW (tier 2 basis)
C    0.457252  0.441969  0.314162
C    0.060994  0.123456  1.722034
O    0.928689  -0.066065  2.611090
H    1.018265  1.386899  0.310243
H    -0.388920  0.528764  -0.375151
H    1.142630  -0.334406  -0.050263
N    -1.258994  0.043800  1.996853
C    -1.913808  -0.232081  3.289055
C    -1.505810  0.831819  4.338568
O    -0.499127  0.654541  5.080674
H    -1.884861  0.199959  1.212351
H    -2.975027  -0.079263  3.067594
C    -1.773570  -1.674392  3.878786
C    -1.121772  -2.772886  3.024653
C    0.184322  -3.296532  3.568932
O    0.948629  -2.660894  4.315355
O    0.454813  -4.517761  3.158965
H    -2.788919  -1.999397  4.132079
H    -1.250532  -1.606299  4.839149
H    -0.905326  -2.434746  1.997569
H    -1.792110  -3.631124  2.894073
N    -2.238188  1.934530  4.447223
C    -3.436458  2.320334  3.693921
H    -1.913504  2.584380  5.163029
H    -3.226904  2.393222  2.619914
H    -3.747940  3.308514  4.043187
H    -4.264513  1.623207  3.873468
H    1.316920  -4.822849  3.513392
Sr    1.579767  -0.407699  4.818096
