29
Energy: -106889.436223 eV PBE+vdW (tier 2 basis)
C    -0.637528  0.308531  -0.582626
C    -0.591999  -0.254360  0.797739
O    0.254362  -1.130996  1.124580
H    -0.817426  -0.506594  -1.296842
H    0.346428  0.731794  -0.826052
H    -1.404815  1.078439  -0.714015
N    -1.486567  0.201684  1.713177
C    -1.422207  -0.305282  3.076050
C    -2.158818  -1.656601  3.231169
O    -1.436576  -2.695756  3.284567
H    -2.157894  0.910586  1.432369
H    -0.377381  -0.598731  3.151168
C    -1.551508  0.704128  4.223706
C    -0.918260  0.143911  5.530389
C    0.548613  -0.253670  5.435239
O    0.969213  -1.122191  4.653807
O    1.434462  0.323766  6.223116
H    -2.587735  0.982176  4.450791
H    -1.031192  1.625350  3.924663
H    -1.456916  -0.762691  5.850691
H    -1.061994  0.883712  6.327941
N    -3.481604  -1.750046  3.286904
C    -4.498908  -0.703893  3.201741
H    -3.824590  -2.707499  3.380708
H    -5.272583  -1.015346  2.490682
H    -4.070218  0.236284  2.847291
H    -4.967354  -0.539431  4.180601
H    1.038693  0.985643  6.822506
Sr    0.894932  -2.699639  2.807767
