29
Energy: -106888.792016 eV PBE+vdW (tier 2 basis)
C    0.304326  -0.143257  0.116282
C    -0.357402  0.653164  1.192417
O    -0.438810  1.918095  1.103930
H    0.371948  -1.212217  0.342970
H    1.309753  0.252865  -0.074582
H    -0.270738  -0.013200  -0.812314
N    -0.874731  0.001350  2.242630
C    -1.732928  0.566868  3.301640
C    -0.861481  1.287858  4.356147
O    -0.355948  2.419911  4.050305
H    -0.765493  -1.010756  2.251846
H    -2.337678  1.361316  2.835326
C    -2.660651  -0.545895  3.808049
C    -3.728081  -0.096635  4.833704
C    -3.789537  -0.944962  6.093225
O    -4.784361  -1.329449  6.637252
O    -2.515953  -1.208148  6.578709
H    -2.053119  -1.365365  4.220823
H    -3.167468  -0.964142  2.928337
H    -4.730331  -0.111603  4.394817
H    -3.556761  0.939244  5.170332
N    -0.649447  0.737588  5.531622
C    0.164123  1.355431  6.581584
H    -1.152017  -0.122795  5.788655
H    0.090252  0.736055  7.478799
H    -0.200187  2.365021  6.805832
H    1.213424  1.413390  6.268477
H    -2.623828  -1.748227  7.388051
Sr    -0.056295  3.824750  2.276961
