29
Energy: -106889.651364 eV PBE+vdW (tier 2 basis)
C    0.172167  1.095278  -0.841846
C    -0.439673  0.816840  0.496787
O    0.098283  0.012932  1.295785
H    0.331997  0.145675  -1.368741
H    1.164477  1.542286  -0.688613
H    -0.423504  1.763618  -1.472260
N    -1.584406  1.468705  0.803371
C    -2.371761  1.434996  2.051089
C    -1.472358  1.711526  3.281513
O    -0.940308  0.765446  3.925516
H    -1.929987  2.103980  0.090365
H    -3.035718  2.299529  1.944693
C    -3.293577  0.194513  2.298032
C    -3.465581  -0.844090  1.182536
C    -2.604948  -2.082311  1.326058
O    -1.735758  -2.212647  2.194833
O    -2.783571  -3.085842  0.486316
H    -4.284669  0.596909  2.536807
H    -2.960119  -0.319015  3.206544
H    -3.282126  -0.425952  0.179552
H    -4.513848  -1.181800  1.160756
N    -1.283181  2.973011  3.654771
C    -1.821268  4.199262  3.056388
H    -0.696037  3.081547  4.481431
H    -1.519445  4.297079  2.006745
H    -1.407830  5.049733  3.605343
H    -2.914485  4.241517  3.143294
H    -3.516167  -2.933568  -0.142231
Sr    0.119401  -1.229159  3.271164
