29
Energy: -106889.74488 eV PBE+vdW (tier 2 basis)
C    -1.274308  0.032661  0.131289
C    -0.954142  -0.022669  1.593761
O    0.236215  -0.061135  1.988956
H    -0.868077  0.966367  -0.282409
H    -2.345190  -0.015891  -0.091612
H    -0.758675  -0.790196  -0.380399
N    -1.995899  -0.028214  2.455293
C    -2.007718  -0.027839  3.932446
C    -1.210200  1.168084  4.511460
O    0.038518  1.105861  4.670977
H    -2.913466  0.020435  2.022697
H    -3.064535  0.151088  4.164320
C    -1.608004  -1.352530  4.666831
C    -1.382942  -2.630510  3.847202
C    0.072620  -2.996656  3.637126
O    1.012796  -2.245246  3.918916
O    0.366731  -4.175652  3.120982
H    -2.407796  -1.549780  5.389563
H    -0.711762  -1.163388  5.268336
H    -1.853536  -2.582455  2.851421
H    -1.868718  -3.481246  4.349220
N    -1.912395  2.242063  4.852410
C    -1.342985  3.462580  5.425821
H    -2.917796  2.224123  4.705298
H    -1.148588  4.202892  4.638925
H    -0.408083  3.219125  5.937435
H    -2.055438  3.881373  6.143311
H    -0.420684  -4.733336  2.966276
Sr    1.836062  -0.043909  3.677148
