29
Energy: -106889.705364 eV PBE+vdW (tier 2 basis)
C    -0.394949  0.489758  -0.335980
C    -0.333896  0.032247  1.090300
O    0.510770  -0.829739  1.444688
H    -0.563865  -0.385554  -0.977954
H    0.579533  0.908751  -0.620209
H    -1.173678  1.233483  -0.533643
N    -1.222174  0.585500  1.943602
C    -1.503114  0.353130  3.375996
C    -0.306956  0.629282  4.313369
O    0.825792  0.102036  4.177690
H    -1.838930  1.269094  1.514167
H    -2.225244  1.148681  3.605826
C    -2.313708  -0.941278  3.680475
C    -1.793859  -2.343873  3.278710
C    -0.779251  -2.950402  4.219675
O    0.438531  -2.913426  4.010849
O    -1.186778  -3.538665  5.332209
H    -3.268572  -0.810708  3.153374
H    -2.564838  -0.919258  4.751957
H    -1.358967  -2.331195  2.273818
H    -2.669161  -3.009257  3.236606
N    -0.556621  1.457123  5.325606
C    0.428766  1.797395  6.354763
H    -1.468049  1.900568  5.384992
H    -0.063701  2.406028  7.117381
H    1.257648  2.367759  5.917902
H    0.823560  0.885920  6.817785
H    -2.159355  -3.597568  5.395907
Sr    2.058770  -1.519857  3.029340
