20
Energy: -240152.216349 eV PBE+vdW (tier 2 basis)
N    0.131130  0.366850  0.199866
C    0.357778  0.044168  1.673131
C    1.865823  -0.172423  1.851314
O    2.329540  -0.254488  3.027821
H    0.976684  0.036698  -0.309268
H    0.026350  1.374368  0.024369
H    0.043719  0.917033  2.260891
C    -0.419725  -1.208685  2.093909
C    -1.940682  -1.049428  2.081113
C    -2.593830  -2.329291  2.607553
O    -1.966888  -3.276414  3.026207
O    -3.931113  -2.238277  2.539063
H    -0.096536  -1.458499  3.113093
H    -0.115940  -2.063081  1.468116
H    -2.360801  -0.854572  1.080002
H    -2.265736  -0.211874  2.717218
O    2.594779  -0.308018  0.808567
H    -0.706751  -0.104925  -0.166763
H    -4.315266  -3.064682  2.897595
Ba    4.661886  -0.792512  2.323571
