20
Energy: -240151.485971 eV PBE+vdW (tier 2 basis)
N    -0.854911  -0.244242  0.382544
C    -0.200269  -0.139038  1.742888
C    1.326937  -0.195686  1.691469
O    2.004874  0.031933  2.652733
H    -0.207630  -0.723228  -0.262225
H    -1.080835  0.672540  -0.019077
H    -0.488024  0.823892  2.184110
C    -0.815934  -1.307189  2.535885
C    -2.265641  -1.338123  2.051414
C    -2.183965  -1.188637  0.527082
O    -1.990660  -2.274214  -0.201594
O    -3.288793  -0.469067  -0.078149
H    -0.720937  -1.137443  3.612791
H    -0.302458  -2.248910  2.296944
H    -2.828867  -0.500219  2.493090
H    -2.783494  -2.269083  2.305964
O    1.764336  -0.571411  0.460006
H    2.742658  -0.627606  0.480197
H    -3.715020  0.148261  0.544017
Ba    -3.744926  -2.753279  -1.675915
