20
Energy: -240152.670729 eV PBE+vdW (tier 2 basis)
N    0.516287  -1.558641  0.154371
C    0.234176  -0.379179  1.049982
C    1.545557  0.080526  1.713191
O    2.527354  -0.647607  1.833415
H    1.231295  -1.347485  -0.553121
H    -0.336870  -1.842340  -0.344979
H    -0.139966  0.437020  0.415028
C    -0.848369  -0.737315  2.114333
C    -0.821697  -2.178613  2.692354
C    0.575359  -2.664226  3.020526
O    1.091421  -2.464473  4.153866
O    1.268505  -3.199800  2.059291
H    -1.836129  -0.567629  1.666198
H    -0.760159  -0.012123  2.934754
H    -1.279584  -2.885378  1.987082
H    -1.432356  -2.182959  3.602824
O    1.580220  1.300107  2.214896
H    0.784996  1.841040  2.036799
H    0.853748  -2.390671  0.788808
Ba    3.470211  -2.649255  3.369381
