20
Energy: -240152.165677 eV PBE+vdW (tier 2 basis)
N    4.610452  -2.796357  -1.007441
C    4.891446  -2.760783  0.492988
C    6.384538  -2.433807  0.649200
O    6.887493  -2.390289  1.811543
H    5.439520  -2.393636  -1.489636
H    3.763588  -2.272744  -1.262352
H    4.326294  -1.909652  0.902471
C    4.424344  -4.070868  1.138925
C    4.289940  -4.027566  2.661666
C    3.500379  -5.247938  3.129868
O    2.907755  -5.993343  2.381328
O    3.547849  -5.361696  4.468260
H    5.093042  -4.892557  0.836779
H    3.430770  -4.321273  0.732650
H    3.737919  -3.132478  2.990039
H    5.257647  -3.997373  3.175913
O    7.073397  -2.195848  -0.404643
H    4.487833  -3.765232  -1.334772
H    3.002497  -6.133049  4.726292
Ba    9.181022  -1.741157  1.040522
