20
Energy: -240152.435228 eV PBE+vdW (tier 2 basis)
N    -1.050409  0.434928  1.276795
C    0.376598  -0.033812  1.559641
C    1.377971  1.070743  1.171644
O    2.560387  0.873646  1.122152
H    -1.231394  0.476496  0.262937
H    -1.194002  1.389354  1.640948
H    0.448975  -0.143454  2.652308
C    0.681402  -1.363900  0.865422
C    0.193603  -2.637995  1.571042
C    1.030248  -3.076695  2.761828
O    1.696441  -2.219827  3.445311
O    1.059185  -4.320281  3.060017
H    1.773057  -1.396129  0.754432
H    0.282806  -1.339928  -0.161396
H    0.181466  -3.474485  0.860403
H    -0.850025  -2.563612  1.924832
O    0.743232  2.246398  0.951953
H    1.406307  2.938256  0.744427
H    -1.751765  -0.190364  1.695764
Ba    2.761917  -4.066337  4.810539
