20
Energy: -240151.530267 eV PBE+vdW (tier 2 basis)
N    0.148060  -0.409525  -0.108643
C    0.196952  -0.065145  1.357823
C    1.381554  -0.740153  2.060218
O    1.584048  -0.629220  3.234471
H    -0.227115  0.367160  -0.665925
H    1.079836  -0.667783  -0.460781
H    0.325218  1.018478  1.477559
C    -1.155565  -0.566880  1.887398
C    -1.357096  -1.894111  1.150880
C    -0.924182  -1.643997  -0.302342
O    -1.836584  -1.256104  -1.174678
O    -0.198435  -2.734910  -0.918764
H    -1.947254  0.151489  1.636303
H    -1.132207  -0.673714  2.976741
H    -2.397962  -2.233787  1.164956
H    -0.739181  -2.681885  1.608230
O    2.141875  -1.468661  1.184364
H    2.919650  -1.810965  1.673485
H    0.367786  -3.212226  -0.284417
Ba    -2.164978  -2.805075  -2.906419
