20
Energy: -240152.506545 eV PBE+vdW (tier 2 basis)
N    -1.091186  0.420731  0.973050
C    0.260439  0.371034  1.687234
C    1.184435  1.473162  1.126703
O    2.364661  1.489579  1.334750
H    -1.026316  0.020513  0.026074
H    -1.387715  1.403774  0.860688
H    0.043350  0.654017  2.729738
C    0.911956  -1.008595  1.623636
C    0.223930  -2.090652  2.460688
C    1.064548  -3.345488  2.662720
O    2.304195  -3.352732  2.351145
O    0.503162  -4.373304  3.178929
H    1.939884  -0.861434  1.980946
H    1.014934  -1.324049  0.572959
H    -0.740069  -2.424801  2.047191
H    0.000060  -1.721114  3.476196
O    0.468580  2.394274  0.437338
H    1.065776  3.112388  0.138986
H    -1.819608  -0.092618  1.486886
Ba    2.600984  -5.679683  3.229145
