20
Energy: -240151.21685 eV PBE+vdW (tier 2 basis)
N    -0.241558  -1.417745  0.118735
C    -0.211923  -0.461567  1.198339
C    1.185593  -0.228184  1.794482
O    2.113392  -0.977987  1.810189
H    0.195940  -1.056006  -0.727618
H    0.233964  -2.287513  0.364268
H    -0.555811  0.505378  0.797226
C    -1.205687  -0.952506  2.284001
C    -1.312564  -0.160083  3.620271
C    -1.743775  1.262444  3.457204
O    -2.937770  1.633817  3.720436
O    -0.931265  2.171678  3.032243
H    -0.926975  -1.977406  2.567344
H    -2.188410  -1.020228  1.800118
H    -0.342903  -0.166104  4.140866
H    -2.038268  -0.668016  4.264992
O    1.282155  1.065013  2.369282
H    2.188768  1.180552  2.723335
H    0.008339  1.791642  2.811114
Ba    -4.827901  2.948135  4.103084
