20
Energy: -240152.134496 eV PBE+vdW (tier 2 basis)
N    -0.091763  -0.306702  0.185974
C    -0.012629  -0.416868  1.691581
C    1.442310  -0.378100  2.167497
O    2.348573  -1.112872  1.753095
H    -1.085806  -0.126993  -0.000812
H    0.357793  0.581685  -0.066892
H    -0.503110  0.458972  2.139478
C    -0.755545  -1.663282  2.226312
C    -0.088570  -3.055310  2.045399
C    0.321412  -3.268994  0.625918
O    -0.445403  -3.647464  -0.277378
O    1.561821  -2.918064  0.250382
H    -1.754652  -1.673078  1.766013
H    -0.923242  -1.521932  3.302377
H    -0.826172  -3.823448  2.310007
H    0.776727  -3.171294  2.710346
O    1.627970  0.517845  3.111357
H    2.552199  0.485626  3.446139
H    1.991459  -2.218076  0.938554
Ba    0.542433  -2.216145  -2.091576
