20
Energy: -240152.853613 eV PBE+vdW (tier 2 basis)
N    1.301458  -0.538068  0.210157
C    0.451145  -0.082627  1.342501
C    1.289600  -0.065542  2.620756
O    2.440336  -0.514591  2.694972
H    0.694530  -0.886791  -0.536697
H    1.752747  0.284786  -0.201990
H    0.149803  0.969617  1.202644
C    -0.888606  -0.855602  1.485644
C    -0.913000  -2.394423  1.288818
C    0.012146  -3.173196  2.189866
O    1.228080  -3.256543  1.950687
O    -0.436124  -3.771742  3.273225
H    -1.579400  -0.446097  0.736404
H    -1.320112  -0.592406  2.460098
H    -0.641677  -2.660468  0.257680
H    -1.954068  -2.718981  1.423280
O    0.667744  0.508715  3.627649
H    1.240974  0.541194  4.423945
H    -1.405893  -3.703694  3.375205
Ba    3.375319  -2.313544  1.146158
