20
Energy: -240152.753676 eV PBE+vdW (tier 2 basis)
N    1.176511  -1.941442  1.305267
C    0.466119  -0.619724  1.220695
C    1.324276  0.503533  1.809923
O    2.530074  0.255426  2.149726
H    0.595026  -2.583001  0.632080
H    1.181583  -2.325499  2.257241
H    0.387553  -0.412243  0.141391
C    -0.952219  -0.683701  1.823471
C    -1.791646  -1.957146  1.539045
C    -1.658474  -2.565462  0.158487
O    -0.577392  -2.934817  -0.318745
O    -2.807371  -2.705023  -0.476040
H    -1.483781  0.199996  1.450554
H    -0.895023  -0.566912  2.914928
H    -2.844175  -1.731222  1.740890
H    -1.514076  -2.760756  2.240187
O    0.814139  1.665007  1.907072
H    2.155367  -1.861844  1.003934
H    -2.660838  -3.158497  -1.334523
Ba    2.926351  2.714328  2.735414
