20
Energy: -240152.563962 eV PBE+vdW (tier 2 basis)
N    -0.251761  0.692907  -0.218650
C    -0.127653  -0.065334  1.102298
C    0.980290  0.561938  1.962351
O    1.415045  0.036359  2.954124
H    -0.199201  1.711305  -0.060038
H    -1.139284  0.473566  -0.692690
H    -1.074948  0.123900  1.632207
C    0.035429  -1.567333  0.824014
C    -0.204785  -2.465369  2.048297
C    1.020989  -2.848383  2.854702
O    2.176879  -2.900927  2.307801
O    0.849315  -3.188600  4.077430
H    1.035104  -1.770424  0.410955
H    -0.699964  -1.838209  0.051863
H    -0.625915  -3.422071  1.699242
H    -0.952275  -2.053087  2.738051
O    1.346708  1.769117  1.476673
H    2.008007  2.178660  2.072817
H    0.514927  0.449043  -0.862732
Ba    3.202093  -3.740059  4.431284
