20
Energy: -240151.416999 eV PBE+vdW (tier 2 basis)
N    0.244271  0.348500  0.286416
C    0.003791  0.164646  1.747694
C    1.348698  0.143224  2.459043
O    2.381758  -0.210556  1.855256
H    0.233048  1.352458  0.074238
H    -0.577759  -0.017605  -0.207491
H    -0.612972  0.985653  2.149844
C    -0.708537  -1.185092  2.024657
C    -2.164296  -1.220339  1.537865
C    -2.789076  -2.601592  1.739507
O    -3.754292  -2.818492  2.420901
O    -2.097559  -3.543718  1.037702
H    -0.688305  -1.380660  3.106797
H    -0.128677  -1.997597  1.556829
H    -2.249068  -0.987472  0.463154
H    -2.781868  -0.500087  2.086851
O    1.447849  0.427802  3.730479
H    0.608557  0.720012  4.141157
H    -2.548199  -4.400945  1.183627
Ba    2.750671  -0.732935  -0.497072
