20
Energy: -240151.81226 eV PBE+vdW (tier 2 basis)
N    0.385084  -0.835413  0.228471
C    -0.019203  -0.194745  1.481858
C    1.017038  -0.555276  2.534903
O    1.226686  -1.737897  2.917648
H    -0.272263  -0.582258  -0.512011
H    1.296211  -0.494674  -0.086367
H    -0.046198  0.911197  1.434301
C    -1.438076  -0.670886  1.945206
C    -2.020172  -1.931684  1.291724
C    -1.398679  -3.289211  1.477847
O    -2.002553  -4.298687  0.998394
O    -0.284124  -3.500041  2.118576
H    -2.136711  0.142134  1.710043
H    -1.463899  -0.759965  3.040544
H    -2.132691  -1.814709  0.202832
H    -3.059276  -2.043087  1.642592
O    1.750614  0.349173  3.111714
H    1.562074  1.251667  2.782795
H    0.536832  -2.468602  2.499423
Ba    -0.522732  -6.103524  1.714807
