20
Energy: -240151.473222 eV PBE+vdW (tier 2 basis)
N    -0.495702  0.044525  0.136476
C    -0.141461  -0.153610  1.599090
C    1.309979  -0.653089  1.721586
O    1.721992  -1.230609  2.688807
H    -1.206583  0.773721  0.002665
H    0.347907  0.280573  -0.409366
H    -0.173397  0.835465  2.078752
C    -1.156916  -1.110471  2.240852
C    -1.293393  -2.409537  1.493757
C    -2.501041  -2.953928  1.200751
O    -3.701356  -2.468714  1.345243
O    -2.612332  -4.279259  0.689153
H    -2.131447  -0.609024  2.319656
H    -0.801266  -1.279660  3.268556
H    -0.406943  -3.038709  1.388566
H    -0.881041  -0.864472  -0.195901
O    2.029924  -0.311533  0.621977
H    2.964028  -0.576801  0.752777
H    -1.751791  -4.731991  0.646319
Ba    -5.271935  -4.197166  1.094851
