20
Energy: -240151.707166 eV PBE+vdW (tier 2 basis)
N    -0.112252  1.013544  0.395107
C    -0.139737  0.209196  1.616396
C    1.294255  -0.317147  1.730186
O    2.085911  0.153616  2.595838
H    -0.610113  1.894044  0.502287
H    -0.437157  0.547693  -0.448336
H    -0.237383  0.910156  2.454799
C    -1.282603  -0.824218  1.805473
C    -1.210434  -2.228774  1.140266
C    -0.981002  -2.237731  -0.339314
O    0.130817  -1.906751  -0.853373
O    -1.892091  -2.576893  -1.201150
H    -2.206797  -0.319241  1.490340
H    -1.395409  -1.023894  2.880218
H    -2.140947  -2.763110  1.373692
H    -0.393222  -2.815857  1.587477
O    1.767575  -1.171806  0.857363
H    0.861162  -1.606271  -0.108834
H    -2.734073  -2.846306  -0.782546
Ba    4.213408  -0.460673  1.536087
