20
Energy: -240153.165713 eV PBE+vdW (tier 2 basis)
N    -1.153959  0.927859  1.008300
C    -0.660224  0.236264  2.272257
C    0.863733  0.443096  2.290327
O    1.413593  0.744284  1.176207
H    -0.300769  1.027329  0.408447
H    -1.518352  1.869737  1.203107
H    -1.124477  0.731709  3.132790
C    -1.019878  -1.261688  2.291652
C    -0.272877  -2.182340  1.280916
C    0.960787  -2.841659  1.859772
O    2.105468  -2.363270  1.830357
O    0.690611  -4.005038  2.417843
H    -2.102123  -1.358873  2.123580
H    -0.860228  -1.610771  3.320155
H    -0.955579  -2.984223  0.977129
H    0.031377  -1.643649  0.373573
O    1.487587  0.192503  3.352069
H    -1.887147  0.404421  0.513316
H    1.500708  -4.418056  2.785870
Ba    3.649750  -0.331638  2.084334
