20
Energy: -240151.52991 eV PBE+vdW (tier 2 basis)
N    0.480920  -0.795295  -0.574454
C    0.157186  -0.469312  0.852352
C    1.470492  -0.252412  1.604941
O    2.548951  -0.103636  0.994180
H    -0.304885  -0.473421  -1.149228
H    0.438761  -1.818429  -0.667247
H    -0.332915  0.521425  0.856385
C    -0.803190  -1.491925  1.490170
C    -1.447538  -1.088940  2.823980
C    -2.851519  -1.713911  2.934031
O    -3.461670  -2.140489  1.982022
O    -3.276816  -1.682037  4.202693
H    -0.295851  -2.464334  1.589711
H    -1.637457  -1.645710  0.786425
H    -0.883598  -1.412303  3.714844
H    -1.604787  0.001232  2.899577
O    1.484794  -0.175355  2.905426
H    0.597741  -0.338807  3.301716
H    -4.183584  -2.051474  4.238932
Ba    3.075780  -0.006298  -1.376109
