20
Energy: -240152.733004 eV PBE+vdW (tier 2 basis)
N    -0.151196  1.087054  1.079324
C    0.123977  0.041365  2.100947
C    1.610163  -0.315260  1.970806
O    2.132120  -0.353475  0.849637
H    -1.154238  1.291636  1.074686
H    0.280151  1.964081  1.390906
H    -0.104313  0.412002  3.113565
C    -0.656621  -1.287521  1.857318
C    -2.109983  -1.182756  1.382616
C    -2.289239  -1.084344  -0.114302
O    -1.366411  -0.884643  -0.926145
O    -3.540174  -1.241006  -0.483876
H    -0.646311  -1.840168  2.805449
H    -0.104459  -1.919618  1.146356
H    -2.669292  -0.354570  1.850038
H    -2.665173  -2.077696  1.702798
O    2.323430  -0.648630  3.019851
H    1.846008  -0.553011  3.867898
H    -3.637068  -1.192935  -1.458864
Ba    0.936023  0.114836  -1.358724
