20
Energy: -240152.404252 eV PBE+vdW (tier 2 basis)
N    -0.303739  -0.058307  -0.097920
C    -0.112397  -0.004995  1.401288
C    1.354298  0.255724  1.787982
O    1.721327  0.262783  2.931445
H    0.411830  -0.653938  -0.533344
H    -0.217208  0.868643  -0.530379
H    -0.682258  0.867950  1.753874
C    -0.639019  -1.284418  2.069474
C    -2.155966  -1.391712  2.289724
C    -3.042487  -1.534443  1.066450
O    -4.244830  -2.027885  1.292361
O    -2.699051  -1.197557  -0.074987
H    -0.162186  -1.317146  3.058119
H    -0.263712  -2.165672  1.525283
H    -2.526569  -0.510992  2.843182
H    -2.357576  -2.243341  2.953527
O    2.121151  0.475770  0.694484
H    3.038740  0.655613  0.988476
H    -1.279055  -0.479620  -0.268186
Ba    -6.329651  -2.786998  0.840530
