20
Energy: -240151.510648 eV PBE+vdW (tier 2 basis)
N    0.017443  -1.196239  0.329435
C    -0.265713  -0.442312  1.611006
C    1.029035  0.126637  2.220259
O    1.107786  0.463273  3.367895
H    -0.616292  -0.930332  -0.432184
H    0.988113  -1.013314  0.029316
H    -0.913267  0.416382  1.388556
C    -0.939088  -1.472773  2.529314
C    -0.261356  -2.791885  2.153209
C    -0.132516  -2.797615  0.627638
O    0.850583  -3.455138  0.050321
O    -1.359374  -3.194263  -0.060671
H    -2.024565  -1.494310  2.353107
H    -0.791055  -1.195753  3.578608
H    -0.802142  -3.679927  2.503253
H    0.755857  -2.844432  2.567148
O    2.010447  0.211105  1.285510
H    2.799858  0.626716  1.690950
H    -2.159080  -3.028058  0.471603
Ba    0.159719  -5.243512  -1.288856
