20
Energy: -240151.313705 eV PBE+vdW (tier 2 basis)
N    -0.332550  -0.255535  0.098309
C    -0.298887  0.262081  1.524825
C    1.113737  0.657682  1.958661
O    1.329652  1.199928  3.006359
H    0.536819  -0.767391  -0.114365
H    -0.420594  0.498258  -0.594425
H    -0.928015  1.161633  1.550529
C    -0.901518  -0.812749  2.461064
C    -2.240409  -1.275984  1.960577
C    -2.768886  -2.522702  2.067207
O    -3.958809  -2.913552  1.712924
O    -2.085954  -3.630194  2.633258
H    -0.952994  -0.338114  3.453643
H    -0.175116  -1.639218  2.552247
H    -1.156253  -0.892564  0.030861
H    -2.961789  -0.517368  1.648895
O    2.035769  0.275888  1.037028
H    2.927106  0.531196  1.355126
H    -1.255600  -3.376881  3.071888
Ba    -4.508383  -5.022820  2.507926
