20
Energy: -240151.435771 eV PBE+vdW (tier 2 basis)
N    0.280447  -0.473486  -0.001489
C    -0.355957  -0.189227  1.272618
C    0.415382  1.021523  1.794599
O    1.491997  1.029585  2.301153
H    1.218993  -0.859902  0.103410
H    -0.273183  -1.088956  -0.594653
H    -1.388989  0.114836  1.037550
C    -0.378960  -1.335547  2.306989
C    -0.951163  -1.001156  3.715599
C    -2.352743  -0.471015  3.678129
O    -2.617952  0.664379  3.210179
O    -3.371690  -1.176064  4.105429
H    0.650941  -1.683334  2.467564
H    -0.932330  -2.174140  1.861836
H    -0.325129  -0.234187  4.197174
H    -0.892184  -1.899355  4.344260
O    -0.263338  2.278262  1.555065
H    0.444041  2.950967  1.665140
H    -3.105672  -2.041447  4.477261
Ba    -2.818914  2.764964  2.036053
