20
Energy: -240151.906156 eV PBE+vdW (tier 2 basis)
N    -0.585138  0.168983  0.253203
C    -0.283044  -0.053645  1.633574
C    1.153036  0.222001  2.078534
O    1.479300  0.432195  3.294735
H    -0.444973  1.125463  -0.063785
H    -0.135695  -0.479132  -0.391069
H    -0.879564  0.660150  2.229977
C    -0.725784  -1.496012  2.022038
C    -0.462752  -2.019041  3.453976
C    -0.997329  -1.166265  4.573868
O    -1.968718  -1.546676  5.290828
O    -0.438172  -0.012384  4.846871
H    -0.239698  -2.200413  1.332098
H    -1.798913  -1.531493  1.795739
H    0.616979  -2.152630  3.628466
H    -0.924636  -3.009120  3.541520
O    2.066326  0.275421  1.163856
H    2.955239  0.469607  1.538336
H    0.658455  0.295189  3.974956
Ba    -1.970501  0.215529  6.999712
