20
Energy: -240152.732463 eV PBE+vdW (tier 2 basis)
N    0.019682  -0.305331  0.223859
C    0.483873  -0.426027  1.658776
C    2.046036  -0.471422  1.503894
O    2.717841  -0.527137  2.595675
H    -0.461294  0.575152  0.011915
H    -0.569291  -1.083492  -0.092139
H    0.222676  0.511125  2.167315
C    -0.107531  -1.650159  2.400192
C    -0.953579  -1.342019  3.644532
C    -0.184521  -0.969184  4.895693
O    1.030037  -1.154079  5.035072
O    -0.842558  -0.444526  5.914459
H    0.704163  -2.334770  2.676381
H    -0.743294  -2.221883  1.709792
H    -1.532019  -2.243837  3.912508
H    -1.708190  -0.565986  3.440500
O    2.483627  -0.446953  0.352940
H    0.985301  -0.335677  -0.275936
H    -1.800762  -0.346924  5.747125
Ba    3.528800  -0.943873  4.753443
