20
Energy: -240151.526763 eV PBE+vdW (tier 2 basis)
N    0.332170  -1.107030  -0.244134
C    0.145932  -0.260840  0.986952
C    1.549377  -0.155304  1.596668
O    2.438838  -0.903889  1.237947
H    1.239524  -1.610836  -0.097759
H    0.408262  -0.553948  -1.105651
H    -0.236991  0.722056  0.687770
C    -0.852939  -0.959043  1.951634
C    -2.081085  -1.428821  1.227421
C    -2.761567  -2.587102  1.427881
O    -3.866486  -2.965635  0.852281
O    -2.374799  -3.593013  2.350824
H    -1.079841  -0.221381  2.736965
H    -0.320302  -1.787085  2.450137
H    -0.480486  -1.751715  -0.320405
H    -2.600346  -0.716816  0.583034
O    1.612973  0.778487  2.536140
H    2.516335  0.801282  2.918211
H    -1.643437  -3.315848  2.928885
Ba    -4.820942  -4.841360  1.826949
