20
Energy: -240152.415388 eV PBE+vdW (tier 2 basis)
N    1.176812  -2.609925  3.953021
C    1.366337  -2.239140  2.486967
C    1.412819  -0.705816  2.438535
O    1.774227  -0.150302  1.367006
H    2.067615  -2.851055  4.407958
H    0.533234  -3.401004  4.085304
H    2.318514  -2.667658  2.154062
C    0.212597  -2.763719  1.603430
C    -1.059906  -1.884749  1.580805
C    -1.086124  -0.939841  0.398373
O    -0.955863  -1.233329  -0.749514
O    -1.349660  0.423144  0.762311
H    -0.035756  -3.786931  1.919998
H    0.598864  -2.864057  0.580618
H    -1.243165  -1.353267  2.522874
H    -1.933979  -2.534559  1.421259
O    0.952744  -0.072116  3.450999
H    0.801341  -1.754405  4.418377
H    -1.680446  0.816288  -0.074435
Ba    0.610797  2.031442  1.940052
