20
Energy: -240152.489846 eV PBE+vdW (tier 2 basis)
N    -0.940867  1.317844  2.200750
C    -0.342573  0.022297  2.704429
C    0.833777  0.541976  3.594434
O    1.637249  -0.335442  4.138429
H    -1.942106  1.419367  2.397569
H    -0.787768  1.470509  1.196969
H    -1.090564  -0.433558  3.368440
C    0.048897  -0.951803  1.566721
C    -0.367899  -2.422476  1.740407
C    0.419932  -3.315280  2.673147
O    0.273222  -4.575159  2.569799
O    1.227293  -2.845191  3.566583
H    1.126468  -0.877643  1.362972
H    -0.446334  -0.615620  0.644566
H    -0.338599  -2.920764  0.760694
H    -1.423384  -2.504611  2.051863
O    0.941496  1.747961  3.750476
H    -0.360800  2.035551  2.760070
H    1.427093  -1.287387  3.876075
Ba    1.906902  -5.257794  4.273965
