20
Energy: -240152.345979 eV PBE+vdW (tier 2 basis)
N    -0.137866  0.204662  0.477210
C    0.198950  -0.173502  1.903799
C    1.628296  -0.724245  1.962568
O    2.372666  -0.630437  0.928983
H    0.680836  0.624189  0.013696
H    -0.941343  0.880691  0.516130
H    0.211587  0.780412  2.456059
C    -0.857412  -1.106316  2.515670
C    -2.328732  -0.671154  2.316111
C    -2.588397  0.788742  2.636786
O    -2.974119  1.249651  3.671012
O    -2.279537  1.590056  1.529466
H    -0.628901  -1.168788  3.587067
H    -0.737239  -2.122360  2.110846
H    -2.953750  -1.270539  2.987384
H    -2.668634  -0.877537  1.291153
O    2.035472  -1.222290  3.057417
H    -0.416730  -0.612668  -0.081334
H    -2.512148  2.513603  1.760384
Ba    4.362126  -1.632468  2.237510
