20
Energy: -240151.793066 eV PBE+vdW (tier 2 basis)
N    -0.109201  -0.371059  0.042672
C    0.048871  -0.302238  1.534852
C    1.455176  -0.839201  1.823268
O    2.099451  -1.390718  0.948477
H    -0.208724  0.551070  -0.395619
H    0.760302  -0.840771  -0.303519
H    -0.056314  0.736243  1.869180
C    -1.075791  -1.203720  2.107912
C    -2.158118  -1.190591  1.026878
C    -1.428567  -1.222376  -0.319206
O    -2.011397  -0.726873  -1.392098
O    -0.945939  -2.550557  -0.696319
H    -1.428524  -0.822407  3.070977
H    -0.696726  -2.220228  2.294373
H    -2.737243  -0.256670  1.056371
H    -2.867783  -2.022514  1.110971
O    1.802582  -0.658597  3.086859
H    2.695877  -1.031531  3.247573
H    -0.675787  -3.100390  0.061680
Ba    -2.349765  -2.317555  -3.078473
