20
Energy: -240151.127467 eV PBE+vdW (tier 2 basis)
N    0.633170  -0.231596  -0.181993
C    0.031475  -0.030808  1.117429
C    1.136742  -0.016189  2.158929
O    2.242797  -0.583022  2.005664
H    0.749376  -1.216075  -0.421129
H    0.087021  0.212521  -0.917796
H    -0.400710  0.983389  1.132613
C    -1.100751  -1.045390  1.494680
C    -1.816999  -0.893739  2.856415
C    -2.394596  0.482353  3.070968
O    -3.484380  0.891522  2.825278
O    -1.405207  1.363057  3.623129
H    -0.691305  -2.063985  1.432707
H    -1.839512  -0.951738  0.687079
H    -1.155464  -1.150915  3.695692
H    -2.658136  -1.596991  2.879439
O    0.986123  0.635142  3.313377
H    0.021142  1.036106  3.455019
H    -1.811615  2.249085  3.722184
Ba    3.834672  0.092109  3.730694
