20
Energy: -240151.946304 eV PBE+vdW (tier 2 basis)
N    0.225910  0.647254  0.619552
C    0.260728  -0.015447  1.954114
C    1.694149  0.099874  2.489764
O    2.431269  1.017187  2.081491
H    0.552977  -0.048930  -0.064043
H    -0.804253  0.710847  0.407856
H    -0.313415  0.633500  2.643554
C    -0.393445  -1.416223  1.972805
C    -1.920674  -1.449713  2.163609
C    -2.781076  -0.732911  1.138591
O    -2.439736  0.237877  0.464708
O    -3.998807  -1.258692  1.086993
H    0.010392  -2.022345  2.800270
H    -0.103903  -1.956068  1.058019
H    -2.191986  -1.014150  3.140695
H    -2.251320  -2.494958  2.215784
O    2.157011  -0.688411  3.422692
H    1.528396  -1.394483  3.676540
H    -4.553005  -0.742873  0.464135
Ba    1.931309  2.766162  0.412278
