20
Energy: -240152.962499 eV PBE+vdW (tier 2 basis)
N    0.690979  -0.615779  -0.058504
C    0.333890  -0.344594  1.376800
C    1.543814  0.265146  2.097469
O    1.376372  0.744215  3.263827
H    0.075917  -1.471113  -0.408392
H    1.694370  -0.840849  -0.122219
H    -0.474168  0.400583  1.391342
C    -0.136811  -1.629351  2.093519
C    -1.515234  -2.183597  1.693119
C    -1.597930  -2.851671  0.339774
O    -0.856595  -2.598510  -0.619351
O    -2.571151  -3.739350  0.266576
H    -0.184202  -1.383132  3.162215
H    0.633440  -2.409325  1.987093
H    -2.282590  -1.390897  1.706017
H    -1.844781  -2.909985  2.447613
O    2.683090  0.259099  1.518670
H    0.526992  0.197844  -0.661038
H    -2.614141  -4.114910  -0.638933
Ba    3.761739  1.437177  3.521402
