20
Energy: -240151.802925 eV PBE+vdW (tier 2 basis)
N    1.026089  -1.796057  0.126091
C    0.365335  -0.717117  0.828139
C    1.234649  -0.268047  1.989674
O    2.461987  -0.565783  2.046049
H    0.573413  -1.997872  -0.764725
H    2.008711  -1.597181  -0.057625
H    0.246468  0.222258  0.230803
C    -1.053748  -1.178806  1.283826
C    -2.229114  -0.232018  1.008144
C    -2.397918  0.974405  1.882203
O    -1.548482  1.401790  2.716512
O    -3.483315  1.691481  1.828321
H    -1.049982  -1.487656  2.338331
H    -1.256114  -2.100245  0.724188
H    -3.170624  -0.802063  1.081792
H    -2.203901  0.140112  -0.032505
O    0.726357  0.465640  2.943029
H    -0.598419  0.902019  2.772477
H    -4.144040  1.345220  1.195372
Ba    3.050919  0.499887  4.186068
