20
Energy: -240151.840959 eV PBE+vdW (tier 2 basis)
N    -0.112483  -0.238148  0.137660
C    -0.165024  -0.148623  1.570532
C    1.146695  0.379512  2.123606
O    1.274631  0.779315  3.330338
H    -0.186594  0.658248  -0.339461
H    -0.808691  -0.874533  -0.243608
H    -0.920482  0.564133  1.970995
C    -0.494794  -1.561743  2.142576
C    -0.367030  -1.837468  3.657522
C    -1.137267  -0.922299  4.574090
O    -2.133193  -1.335498  5.237637
O    -0.758095  0.321507  4.729551
H    0.154400  -2.281008  1.624628
H    -1.524525  -1.774768  1.823554
H    0.689074  -1.801922  3.969393
H    -0.717690  -2.859713  3.840865
O    2.159806  0.449121  1.328244
H    2.954460  0.813958  1.779975
H    0.394819  0.639142  3.922751
Ba    -2.516168  0.616005  6.682766
