20
Energy: -240152.357357 eV PBE+vdW (tier 2 basis)
N    -0.299974  0.781326  -0.087924
C    -0.308336  -0.002734  1.210222
C    1.048714  0.363880  1.851878
O    1.959253  0.746959  1.152047
H    -0.749347  1.702789  0.000486
H    -0.748853  0.276527  -0.863243
H    -1.160561  0.342576  1.811490
C    -0.423601  -1.509692  0.891949
C    -0.319639  -2.446231  2.102888
C    1.091524  -2.794196  2.553589
O    2.070414  -2.689869  1.735592
O    1.262831  -3.229499  3.743384
H    0.361242  -1.780594  0.169404
H    -1.399297  -1.667899  0.409978
H    -0.781983  -3.408550  1.828814
H    -0.900778  -2.104120  2.971353
O    1.194797  0.185185  3.168891
H    0.352187  -0.001096  3.624417
H    0.719408  0.936420  -0.290254
Ba    3.675998  -3.663182  3.406040
