20
Energy: -240151.175915 eV PBE+vdW (tier 2 basis)
N    -0.177077  0.036725  0.102203
C    0.189961  -0.048965  1.492073
C    1.693541  -0.123938  1.780858
O    2.607293  -0.220486  1.023876
H    0.155715  0.899678  -0.327817
H    0.210592  -0.735953  -0.442289
H    -0.142200  0.887977  1.974595
C    -0.525233  -1.257771  2.176085
C    -1.615497  -0.881811  3.180381
C    -1.205973  -0.345519  4.520675
O    -2.104135  -0.183465  5.422408
O    -0.005357  -0.032914  4.852040
H    0.190722  -1.951641  2.638574
H    -1.015657  -1.820450  1.372669
H    -2.260539  -1.749077  3.396876
H    -2.303672  -0.134016  2.745339
O    1.902012  -0.054854  3.185244
H    2.860875  -0.109563  3.373910
H    0.752987  -0.110120  4.132847
Ba    -3.233174  0.288381  7.398203
