20
Energy: -240153.041385 eV PBE+vdW (tier 2 basis)
N    -0.107094  0.127717  -0.090662
C    -0.070012  -0.041417  1.421854
C    1.390787  0.237322  1.827717
O    1.655243  0.348177  3.051060
H    0.907157  0.122255  -0.369841
H    -0.514351  1.029985  -0.368618
H    -0.727596  0.717739  1.862110
C    -0.550822  -1.432875  1.875994
C    0.339470  -2.660617  1.518175
C    1.422733  -2.947644  2.544273
O    2.550384  -2.446305  2.488749
O    1.155500  -3.746450  3.562512
H    -1.554885  -1.599681  1.459846
H    -0.696751  -1.368128  2.962746
H    0.838552  -2.540834  0.546790
H    -0.312913  -3.539623  1.426906
O    2.255415  0.235363  0.888947
H    -0.624063  -0.612883  -0.580350
H    0.267088  -4.149880  3.516695
Ba    4.077157  -0.436220  2.721097
