20
Energy: -240152.904687 eV PBE+vdW (tier 2 basis)
N    -0.353454  -0.274786  0.436647
C    -0.372825  -0.062715  1.927334
C    1.015161  0.421399  2.371788
O    1.845142  0.818660  1.483421
H    -1.234530  0.010875  -0.003378
H    -0.201146  -1.350158  0.253071
H    -1.044274  0.786565  2.132114
C    -0.925643  -1.278522  2.691881
C    -0.098429  -2.574711  2.726311
C    -0.005734  -3.347227  1.429624
O    -0.046291  -2.842611  0.301045
O    0.154292  -4.645302  1.618476
H    -1.936473  -1.487861  2.311710
H    -1.064710  -0.948775  3.729253
H    0.936558  -2.383551  3.056569
H    -0.517861  -3.243253  3.489071
O    1.277001  0.475459  3.614612
H    0.421419  0.267140  0.025140
H    0.234942  -5.099247  0.752339
Ba    3.448853  1.680621  3.280971
