20
Energy: -240152.948873 eV PBE+vdW (tier 2 basis)
N    -0.037495  1.104992  0.431304
C    -0.108411  0.368788  1.722891
C    1.257553  -0.245869  2.016130
O    2.179122  -0.299502  1.189421
H    0.298899  2.054502  0.623680
H    -0.991237  1.248088  0.086690
H    -0.288996  1.063136  2.560466
C    -1.275657  -0.654197  1.790678
C    -1.610498  -1.507190  0.542359
C    -0.522894  -2.429217  0.067065
O    0.420220  -2.058452  -0.660061
O    -0.646076  -3.668618  0.484508
H    -2.186731  -0.084515  2.018219
H    -1.109720  -1.305379  2.658614
H    -2.493371  -2.107899  0.793283
H    -1.887230  -0.870091  -0.309270
O    1.359255  -0.693175  3.247562
H    2.254081  -1.057735  3.420651
H    0.071597  -4.238495  0.132394
Ba    1.862590  -0.117171  -1.333583
