20
Energy: -240152.354161 eV PBE+vdW (tier 2 basis)
N    0.047239  -0.484051  -0.791685
C    -0.030299  -0.226971  0.700628
C    0.864010  1.033558  0.863685
O    1.715294  1.248913  0.026786
H    -0.722214  -0.042949  -1.312388
H    0.073056  -1.482337  -1.031995
H    -1.079642  -0.036854  0.963826
C    0.534571  -1.448628  1.455936
C    0.536435  -1.293350  2.980219
C    1.034165  -2.518324  3.734599
O    1.058373  -2.457085  5.013016
O    1.423822  -3.563405  3.111418
H    1.558870  -1.639905  1.101559
H    -0.070341  -2.326892  1.184193
H    -0.470177  -1.075166  3.371792
H    1.177365  -0.461698  3.310895
O    0.707735  1.806675  1.932314
H    -0.079696  1.582098  2.462408
H    0.948085  -0.003890  -1.068211
Ba    2.025352  -4.703740  5.283005
