20
Energy: -240152.293387 eV PBE+vdW (tier 2 basis)
N    0.119709  0.376538  -0.356053
C    -0.208616  -0.033833  1.071180
C    1.057101  0.259399  1.900490
O    2.161151  -0.034141  1.462205
H    0.101585  1.398039  -0.495628
H    -0.540874  -0.045880  -1.025796
H    -1.058013  0.583738  1.392114
C    -0.573551  -1.541019  1.071359
C    -0.451031  -2.253058  2.429571
C    1.004647  -2.526671  2.793030
O    1.447548  -2.159606  3.932021
O    1.771254  -3.038056  1.906862
H    0.094190  -2.065336  0.369391
H    -1.601801  -1.629184  0.693732
H    -0.956670  -3.225686  2.338027
H    -0.946890  -1.716660  3.248345
O    0.925135  0.772812  3.111749
H    0.003762  0.958537  3.378287
H    1.074853  0.042310  -0.577486
Ba    3.779512  -2.108243  3.064602
