20
Energy: -240152.705323 eV PBE+vdW (tier 2 basis)
N    0.905338  -0.808364  0.763067
C    -0.222339  -0.071964  1.394708
C    0.344067  1.101460  2.202124
O    1.515445  1.116773  2.588345
H    1.064801  -0.411009  -0.168109
H    0.606196  -1.770235  0.580896
H    -0.878755  0.343275  0.611247
C    -1.143451  -0.961435  2.279056
C    -0.725114  -1.338929  3.722419
C    0.419183  -2.319586  3.843442
O    1.569275  -2.038206  3.473596
O    0.225392  -3.515617  4.356979
H    -1.382562  -1.866221  1.700050
H    -2.101759  -0.433009  2.376545
H    -1.617756  -1.734456  4.225274
H    -0.431772  -0.441805  4.290650
O    -0.444259  2.101077  2.540052
H    -1.335393  2.055424  2.140853
H    -0.694754  -3.666550  4.649690
Ba    3.300217  -0.670621  2.342117
