20
Energy: -240151.543678 eV PBE+vdW (tier 2 basis)
N    0.971637  0.203571  0.761792
C    0.112643  -0.260593  1.899022
C    0.936769  -0.177070  3.187110
O    1.973766  0.515981  3.239864
H    0.350307  0.565785  0.031264
H    1.386315  -0.633099  0.332092
H    -0.679224  0.499743  2.033365
C    -0.554304  -1.624217  1.683985
C    -1.536446  -1.675066  0.510180
C    -2.556249  -2.793502  0.749343
O    -2.762712  -3.278541  1.840018
O    -3.183100  -3.121046  -0.388236
H    -1.153046  -1.907513  2.569933
H    0.215932  -2.405629  1.581223
H    -1.048532  -1.830391  -0.460950
H    -2.117312  -0.740409  0.431174
O    0.551389  -0.786505  4.271143
H    -0.247810  -1.340222  4.136011
H    -3.852511  -3.807587  -0.187040
Ba    3.115363  1.876575  1.585689
