20
Energy: -240151.764752 eV PBE+vdW (tier 2 basis)
N    -1.307195  1.160528  2.427166
C    -0.527316  -0.038247  2.687804
C    0.589200  0.027092  1.647790
O    1.695147  0.572274  1.927716
H    -1.653036  1.623525  3.262951
H    -2.045986  1.071241  1.735186
H    -0.006762  0.122166  3.640461
C    -1.256722  -1.411700  2.807041
C    -2.570437  -1.640331  2.039475
C    -2.518373  -1.976191  0.578754
O    -1.588919  -1.659101  -0.213608
O    -3.499890  -2.618610  0.009525
H    -1.527794  -1.515320  3.865810
H    -0.551250  -2.232752  2.608824
H    -3.229330  -0.754721  2.122466
H    -3.129446  -2.444598  2.541190
O    0.402095  -0.400075  0.426152
H    -0.732201  -1.093220  0.168268
H    -4.206831  -2.872875  0.635508
Ba    2.687672  0.730251  -0.302754
