20
Energy: -240151.465002 eV PBE+vdW (tier 2 basis)
N    0.014709  0.003022  -0.060791
C    -0.593460  -0.016759  1.253807
C    0.326791  0.653461  2.276675
O    1.360979  0.262929  2.717996
H    0.912504  -0.481222  -0.096102
H    0.116253  0.932530  -0.464573
H    -1.531601  0.558027  1.181055
C    -0.897782  -1.474200  1.642008
C    -1.485982  -1.724706  3.056191
C    -2.772999  -0.994836  3.293560
O    -2.804428  0.252373  3.439821
O    -3.926704  -1.614171  3.327835
H    0.036746  -2.050787  1.593466
H    -1.559583  -1.879057  0.865269
H    -0.773350  -1.393672  3.826914
H    -1.621776  -2.805724  3.191303
O    -0.123863  2.004668  2.638303
H    0.677503  2.414336  3.031204
H    -3.841607  -2.583775  3.224016
Ba    -2.558758  2.647067  3.461878
