20
Energy: -240153.115241 eV PBE+vdW (tier 2 basis)
N    -0.300999  0.904269  0.564590
C    -0.004942  -0.174971  1.592372
C    1.525012  -0.340619  1.584482
O    2.105264  -0.113552  0.470145
H    -1.217897  0.795241  0.110527
H    0.464636  0.824523  -0.141511
H    -0.358855  0.170340  2.570826
C    -0.711647  -1.478701  1.156051
C    -0.541909  -2.684668  2.093284
C    0.720472  -3.505675  1.924071
O    1.632714  -3.225997  1.138560
O    0.864660  -4.587628  2.672254
H    -0.378363  -1.749860  0.142955
H    -1.789754  -1.267146  1.098316
H    -1.394416  -3.365352  1.937375
H    -0.599133  -2.382486  3.152143
O    2.090758  -0.797997  2.609624
H    -0.258609  1.848534  0.971737
H    0.096090  -4.767204  3.249003
Ba    3.856953  -1.956210  1.113338
