20
Energy: -240152.685533 eV PBE+vdW (tier 2 basis)
N    0.561746  -1.087245  -0.003125
C    0.372266  -0.343989  1.302811
C    1.643593  -0.758379  2.119832
O    1.913462  -0.034062  3.147234
H    0.909418  -0.490126  -0.762551
H    -0.273891  -1.581281  -0.337326
H    0.397663  0.733707  1.099473
C    -0.975263  -0.764026  1.930890
C    -1.204092  -0.425014  3.422080
C    -1.108504  1.035140  3.815075
O    -0.236756  1.462769  4.581371
O    -1.978516  1.908534  3.334873
H    -1.069356  -1.858881  1.861708
H    -1.785967  -0.343506  1.316171
H    -0.501074  -0.981623  4.050327
H    -2.211981  -0.782977  3.687474
O    2.269342  -1.731837  1.700745
H    1.337142  -1.776560  0.282922
H    -2.695185  1.494004  2.816686
Ba    2.221831  1.244051  5.104653
