20
Energy: -240152.796924 eV PBE+vdW (tier 2 basis)
N    0.283468  0.355818  0.126929
C    0.162404  0.012945  1.593349
C    1.527096  -0.605356  1.951236
O    2.405757  -0.715771  1.117029
H    0.025617  1.326537  -0.075017
H    1.292204  0.192108  -0.103418
H    0.064692  0.953261  2.153249
C    -1.049366  -0.876337  1.904762
C    -1.036096  -2.320809  1.374558
C    -1.392673  -2.561967  -0.073832
O    -1.871309  -3.699360  -0.397057
O    -1.214985  -1.663661  -0.989586
H    -1.963281  -0.354030  1.585932
H    -1.109814  -0.929572  2.999706
H    -1.733332  -2.928974  1.965930
H    -0.055059  -2.802511  1.535031
O    1.586613  -0.966954  3.226034
H    2.481784  -1.311753  3.431138
H    -0.309280  -0.308450  -0.443935
Ba    -2.208633  -3.328768  -2.773174
