20
Energy: -240152.700733 eV PBE+vdW (tier 2 basis)
N    2.024939  1.239012  0.865011
C    0.766876  0.399279  1.013589
C    -0.314783  1.464657  1.302239
O    -0.012145  2.640908  1.388835
H    2.739213  1.021720  1.569193
H    1.664109  2.226476  1.025939
H    0.552634  -0.053792  0.035277
C    0.872025  -0.676665  2.099586
C    1.828035  -1.823964  1.755163
C    1.768583  -3.001097  2.719037
O    2.678728  -3.897292  2.632004
O    0.818363  -3.101398  3.568310
H    -0.139832  -1.076612  2.245132
H    1.145092  -0.207391  3.058173
H    2.883394  -1.515607  1.702356
H    1.596084  -2.241139  0.760552
O    -1.522485  0.939265  1.419750
H    -2.178554  1.651487  1.578871
H    2.453171  1.175144  -0.065306
Ba    1.669553  -5.322991  4.374290
