20
Energy: -240151.767025 eV PBE+vdW (tier 2 basis)
N    0.134556  -0.552434  -0.226786
C    0.020119  -0.116348  1.137687
C    1.357282  0.430919  1.623202
O    2.406084  0.381867  0.926504
H    -0.767174  -0.652240  -0.687165
H    0.669502  -1.411257  -0.345562
H    -0.646722  0.766013  1.133129
C    -0.546526  -1.140914  2.201548
C    -1.791941  -0.698796  2.980938
C    -1.632750  0.367923  4.025422
O    -0.601689  1.074269  4.209521
O    -2.610166  0.645409  4.841682
H    0.232893  -1.475446  2.901984
H    -0.834694  -2.033684  1.633486
H    -2.234282  -1.572186  3.489254
H    -2.580294  -0.342348  2.292463
O    1.420393  0.981340  2.810554
H    0.255160  0.956604  3.549437
H    -3.399756  0.084807  4.703127
Ba    3.911059  1.720947  2.332299
