20
Energy: -240152.208028 eV PBE+vdW (tier 2 basis)
N    0.840138  -2.032595  0.318590
C    0.354764  -1.205224  1.415454
C    0.836054  -1.853926  2.712445
O    0.228566  -2.793258  3.269812
H    1.841920  -1.977104  0.144193
H    0.543375  -3.006453  0.357696
H    0.832356  -0.216813  1.316041
C    -1.170251  -1.032399  1.301101
C    -1.815986  0.092051  2.123779
C    -2.184419  -0.201686  3.556273
O    -2.238082  -1.347614  4.037241
O    -2.508509  0.793561  4.357340
H    -1.675929  -1.989617  1.495836
H    -1.345617  -0.813846  0.239796
H    -2.769096  0.373283  1.639797
H    -1.209729  1.012157  2.094192
O    1.998848  -1.507312  3.237927
H    2.426480  -0.772490  2.755227
H    -2.474092  1.666940  3.918141
Ba    -1.503165  -3.558809  4.811910
