20
Energy: -240152.045502 eV PBE+vdW (tier 2 basis)
N    0.857318  0.499067  -0.345177
C    0.176574  -0.047023  0.867479
C    0.649828  0.769596  2.089713
O    1.283135  1.793054  1.963976
H    1.778585  0.047537  -0.406696
H    1.108361  1.472009  -0.087165
H    -0.898140  0.193736  0.785468
C    0.350798  -1.579793  0.998132
C    -0.954002  -2.375127  1.099680
C    -1.813200  -2.333351  -0.136372
O    -1.530236  -1.632918  -1.132474
O    -2.916407  -3.039737  -0.204689
H    0.948383  -1.808417  1.888566
H    0.932841  -1.954128  0.143194
H    -1.566599  -2.025296  1.949572
H    -0.735193  -3.432563  1.323883
O    0.224412  0.226225  3.235147
H    0.506922  0.791583  3.985038
H    -3.082105  -3.577784  0.596269
Ba    -0.659229  0.126238  -2.576553
