20
Energy: -240151.444809 eV PBE+vdW (tier 2 basis)
N    -0.731240  -0.654440  0.131086
C    -0.078639  0.026784  1.323107
C    1.426818  0.196313  1.110184
O    2.094503  0.897084  1.820242
H    -0.219175  -1.514890  -0.115198
H    -0.735685  -0.057992  -0.706833
H    -0.531054  1.023464  1.397433
C    -0.378059  -0.782799  2.606849
C    -1.840164  -0.967507  2.906465
C    -2.490935  -0.130934  3.751977
O    -2.059529  0.953055  4.330736
O    -3.824366  -0.372366  4.182444
H    0.121277  -0.234205  3.416670
H    0.123231  -1.760871  2.537194
H    -2.341551  -1.882626  2.588936
H    -1.705969  -0.892547  0.379361
O    1.866287  -0.568760  0.079594
H    2.837523  -0.464705  -0.003569
H    -4.174369  -1.218328  3.853056
Ba    -3.589470  1.660469  5.957109
