20
Energy: -240152.617336 eV PBE+vdW (tier 2 basis)
N    0.739748  -0.623060  0.666569
C    -0.225930  0.098452  1.533227
C    0.556003  0.998446  2.501719
O    1.768231  0.868760  2.687669
H    0.944588  -0.032805  -0.145910
H    0.279809  -1.445708  0.267316
H    -0.845535  0.783150  0.926789
C    -1.246111  -0.835242  2.252011
C    -0.790621  -2.217502  2.788451
C    0.323152  -2.193488  3.808308
O    1.510262  -2.092641  3.464333
O    0.065263  -2.264461  5.097330
H    -2.048547  -1.046384  1.532444
H    -1.724347  -0.269262  3.064107
H    -0.447691  -2.859618  1.965850
H    -1.683569  -2.706151  3.202820
O    -0.079835  1.946902  3.158414
H    -1.017401  2.049846  2.901467
H    -0.882719  -2.395606  5.295615
Ba    3.281966  -1.049271  2.083120
