20
Energy: -240151.165594 eV PBE+vdW (tier 2 basis)
N    1.305620  -1.158837  -0.012629
C    0.857765  -0.065971  0.836881
C    1.929515  0.213178  1.898139
O    2.917219  -0.472410  2.046518
H    1.141478  -0.993075  -1.003416
H    2.297625  -1.352191  0.147606
H    0.693426  0.870815  0.283491
C    -0.492103  -0.464064  1.513607
C    -0.335308  -1.901826  2.020831
C    -1.525742  -2.714460  2.241866
O    -1.540578  -3.715856  3.036154
O    -2.654343  -2.513290  1.593306
H    -1.263153  -0.399566  0.725120
H    -0.770009  0.242566  2.304548
H    0.324763  -1.985499  2.893543
H    0.251325  -2.369900  1.160162
O    1.615313  1.293275  2.636676
H    2.345880  1.454132  3.268142
H    -2.592080  -1.717613  1.022941
Ba    -2.106919  -5.624430  4.232753
