20
Energy: -240151.152818 eV PBE+vdW (tier 2 basis)
N    -0.128254  0.552355  0.352998
C    0.022359  0.042259  1.692892
C    1.409381  -0.574664  1.812533
O    2.325495  -0.418744  1.061734
H    -0.668543  1.412987  0.311767
H    0.767171  0.687840  -0.115159
H    0.004697  0.829731  2.479409
C    -1.160287  -0.930115  1.980294
C    -1.505111  -1.188319  3.485338
C    -1.260570  -2.593372  3.912282
O    -2.200043  -3.344433  4.347120
O    -0.080850  -3.118172  3.842323
H    -1.006174  -1.865275  1.423807
H    -2.039249  -0.462543  1.522675
H    -2.550270  -0.941162  3.693762
H    -0.884068  -0.533725  4.121767
O    1.576798  -1.354367  2.979153
H    2.525246  -1.603052  2.996487
H    0.609523  -2.436554  3.488013
Ba    -3.338689  -5.176971  5.223932
