30
Energy: -19628.5202567 eV PBE+vdW (tier 2 basis)
C    0.153998  0.382583  0.647865
C    0.388320  -0.377160  1.939877
O    1.509829  -0.656606  2.343917
H    1.128424  0.691630  0.261182
H    -0.469890  1.273766  0.797930
H    -0.340523  -0.242720  -0.110003
N    -0.724597  -0.743248  2.678406
C    -2.106643  -0.803280  2.242474
C    -3.018087  -0.444361  3.449829
O    -3.522416  -1.338212  4.124978
H    -0.494893  -1.208404  3.555777
H    -2.242738  -0.076323  1.432335
C    -2.524830  -2.222951  1.757264
C    -1.584351  -2.828773  0.781412
N    -1.874499  -2.989814  -0.568815
C    -0.299447  -3.298552  0.928346
C    -0.835013  -3.527329  -1.221380
N    0.129452  -3.712952  -0.315261
H    -3.538284  -2.177657  1.333896
H    -2.607638  -2.853533  2.654364
H    -2.762694  -2.757572  -1.004891
H    0.338821  -3.350776  1.800554
H    -0.789599  -3.774597  -2.274211
H    1.044888  -4.104228  -0.520500
N    -3.180250  0.873554  3.723204
C    -2.560283  2.013602  3.062190
H    -3.728764  1.048438  4.560702
H    -2.951035  2.927822  3.518521
H    -2.811489  2.051856  1.992695
H    -1.467352  2.014835  3.178890
