30
Energy: -19628.9351145 eV PBE+vdW (tier 2 basis)
C    -0.400202  -0.681719  -0.209114
C    -0.286300  0.233131  0.994204
O    0.459142  1.197694  1.028395
H    0.331124  -0.348049  -0.949427
H    -1.399800  -0.635119  -0.665121
H    -0.194495  -1.731655  0.042739
N    -1.086924  -0.050421  2.095331
C    -2.004601  -1.153506  2.281716
C    -3.301059  -0.649220  2.964963
O    -3.724285  -1.151766  4.029857
H    -0.917537  0.571949  2.883156
H    -2.286498  -1.534033  1.287760
C    -1.307380  -2.298991  3.074251
C    -2.041288  -3.590328  3.210720
N    -3.249215  -3.668997  3.879007
C    -1.732487  -4.872443  2.828139
C    -3.678454  -4.927259  3.911721
N    -2.761906  -5.677109  3.277924
H    -1.060892  -1.921224  4.078105
H    -0.353278  -2.496513  2.571010
H    -3.681890  -2.749318  4.186425
H    -0.876437  -5.272931  2.301465
H    -4.595569  -5.287557  4.360155
H    -2.822423  -6.683545  3.157377
N    -3.965752  0.368449  2.392683
C    -3.694818  1.084115  1.148915
H    -4.778479  0.661265  2.930316
H    -4.619747  1.580313  0.838947
H    -3.403803  0.393041  0.349677
H    -2.909266  1.840076  1.270503
