30
Energy: -19628.8553692 eV PBE+vdW (tier 2 basis)
C    -1.262984  -0.715160  -0.345473
C    -0.542700  -0.583666  0.965973
O    0.689953  -0.465819  1.037096
H    -2.329734  -0.477617  -0.280227
H    -0.777835  -0.047551  -1.066788
H    -1.145537  -1.736761  -0.735207
N    -1.289118  -0.600091  2.132088
C    -2.251283  -1.673762  2.412536
C    -2.926106  -1.377530  3.770766
O    -2.552327  -1.966095  4.785803
H    -0.714767  -0.363800  2.942403
H    -3.004228  -1.692204  1.612244
C    -1.552860  -3.063744  2.431400
C    -0.297141  -3.157395  3.237109
N    0.872268  -2.453277  2.956910
C    -0.012544  -3.932279  4.331679
C    1.820031  -2.774364  3.840549
N    1.296278  -3.678349  4.679671
H    -2.256515  -3.813314  2.812505
H    -1.326679  -3.341237  1.390211
H    0.984994  -1.713418  2.214838
H    -0.642486  -4.608029  4.893778
H    2.826205  -2.376528  3.873686
H    1.794647  -4.101654  5.456345
N    -3.898728  -0.435830  3.774965
C    -4.436117  0.304681  2.639156
H    -4.302602  -0.268004  4.692399
H    -5.110777  1.076522  3.021003
H    -5.015807  -0.340264  1.962447
H    -3.639534  0.805531  2.074262
