30
Energy: -19628.7532527 eV PBE+vdW (tier 2 basis)
C    -0.422740  -1.216218  1.619293
C    -0.717874  0.217834  1.927863
O    0.156607  1.009316  2.323330
H    -0.413324  -1.383090  0.531356
H    -1.185815  -1.884376  2.035441
H    0.564713  -1.463708  2.017904
N    -2.014463  0.696585  1.783566
C    -2.791248  0.584297  0.538475
C    -3.172587  -0.878819  0.181423
O    -2.670200  -1.432162  -0.793151
H    -2.097190  1.617609  2.212475
H    -3.718912  1.146521  0.718563
C    -2.033440  1.204955  -0.663270
C    -1.480812  2.575201  -0.445334
N    -0.532977  2.911578  0.521793
C    -1.708777  3.727376  -1.157404
C    -0.201179  4.197520  0.404634
N    -0.906134  4.709189  -0.613465
H    -2.703958  1.239273  -1.531066
H    -1.227857  0.512151  -0.950352
H    -0.151302  2.263141  1.275464
H    -2.354661  3.915055  -2.005011
H    0.507690  4.733674  1.023318
H    -0.846209  5.671212  -0.932765
N    -4.065779  -1.488835  0.999177
C    -4.796003  -0.920465  2.126052
H    -4.300627  -2.432989  0.705089
H    -5.512041  -0.147411  1.809038
H    -4.114231  -0.498166  2.874288
H    -5.365051  -1.722988  2.604487
