30
Energy: -19628.6320678 eV PBE+vdW (tier 2 basis)
C    -0.260424  0.087243  0.272204
C    -0.477151  0.529567  1.698976
O    0.297475  1.284852  2.276227
H    0.185325  0.912425  -0.292125
H    -1.153944  -0.284096  -0.240513
H    0.471547  -0.733558  0.284659
N    -1.563233  0.005234  2.405334
C    -2.898064  -0.251337  1.871672
C    -3.043955  -1.540089  1.013475
O    -3.926216  -1.609183  0.161664
H    -1.537930  0.324272  3.371865
H    -3.534385  -0.431563  2.752469
C    -3.501346  0.943760  1.084214
C    -3.593700  2.194661  1.886490
N    -4.803874  2.792275  2.216859
C    -2.628711  2.997724  2.452236
C    -4.607455  3.902694  2.938960
N    -3.285585  4.032506  3.087598
H    -4.487726  0.637363  0.713165
H    -2.894759  1.134635  0.188204
H    -5.717417  2.446726  1.934083
H    -1.546116  2.910487  2.451379
H    -5.370081  4.567569  3.323841
H    -2.836060  4.790804  3.593495
N    -2.186101  -2.531642  1.338120
C    -2.204620  -3.837355  0.697110
H    -1.483595  -2.329339  2.042089
H    -3.040059  -3.855962  -0.009273
H    -2.343827  -4.631295  1.441556
H    -1.269231  -4.019381  0.151695
