30
Energy: -19629.4278589 eV PBE+vdW (tier 2 basis)
C    0.222853  -0.426032  0.124135
C    -0.014115  -0.618122  1.601446
O    0.713893  -1.282163  2.323520
H    0.382373  -1.407028  -0.338468
H    1.148970  0.147725  -0.012105
H    -0.594892  0.089813  -0.392966
N    -1.155831  0.004616  2.114090
C    -1.368994  0.025196  3.547046
C    -2.763253  -0.498241  3.948851
O    -3.230583  -0.321399  5.099145
H    -1.610494  0.710707  1.542015
H    -0.638272  -0.712178  3.929201
C    -1.023513  1.416528  4.155568
C    -0.657904  1.402166  5.603373
N    -1.466703  0.792347  6.541485
C    0.413134  1.921216  6.286750
C    -0.931451  0.918051  7.751532
N    0.213837  1.609320  7.617623
H    -1.860692  2.114389  3.995135
H    -0.165925  1.810032  3.597032
H    -2.337785  0.265592  6.150236
H    1.278838  2.473984  5.947111
H    -1.333534  0.533227  8.680008
H    0.835104  1.854619  8.382129
N    -3.423404  -1.183967  3.012387
C    -4.706810  -1.836988  3.229062
H    -2.947459  -1.296933  2.121069
H    -5.396861  -1.581695  2.416652
H    -5.119592  -1.490845  4.180384
H    -4.583696  -2.927310  3.265835
