30
Energy: -19628.8902149 eV PBE+vdW (tier 2 basis)
C    0.050903  -0.201221  0.412684
C    -0.114932  -0.102008  1.913950
O    0.837285  -0.006025  2.671573
H    0.174716  -1.257807  0.134192
H    0.974333  0.320342  0.144944
H    -0.779733  0.202060  -0.177301
N    -1.395073  -0.175292  2.458595
C    -2.694468  -0.241871  1.815692
C    -2.790909  -1.358267  0.744882
O    -3.256011  -1.139292  -0.396049
H    -1.378195  -0.107842  3.472859
H    -3.407285  -0.532999  2.605640
C    -3.123598  1.162435  1.290535
C    -4.550323  1.339891  0.894154
N    -5.116553  0.605315  -0.131197
C    -5.526452  2.201024  1.331632
C    -6.378020  0.979143  -0.325285
N    -6.644025  1.956573  0.556768
H    -2.481393  1.435663  0.440615
H    -2.898913  1.875969  2.092174
H    -4.519950  -0.171545  -0.543705
H    -5.513593  2.961837  2.100811
H    -7.069319  0.573644  -1.053067
H    -7.533840  2.439931  0.632373
N    -2.377888  -2.593837  1.071681
C    -1.856422  -3.113081  2.333558
H    -2.468789  -3.253143  0.302044
H    -0.790234  -2.888959  2.463972
H    -1.990597  -4.199447  2.328551
H    -2.410698  -2.711461  3.189204
