30
Energy: -19629.4383326 eV PBE+vdW (tier 2 basis)
C    0.776941  0.182119  0.050829
C    0.067229  0.779993  1.242262
O    0.347891  1.880822  1.709914
H    0.602810  0.826704  -0.820553
H    1.856620  0.186171  0.241504
H    0.457878  -0.837584  -0.193752
N    -0.958541  0.027819  1.773880
C    -1.724183  0.459233  2.935680
C    -2.269965  1.906783  2.775320
O    -2.202329  2.745009  3.692501
H    -1.124509  -0.903577  1.409790
H    -2.617042  -0.184620  2.961960
C    -1.018585  0.221914  4.299108
C    0.212664  1.016632  4.570851
N    0.175040  2.393616  4.664103
C    1.518150  0.652327  4.777608
C    1.393767  2.872890  4.881850
N    2.227446  1.823571  4.965994
H    -0.766634  -0.843904  4.363343
H    -1.755533  0.420911  5.091290
H    -0.730434  2.871486  4.408505
H    1.991632  -0.319573  4.807283
H    1.672117  3.914588  4.974039
H    3.223370  1.891207  5.147360
N    -2.909898  2.145040  1.621113
C    -3.484853  3.438598  1.277368
H    -2.881566  1.425310  0.906849
H    -4.408283  3.288030  0.708064
H    -3.711677  3.978195  2.201069
H    -2.783523  4.036290  0.678866
