30
Energy: -19628.683992 eV PBE+vdW (tier 2 basis)
C    0.109264  -0.367711  -0.108067
C    -0.055002  -0.047253  1.363646
O    0.895358  0.086853  2.122448
H    -0.147206  -1.417630  -0.315345
H    1.160505  -0.217919  -0.367848
H    -0.518500  0.262430  -0.751285
N    -1.351383  0.124703  1.841472
C    -2.560106  -0.449651  1.285002
C    -3.771945  0.518576  1.177794
O    -4.894759  0.053548  0.997653
H    -1.359096  0.326233  2.841580
H    -2.342351  -0.742841  0.248206
C    -3.022214  -1.708335  2.069113
C    -2.073138  -2.843787  1.939093
N    -2.308273  -3.938469  1.115855
C    -0.825176  -3.058317  2.475367
C    -1.272010  -4.786213  1.141948
N    -0.363282  -4.255067  1.965979
H    -4.023901  -1.976442  1.706018
H    -3.135594  -1.446182  3.130808
H    -3.160039  -4.089076  0.580733
H    -0.232986  -2.453537  3.150847
H    -1.190038  -5.724651  0.608446
H    0.533983  -4.680377  2.183405
N    -3.465895  1.830845  1.258461
C    -4.457538  2.885628  1.109759
H    -2.489756  2.076281  1.389998
H    -4.275821  3.468184  0.197080
H    -4.433431  3.559498  1.974925
H    -5.443832  2.416453  1.043234
