30
Energy: -19628.6930219 eV PBE+vdW (tier 2 basis)
C    -0.028463  -1.471362  0.954473
C    -0.513256  -0.153430  0.430120
O    -0.230781  0.240378  -0.713672
H    1.019493  -1.577756  0.648341
H    -0.592002  -2.286597  0.481833
H    -0.102914  -1.563115  2.041305
N    -1.242294  0.702593  1.244880
C    -2.518578  0.426187  1.926980
C    -2.788979  -1.081052  2.101131
O    -3.186073  -1.747140  1.142964
H    -1.239875  1.636030  0.830394
H    -2.510996  0.931880  2.902302
C    -3.671816  1.066269  1.106409
C    -3.884336  0.564327  -0.287564
N    -2.908813  0.468657  -1.273822
C    -5.058396  0.180845  -0.883607
C    -3.451127  0.014824  -2.404808
N    -4.760589  -0.156314  -2.187311
H    -4.614208  0.935019  1.654988
H    -3.488941  2.153106  1.075565
H    -1.867456  0.582015  -1.155133
H    -6.059935  0.104285  -0.482767
H    -2.923964  -0.181901  -3.329643
H    -5.423329  -0.488230  -2.880661
N    -2.599131  -1.605669  3.334333
C    -2.069140  -0.950928  4.526845
H    -2.833973  -2.592924  3.397366
H    -1.802241  -1.725545  5.252306
H    -2.806848  -0.286886  4.999193
H    -1.158487  -0.381016  4.302469
