30
Energy: -19629.1772091 eV PBE+vdW (tier 2 basis)
C    0.595933  0.012949  0.100706
C    0.299212  -0.018557  1.579954
O    1.178063  -0.302688  2.412369
H    1.511896  0.589683  -0.071831
H    -0.215893  0.424788  -0.509411
H    0.797777  -1.015286  -0.229317
N    -0.977892  0.297384  1.934636
C    -1.624744  0.105379  3.243034
C    -2.958516  0.893273  3.202507
O    -3.024327  2.053484  3.599807
H    -1.612473  0.514925  1.172489
H    -1.836846  -0.970539  3.371455
C    -0.807791  0.522337  4.490107
C    -0.074015  1.818868  4.429917
N    1.194910  1.893955  3.883817
C    -0.365113  3.077903  4.888189
C    1.671325  3.133919  3.984055
N    0.730993  3.866129  4.602633
H    -0.083356  -0.270421  4.710319
H    -1.513250  0.562753  5.329221
H    1.583292  1.071534  3.368374
H    -1.257410  3.465479  5.359698
H    2.632804  3.489230  3.637128
H    0.822207  4.852602  4.823897
N    -3.997030  0.207678  2.659686
C    -5.330300  0.777375  2.512100
H    -3.872243  -0.777956  2.455292
H    -5.253801  1.860156  2.647874
H    -6.018858  0.373515  3.266341
H    -5.725551  0.560149  1.512954
