30
Energy: -19628.9236881 eV PBE+vdW (tier 2 basis)
C    -0.110811  0.202297  -0.835672
C    0.183249  -0.126306  0.599193
O    1.239203  -0.689585  0.940200
H    0.043851  -0.682099  -1.465257
H    0.625128  0.952472  -1.159015
H    -1.111569  0.615784  -0.996304
N    -0.733514  0.222368  1.563742
C    -2.139598  -0.150831  1.512456
C    -2.714777  0.190453  2.902535
O    -1.990110  0.065480  3.891929
H    -0.387586  0.137642  2.526176
H    -2.664180  0.376778  0.706791
C    -2.285370  -1.695068  1.272389
C    -1.531776  -2.531790  2.256296
N    -0.148775  -2.503954  2.417193
C    -1.999936  -3.434344  3.176605
C    0.207649  -3.337116  3.393023
N    -0.905668  -3.915956  3.863516
H    -1.938897  -1.915563  0.251469
H    -3.343757  -1.984650  1.312228
H    0.529494  -1.869837  1.897687
H    -3.007496  -3.761764  3.395025
H    1.216264  -3.514131  3.744777
H    -0.929034  -4.600307  4.612911
N    -4.018979  0.539930  2.978419
C    -4.937996  0.827373  1.881397
H    -4.333152  0.735503  3.925234
H    -5.917487  1.058597  2.310215
H    -5.068473  -0.036533  1.215933
H    -4.617427  1.695815  1.289201
