30
Energy: -19629.0131589 eV PBE+vdW (tier 2 basis)
C    -0.140006  -0.809872  -0.147826
C    -0.068177  -0.276973  1.260604
O    0.988877  -0.181488  1.888300
H    0.250936  -1.834978  -0.159428
H    0.519282  -0.206242  -0.783895
H    -1.150432  -0.804079  -0.572596
N    -1.260659  0.115881  1.823677
C    -1.304130  0.634717  3.182937
C    -1.396829  -0.499715  4.244530
O    -2.433566  -0.684395  4.892131
H    -2.129616  -0.144865  1.368770
H    -0.348639  1.162657  3.326776
C    -2.488207  1.608394  3.332987
C    -2.460572  2.384006  4.605606
N    -2.015091  3.697886  4.686761
C    -2.810034  2.039195  5.888434
C    -2.088107  4.147786  5.946148
N    -2.571504  3.141749  6.682681
H    -3.425332  1.035339  3.306400
H    -2.487596  2.300271  2.479080
H    -1.685629  4.253265  3.901965
H    -3.175309  1.092079  6.264370
H    -1.813072  5.133843  6.297549
H    -2.735605  3.191663  7.684130
N    -0.261710  -1.216463  4.359920
C    -0.138706  -2.384746  5.217238
H    0.498296  -0.978462  3.716298
H    -1.051465  -2.475689  5.813498
H    0.724584  -2.279449  5.886185
H    -0.011366  -3.296886  4.618987
