30
Energy: -19627.8567226 eV PBE+vdW (tier 2 basis)
C    -0.419240  -0.847195  -0.276575
C    0.075858  -0.623933  1.134940
O    1.160317  -1.034146  1.513983
H    0.402216  -1.280933  -0.852428
H    -0.734447  0.084413  -0.765652
H    -1.259815  -1.554092  -0.282335
N    -0.720864  0.081557  2.034080
C    -2.097902  0.555610  1.979163
C    -3.135928  -0.610317  1.896884
O    -3.325985  -1.234146  2.936954
H    -0.320668  0.036878  2.967643
H    -2.281259  0.905040  3.004637
C    -2.264468  1.805374  1.085162
C    -3.554602  2.513019  1.328126
N    -3.880767  3.716817  0.712923
C    -4.619929  2.227785  2.147989
C    -5.076095  4.154996  1.127801
N    -5.533880  3.253717  2.000171
H    -2.161288  1.577908  0.015982
H    -1.433136  2.484349  1.333647
H    -3.291792  4.211046  0.047553
H    -4.798802  1.391784  2.813098
H    -5.573490  5.065743  0.818471
H    -6.424723  3.323497  2.484803
N    -3.812095  -0.952773  0.756563
C    -3.914858  -0.347919  -0.563527
H    -4.415780  -1.752919  0.931594
H    -2.937348  -0.191477  -1.031444
H    -4.467766  -1.040281  -1.206248
H    -4.471318  0.603014  -0.552753
