30
Energy: -19629.0923064 eV PBE+vdW (tier 2 basis)
C    0.646531  -0.361055  -0.117986
C    0.432637  -0.058058  1.339086
O    1.363547  0.399890  2.033110
H    1.041364  0.533140  -0.615010
H    -0.260240  -0.693686  -0.634847
H    1.412422  -1.143210  -0.202300
N    -0.802353  -0.308180  1.840725
C    -1.150073  -0.258715  3.263089
C    -2.387914  -1.140378  3.547736
O    -2.296632  -2.036571  4.375243
H    -1.462626  -0.770531  1.223907
H    -0.353693  -0.765347  3.822972
C    -1.323970  1.190085  3.839924
C    -0.212498  1.603135  4.743769
N    1.110032  1.488880  4.357938
C    -0.205877  2.121237  6.014394
C    1.903749  1.914395  5.336195
N    1.119724  2.308625  6.353539
H    -2.261978  1.260378  4.404535
H    -1.407369  1.900733  3.004909
H    1.351372  1.042746  3.399894
H    -1.014841  2.364239  6.690353
H    2.986080  1.937882  5.324036
H    1.458461  2.678980  7.235946
N    -3.535040  -0.913464  2.834806
C    -3.957746  0.280926  2.110544
H    -4.275656  -1.556921  3.107239
H    -4.461784  1.006806  2.766922
H    -4.656330  -0.008037  1.317097
H    -3.107969  0.781419  1.634514
