30
Energy: -19628.9147602 eV PBE+vdW (tier 2 basis)
C    0.062417  -1.423738  0.703233
C    -0.369479  -0.417144  1.748021
O    0.357925  0.500668  2.096258
H    0.874850  -0.976037  0.124551
H    -0.730109  -1.760727  0.029024
H    0.459207  -2.316036  1.208707
N    -1.581814  -0.596111  2.411859
C    -2.801411  -1.297549  2.038751
C    -2.583037  -2.740223  1.533415
O    -2.942026  -3.112806  0.395056
H    -1.698076  0.117317  3.129530
H    -3.367499  -1.418676  2.977688
C    -3.741987  -0.460092  1.123543
C    -3.211661  -0.098247  -0.220263
N    -2.978629  -1.065789  -1.180963
C    -2.880655  1.102184  -0.795497
C    -2.515367  -0.505086  -2.294944
N    -2.456918  0.819359  -2.079649
H    -3.976053  0.467435  1.660858
H    -4.691207  -1.003804  1.003833
H    -3.031745  -2.074337  -0.857433
H    -2.914502  2.111821  -0.408203
H    -2.232976  -1.014146  -3.207679
H    -2.150040  1.503125  -2.764848
N    -2.026955  -3.614102  2.388134
C    -1.587724  -3.399873  3.763182
H    -1.915644  -4.546372  1.996377
H    -1.469836  -4.377801  4.239079
H    -2.334294  -2.836356  4.336337
H    -0.631333  -2.863633  3.807846
