30
Energy: -19629.4072736 eV PBE+vdW (tier 2 basis)
C    -0.382439  -0.743328  -0.225423
C    -0.178533  -0.307826  1.201745
O    0.933691  -0.415208  1.745260
H    0.364363  -0.244582  -0.855547
H    -0.191035  -1.821912  -0.295352
H    -1.383922  -0.532432  -0.616330
N    -1.265468  0.217488  1.834378
C    -1.343210  0.700320  3.216927
C    -0.449286  1.930864  3.540430
O    -0.120606  2.140588  4.705239
H    -2.134604  0.206057  1.312023
H    -2.367884  1.090266  3.300151
C    -1.236379  -0.407152  4.311059
C    0.079593  -0.598096  4.990100
N    1.276080  -0.699675  4.311484
C    0.377968  -0.737835  6.321838
C    2.277356  -0.871509  5.172315
N    1.745062  -0.903737  6.403831
H    -1.561776  -1.354112  3.854985
H    -1.964208  -0.179584  5.098126
H    1.305980  -0.579913  3.254635
H    -0.253563  -0.704358  7.199001
H    3.327138  -0.970996  4.929514
H    2.276239  -1.022847  7.260145
N    -0.159692  2.740025  2.497837
C    0.596440  3.975149  2.642258
H    -0.467400  2.462403  1.573312
H    0.777685  4.137890  3.708786
H    1.559411  3.909179  2.118864
H    0.027828  4.823023  2.240614
