30
Energy: -19629.5027155 eV PBE+vdW (tier 2 basis)
C    -1.570490  1.788075  -0.336176
C    -1.128445  1.408490  1.047490
O    0.038201  1.678628  1.432514
H    -2.610514  1.519211  -0.547437
H    -0.915316  1.285916  -1.060028
H    -1.434442  2.867760  -0.473837
N    -2.025008  0.776338  1.823423
C    -1.788965  0.138790  3.107439
C    -2.891593  -0.955298  3.197004
O    -3.917059  -0.836824  2.529750
H    -2.957199  0.545719  1.460465
H    -0.792994  -0.331101  3.101921
C    -1.917626  1.104708  4.327182
C    -0.642073  1.741842  4.776943
N    0.361690  2.116039  3.903838
C    -0.221560  2.095706  6.036611
C    1.355147  2.680128  4.584129
N    1.019158  2.680806  5.885575
H    -2.340803  0.560629  5.181828
H    -2.654571  1.877963  4.062921
H    0.292275  1.918303  2.802468
H    -0.695786  1.990823  7.003528
H    2.277902  3.066514  4.169727
H    1.595290  3.051326  6.634728
N    -2.641199  -1.965827  4.057178
C    -3.579117  -3.057805  4.292905
H    -1.727701  -2.016262  4.494422
H    -3.770330  -3.172283  5.366715
H    -4.515293  -2.816339  3.781746
H    -3.187580  -4.001974  3.893027
