30
Energy: -19629.3936582 eV PBE+vdW (tier 2 basis)
C    0.008887  -0.044762  0.090385
C    0.021434  -0.054481  1.593922
O    1.096691  -0.070186  2.226261
H    0.565623  -0.919229  -0.269933
H    0.543947  0.844781  -0.265171
H    -0.997959  -0.057093  -0.341405
N    -1.184000  -0.063840  2.219344
C    -1.360519  -0.109820  3.668600
C    -2.724575  -0.770987  4.041527
O    -3.402027  -0.332933  4.962939
H    -2.016314  0.042613  1.647042
H    -0.582272  -0.786568  4.057359
C    -1.238680  1.267777  4.367974
C    0.051775  1.487281  5.079479
N    1.274056  1.125943  4.537777
C    0.324607  2.052348  6.300441
C    2.256716  1.450205  5.375339
N    1.696605  2.020737  6.453917
H    -2.064707  1.337098  5.089867
H    -1.392507  2.061696  3.622205
H    1.332198  0.614341  3.593228
H    -0.333049  2.463930  7.054463
H    3.315157  1.281428  5.223327
H    2.210555  2.365974  7.258356
N    -3.059355  -1.850504  3.291880
C    -4.252607  -2.644239  3.560892
H    -2.383680  -2.209210  2.626169
H    -4.028384  -3.496652  4.217165
H    -4.668858  -3.015180  2.617990
H    -4.988358  -2.005917  4.058952
