30
Energy: -19629.3103333 eV PBE+vdW (tier 2 basis)
C    0.069354  -1.067499  -0.211885
C    0.071880  -0.764139  1.264457
O    0.917522  -1.306894  1.997839
H    0.972393  -0.625060  -0.653571
H    0.136260  -2.152459  -0.350840
H    -0.808312  -0.685600  -0.745073
N    -0.901380  0.088611  1.684082
C    -1.153803  0.714725  2.984671
C    -0.224236  1.938452  3.193547
O    0.978687  1.857885  2.968554
H    -1.482248  0.453474  0.937539
H    -2.195164  1.057215  2.910132
C    -1.117995  -0.239989  4.222144
C    0.158282  -0.288270  4.996115
N    1.332206  -0.755595  4.446108
C    0.448559  0.085019  6.284312
C    2.312452  -0.671141  5.334481
N    1.793976  -0.166437  6.468704
H    -1.399959  -1.250225  3.892398
H    -1.903850  0.089624  4.912543
H    1.325672  -1.019380  3.392623
H    -0.174992  0.492329  7.068880
H    3.347196  -0.949939  5.181726
H    2.316369  -0.005313  7.323417
N    -0.847541  3.043885  3.677873
C    -0.140998  4.284994  3.964143
H    -1.857952  3.039174  3.759001
H    -0.437244  5.076929  3.263943
H    -0.346501  4.618842  4.988764
H    0.930371  4.094781  3.849373
