30
Energy: -19629.5033071 eV PBE+vdW (tier 2 basis)
C    -0.627334  0.749469  -0.530113
C    -0.274260  0.376903  0.880758
O    0.921737  0.432495  1.266434
H    -0.278423  1.769899  -0.730701
H    -1.699397  0.680009  -0.740934
H    -0.082963  0.083023  -1.211952
N    -1.281587  -0.013603  1.679644
C    -1.182465  -0.601635  3.004433
C    -2.484535  -1.441549  3.146017
O    -3.462270  -1.163464  2.454990
H    -2.240041  -0.075593  1.317046
H    -0.302796  -1.263049  3.043530
C    -1.114525  0.446965  4.159199
C    0.262959  0.836564  4.590123
N    1.323899  0.946263  3.711378
C    0.743901  1.171530  5.833181
C    2.409968  1.335774  4.372172
N    2.078230  1.481970  5.666498
H    -1.644091  0.057821  5.038732
H    -1.675404  1.336208  3.834390
H    1.217614  0.700328  2.622794
H    0.255967  1.223025  6.797596
H    3.393010  1.501218  3.949386
H    2.716004  1.771573  6.401207
N    -2.447674  -2.421048  4.074988
C    -3.588680  -3.281751  4.366359
H    -1.564720  -2.626121  4.529470
H    -3.798881  -3.285996  5.442683
H    -3.398401  -4.309513  4.031377
H    -4.455979  -2.887815  3.829112
