30
Energy: -19629.2732569 eV PBE+vdW (tier 2 basis)
C    1.339423  -0.033783  1.069998
C    0.030096  -0.077202  1.819552
O    -0.387901  0.848931  2.502518
H    2.146090  0.178061  1.782441
H    1.311053  0.801845  0.359707
H    1.572473  -0.958036  0.528045
N    -0.696782  -1.251982  1.693576
C    -1.968148  -1.398782  2.376054
C    -1.981954  -2.715501  3.167631
O    -2.559923  -3.753887  2.757435
H    -0.328605  -2.012177  1.133390
H    -1.981888  -0.559294  3.088137
C    -3.200926  -1.162290  1.466568
C    -3.325846  -2.022398  0.254440
N    -3.283123  -3.400657  0.349354
C    -3.543962  -1.729091  -1.068593
C    -3.464690  -3.944657  -0.850116
N    -3.630462  -2.940230  -1.728401
H    -4.109332  -1.272070  2.080010
H    -3.163477  -0.113005  1.148307
H    -3.042173  -3.801038  1.333395
H    -3.655198  -0.782933  -1.581384
H    -3.476731  -5.000992  -1.086866
H    -3.797932  -3.062124  -2.722257
N    -1.326872  -2.741456  4.337087
C    -0.523042  -1.698409  4.966131
H    -1.331544  -3.657586  4.781384
H    0.514044  -1.722006  4.604089
H    -0.524598  -1.863566  6.048011
H    -0.933068  -0.702681  4.770356
