30
Energy: -19629.2220183 eV PBE+vdW (tier 2 basis)
C    -0.860744  1.029674  -0.528412
C    -0.768055  1.118896  0.970340
O    -0.038257  1.976101  1.506406
H    -1.157076  2.008274  -0.925341
H    -1.564610  0.268183  -0.881518
H    0.137448  0.807993  -0.927704
N    -1.511537  0.231644  1.680366
C    -1.433453  0.028063  3.129246
C    -2.097369  -1.302765  3.543169
O    -1.572205  -1.995884  4.402380
H    -1.959470  -0.509024  1.149098
H    -0.380838  -0.095133  3.417559
C    -2.064512  1.194056  3.971118
C    -1.062202  2.040212  4.677925
N    -0.017085  2.640694  4.001754
C    -0.922472  2.385420  5.998532
C    0.738145  3.327557  4.853926
N    0.198924  3.187733  6.076534
H    -2.741104  0.775546  4.726135
H    -2.679622  1.817121  3.305307
H    0.102028  2.452702  2.945958
H    -1.511988  2.129340  6.868755
H    1.628054  3.895602  4.614295
H    0.569612  3.606001  6.923982
N    -3.270426  -1.610472  2.917703
C    -4.031370  -2.805515  3.270308
H    -3.746078  -0.893450  2.379424
H    -4.711523  -2.620217  4.113523
H    -4.611585  -3.136758  2.402833
H    -3.328232  -3.591617  3.561192
