30
Energy: -19628.8648944 eV PBE+vdW (tier 2 basis)
C    0.244407  0.180951  0.300409
C    -0.000881  0.592268  1.721059
O    0.738298  1.388045  2.321091
H    0.475031  -0.892102  0.256326
H    1.083088  0.756012  -0.099377
H    -0.640091  0.333996  -0.333712
N    -1.086998  0.049746  2.404342
C    -2.464222  0.148088  1.893379
C    -2.785644  -0.823626  0.725195
O    -3.502724  -0.459856  -0.201138
H    -1.015700  0.267395  3.397794
H    -3.110493  -0.158373  2.729869
C    -2.835175  1.596093  1.483117
C    -2.618939  2.626115  2.542284
N    -1.380589  2.945047  3.100764
C    -3.520020  3.479100  3.129975
C    -1.518688  3.938928  3.979186
N    -2.814835  4.276209  4.008540
H    -3.887808  1.614042  1.178845
H    -2.267727  1.871621  0.580893
H    -0.466092  2.458161  2.890201
H    -4.586268  3.587450  2.980633
H    -0.727541  4.390443  4.564752
H    -3.207285  5.012904  4.586940
N    -2.251548  -2.059033  0.864793
C    -2.480764  -3.133262  -0.090100
H    -1.644697  -2.224801  1.660849
H    -2.942458  -3.997828  0.403198
H    -1.539432  -3.449941  -0.558310
H    -3.157157  -2.758269  -0.864061
