30
Energy: -19628.0229045 eV PBE+vdW (tier 2 basis)
C    0.207975  0.082999  0.303392
C    -0.069844  0.214728  1.785866
O    0.817525  0.234686  2.621001
H    -0.324505  0.827290  -0.302659
H    -0.066292  -0.922869  -0.046176
H    1.282794  0.212042  0.152031
N    -1.393882  0.305811  2.203104
C    -2.628759  0.235286  1.451637
C    -2.747583  -1.089807  0.632548
O    -2.613153  -2.141460  1.219199
H    -1.471712  0.270848  3.215454
H    -3.406250  0.057509  2.212363
C    -2.997068  1.602276  0.797507
C    -4.444883  1.766602  0.474849
N    -5.177193  0.824897  -0.233062
C    -5.329189  2.769938  0.787186
C    -6.445403  1.219352  -0.355210
N    -6.551512  2.406055  0.258224
H    -2.729270  2.375264  1.528434
H    -2.378308  1.808301  -0.086164
H    -4.723362  -0.072902  -0.551314
H    -5.187665  3.695193  1.330231
H    -7.245208  0.683254  -0.850420
H    -7.409008  2.947142  0.323766
N    -3.232089  -1.094878  -0.708231
C    -2.564079  -0.420075  -1.846052
H    -3.388022  -2.082263  -0.930275
H    -1.540588  -0.784028  -1.999068
H    -2.532599  0.664671  -1.711592
H    -3.147661  -0.628397  -2.749738
