30
Energy: -19629.4252231 eV PBE+vdW (tier 2 basis)
C    -0.246020  0.451349  -0.061723
C    -0.279586  0.419554  1.444001
O    0.293185  1.260980  2.144025
H    -0.731278  1.376319  -0.399615
H    -0.744034  -0.402815  -0.534576
H    0.797897  0.494608  -0.394173
N    -0.991648  -0.603089  2.017303
C    -1.220860  -0.685686  3.456954
C    -0.008357  -1.318558  4.207211
O    -0.107819  -2.361319  4.900060
H    -1.352160  -1.344480  1.426094
H    -1.307953  0.352730  3.815605
C    -2.557012  -1.427418  3.679345
C    -3.058768  -1.478174  5.083836
N    -2.336465  -2.106441  6.080380
C    -4.222853  -1.040217  5.663985
C    -3.005505  -2.058097  7.227485
N    -4.162906  -1.416086  6.992014
H    -2.460890  -2.461206  3.308803
H    -3.317038  -0.932058  3.062235
H    -1.341823  -2.427343  5.808135
H    -5.073492  -0.514229  5.251311
H    -2.684120  -2.456445  8.181434
H    -4.879197  -1.239754  7.689591
N    1.130636  -0.645897  4.049130
C    2.404275  -1.053796  4.622833
H    1.080543  0.199532  3.459515
H    2.834258  -0.226701  5.200662
H    3.109604  -1.332635  3.829230
H    2.242706  -1.914364  5.277515
