30
Energy: -19629.4229374 eV PBE+vdW (tier 2 basis)
C    0.002119  0.453679  -0.020042
C    0.035674  0.248506  1.466757
O    1.138255  0.197798  2.070439
H    -1.012574  0.484764  -0.429855
H    0.558463  -0.363752  -0.496865
H    0.525933  1.385719  -0.265876
N    -1.146122  0.120952  2.092926
C    -1.367324  -0.256974  3.477159
C    -2.798139  -0.858630  3.487929
O    -3.579720  -0.573563  2.582687
H    -2.025065  0.136503  1.562941
H    -0.629469  -1.020142  3.765819
C    -1.308250  0.945819  4.475328
C    0.013605  1.148331  5.140975
N    1.214691  0.956622  4.484713
C    0.320739  1.557510  6.416164
C    2.220237  1.237933  5.307597
N    1.698147  1.608901  6.489499
H    -2.069120  0.824346  5.256939
H    -1.593249  1.849485  3.916200
H    1.251046  0.591620  3.425316
H    -0.311634  1.821101  7.253720
H    3.276037  1.175624  5.075367
H    2.238994  1.880728  7.304380
N    -3.131130  -1.649039  4.535343
C    -2.250635  -2.186793  5.565317
H    -4.082820  -2.002724  4.489913
H    -1.468766  -2.835998  5.145514
H    -2.854681  -2.790642  6.248761
H    -1.776242  -1.394684  6.160935
