30
Energy: -19628.9853417 eV PBE+vdW (tier 2 basis)
C    -0.604724  0.312091  -0.805239
C    -0.428715  -0.515059  0.444597
O    0.359704  -1.450739  0.535371
H    -1.282421  1.164965  -0.680228
H    -0.988784  -0.335768  -1.603774
H    0.376516  0.678226  -1.129565
N    -1.209357  -0.149246  1.529395
C    -1.220362  -1.031536  2.683465
C    -2.414346  -0.912408  3.640226
O    -2.707259  -1.919036  4.322823
H    -1.982823  0.481540  1.365065
H    -1.277358  -2.061333  2.296742
C    0.110585  -0.934704  3.503474
C    0.515263  -2.247730  4.087938
N    -0.407214  -3.122887  4.636374
C    1.736609  -2.863162  4.189189
C    0.205605  -4.226767  5.058291
N    1.514694  -4.082103  4.798778
H    0.017919  -0.175546  4.295487
H    0.902036  -0.608251  2.821798
H    -1.445297  -2.872920  4.614744
H    2.720674  -2.545889  3.871340
H    -0.260231  -5.087397  5.520754
H    2.225513  -4.775524  5.009622
N    -3.118131  0.223078  3.806201
C    -2.882085  1.581966  3.324826
H    -3.881370  0.102336  4.469401
H    -3.256870  2.281030  4.079811
H    -3.417958  1.788399  2.386035
H    -1.813602  1.777284  3.190849
