30
Energy: -19629.1318272 eV PBE+vdW (tier 2 basis)
C    1.224030  0.188836  0.913831
C    0.244793  -0.593742  1.749758
O    0.374937  -1.823518  1.933967
H    2.247377  -0.094875  1.184778
H    1.102170  1.274545  0.995265
H    1.080053  -0.098747  -0.137066
N    -0.768685  0.113402  2.299423
C    -1.959501  -0.411026  2.947233
C    -2.716280  0.834925  3.461865
O    -2.097345  1.875111  3.690051
H    -0.741769  1.134594  2.294633
H    -2.566368  -0.945999  2.200971
C    -1.731858  -1.423482  4.122608
C    -0.528121  -1.182117  4.962481
N    0.723520  -1.588735  4.535040
C    -0.346502  -0.626370  6.202982
C    1.641262  -1.294641  5.452664
N    1.003809  -0.711298  6.480137
H    -1.654541  -2.430706  3.695385
H    -2.617992  -1.412391  4.768953
H    0.845299  -1.937613  3.546846
H    -1.051948  -0.188653  6.896384
H    2.704521  -1.488089  5.389966
H    1.454306  -0.390588  7.331671
N    -4.048176  0.708887  3.679605
C    -4.931826  -0.378404  3.268570
H    -4.479869  1.564033  4.019077
H    -4.690670  -1.325360  3.769785
H    -4.915405  -0.535626  2.181012
H    -5.953756  -0.110564  3.552354
