30
Energy: -19628.8343561 eV PBE+vdW (tier 2 basis)
C    -0.146125  1.799452  0.388726
C    0.047777  0.533061  1.174592
O    1.089313  -0.136107  1.114758
H    -1.004261  2.394280  0.717120
H    -0.253727  1.563470  -0.679553
H    0.770038  2.395083  0.484482
N    -0.983632  0.102601  1.991494
C    -2.364168  -0.037742  1.513390
C    -3.457342  0.473241  2.485772
O    -4.625933  0.155668  2.286505
H    -0.677101  -0.668547  2.587668
H    -2.469951  0.568263  0.601855
C    -2.658371  -1.517635  1.176388
C    -1.869700  -2.117874  0.058955
N    -0.477568  -2.129092  -0.045971
C    -2.324410  -2.833934  -1.020300
C    -0.106600  -2.805201  -1.135207
N    -1.218576  -3.246607  -1.735152
H    -3.727262  -1.595747  0.941450
H    -2.506320  -2.118881  2.089044
H    0.205636  -1.594699  0.541886
H    -3.333312  -3.086460  -1.319410
H    0.910000  -2.957326  -1.476104
H    -1.234966  -3.801179  -2.585905
N    -3.014781  1.276768  3.478462
C    -3.905629  1.895209  4.448962
H    -2.017372  1.456322  3.528315
H    -3.866551  2.989398  4.371935
H    -3.633350  1.597980  5.469478
H    -4.924122  1.557071  4.234596
