30
Energy: -19629.1611953 eV PBE+vdW (tier 2 basis)
C    0.218734  0.281406  0.070871
C    -0.281519  -0.147165  1.429115
O    -0.030919  -1.236457  1.934835
H    1.291426  0.066172  0.005139
H    0.044798  1.340463  -0.152871
H    -0.279484  -0.327329  -0.695141
N    -1.054033  0.769584  2.111521
C    -1.657964  0.428014  3.388693
C    -0.623763  -0.156677  4.389468
O    -0.885107  -1.150763  5.103326
H    -1.287370  1.656331  1.680499
H    -2.020862  1.369407  3.832876
C    -2.871738  -0.518728  3.144636
C    -3.809805  -0.751691  4.279380
N    -3.376520  -1.310858  5.465528
C    -5.165975  -0.575493  4.407098
C    -4.400330  -1.474272  6.296179
N    -5.503939  -1.035531  5.665718
H    -2.471122  -1.482627  2.797194
H    -3.444344  -0.090327  2.313237
H    -2.306096  -1.439065  5.545487
H    -5.904762  -0.187877  3.718397
H    -4.362606  -1.881059  7.298641
H    -6.439131  -1.047987  6.060176
N    0.546355  0.479159  4.570481
C    1.102844  1.663297  3.931125
H    1.143413  -0.005292  5.236470
H    1.864922  2.078230  4.599143
H    0.338607  2.433111  3.780263
H    1.574620  1.430108  2.966924
