30
Energy: -19628.5128012 eV PBE+vdW (tier 2 basis)
C    -0.302205  0.960446  -0.694016
C    -0.334811  -0.013244  0.462747
O    0.554153  -0.825635  0.666764
H    0.090081  1.925678  -0.341462
H    -1.276547  1.144530  -1.161776
H    0.393819  0.570655  -1.441662
N    -1.396267  0.049839  1.364645
C    -2.663001  0.754014  1.283235
C    -3.431941  0.541027  -0.049608
O    -3.810200  1.513582  -0.712802
H    -1.288997  -0.632319  2.110037
H    -3.291717  0.325382  2.080098
C    -2.502509  2.277234  1.561443
C    -3.751539  2.988242  1.955464
N    -3.969299  3.464183  3.244474
C    -4.879020  3.335222  1.248923
C    -5.156839  4.077620  3.333329
N    -5.715795  4.000497  2.121371
H    -1.753769  2.384829  2.357603
H    -2.101687  2.757800  0.660511
H    -3.310745  3.385090  4.014479
H    -5.119243  3.142057  0.211581
H    -5.579354  4.545452  4.213195
H    -6.626713  4.383515  1.884823
N    -3.675120  -0.730594  -0.440252
C    -3.338839  -1.988103  0.218842
H    -4.148478  -0.785549  -1.338142
H    -2.287787  -2.269617  0.071520
H    -3.973235  -2.773517  -0.204268
H    -3.548635  -1.943942  1.295118
