30
Energy: -19628.7791116 eV PBE+vdW (tier 2 basis)
C    0.279383  0.134099  -0.074241
C    0.110134  -0.306051  1.355210
O    0.989254  -0.942492  1.959831
H    -0.011660  -0.679884  -0.755304
H    1.343878  0.327130  -0.243500
H    -0.302104  1.028039  -0.324255
N    -1.065466  -0.019539  2.001068
C    -2.403477  -0.138324  1.429905
C    -3.297835  0.930282  2.101426
O    -3.491774  0.856086  3.312020
H    -1.032889  -0.183126  3.008978
H    -2.336542  -0.007421  0.342320
C    -3.001280  -1.525747  1.790826
C    -2.202503  -2.741917  1.450803
N    -0.875993  -2.983928  1.811484
C    -2.630550  -3.894805  0.838201
C    -0.513469  -4.208914  1.426696
N    -1.572250  -4.780364  0.841002
H    -3.988207  -1.630367  1.319761
H    -3.184877  -1.499681  2.878514
H    -0.178578  -2.292312  2.179339
H    -3.597103  -4.154684  0.427112
H    0.466924  -4.651197  1.553379
H    -1.585554  -5.723031  0.463632
N    -3.795620  1.889232  1.287722
C    -4.611129  2.993962  1.776621
H    -3.544818  1.873695  0.306002
H    -4.845697  2.799907  2.827365
H    -5.542590  3.063994  1.202148
H    -4.068282  3.945245  1.701733
