30
Energy: -19629.0754129 eV PBE+vdW (tier 2 basis)
C    -0.338617  0.382156  0.608742
C    -0.237722  0.310035  2.112931
O    0.488530  -0.524221  2.678560
H    0.668881  0.374967  0.177140
H    -0.888988  1.254722  0.238887
H    -0.843942  -0.527526  0.256576
N    -0.978130  1.224579  2.801377
C    -1.257265  1.238723  4.246310
C    -1.921028  2.602913  4.560011
O    -1.277700  3.507805  5.086168
H    -1.511732  1.885552  2.245709
H    -1.963037  0.422577  4.474019
C    -0.047848  1.019274  5.185466
C    1.222968  1.712951  4.833905
N    2.130015  1.139500  3.959617
C    1.794827  2.884464  5.258862
C    3.209051  1.911624  3.836219
N    3.020331  2.977524  4.630280
H    0.154101  -0.056577  5.242204
H    -0.358515  1.352450  6.182743
H    1.861609  0.290789  3.416919
H    1.418286  3.646156  5.927520
H    4.075749  1.720811  3.216902
H    3.687623  3.733558  4.747278
N    -3.217064  2.753849  4.173962
C    -4.170867  1.721948  3.773888
H    -3.596941  3.666573  4.414586
H    -4.544835  1.146651  4.633436
H    -3.734424  1.027771  3.046395
H    -5.023619  2.208053  3.289191
