30
Energy: -19629.2538925 eV PBE+vdW (tier 2 basis)
C    -2.117565  -0.009551  -0.651456
C    -1.462397  -0.166874  0.698383
O    -0.925977  -1.203824  1.072717
H    -2.590143  0.967779  -0.804394
H    -2.870594  -0.797864  -0.772130
H    -1.360668  -0.166434  -1.430245
N    -1.509949  0.943253  1.524519
C    -0.851232  0.924561  2.814541
C    -1.789326  1.439203  3.923029
O    -1.488949  2.418946  4.643542
H    -1.919857  1.806830  1.185294
H    -0.632694  -0.142954  2.994025
C    0.496226  1.689654  2.731497
C    1.389629  1.589145  3.920975
N    1.013309  2.093567  5.152432
C    2.656974  1.088152  4.083852
C    1.986292  1.914429  6.041546
N    3.000358  1.306337  5.404342
H    0.295537  2.752223  2.525773
H    1.032520  1.286107  1.864366
H    0.015696  2.442795  5.240717
H    3.330325  0.613073  3.382853
H    1.970396  2.198993  7.085825
H    3.883255  1.051107  5.835815
N    -2.958985  0.802636  4.102304
C    -3.486784  -0.375450  3.421470
H    -3.537315  1.224931  4.825230
H    -4.146980  -0.905351  4.115884
H    -4.062658  -0.102749  2.526817
H    -2.682446  -1.058670  3.128478
