30
Energy: -19628.9214754 eV PBE+vdW (tier 2 basis)
C    -0.685902  0.691914  -0.088857
C    -0.479006  -0.042548  1.219795
O    0.638152  -0.366402  1.592979
H    -1.707065  0.698289  -0.479268
H    -0.024101  0.227116  -0.827816
H    -0.342725  1.728208  0.032938
N    -1.571653  -0.397658  2.006037
C    -2.957648  0.047080  2.025071
C    -3.687682  -0.083918  0.669157
O    -4.194488  0.896486  0.079373
H    -1.258208  -0.885243  2.843124
H    -3.475606  -0.669848  2.682944
C    -3.171497  1.424997  2.716193
C    -2.549150  2.609569  2.062239
N    -2.961903  3.036388  0.813815
C    -1.569628  3.482245  2.463924
C    -2.270469  4.110249  0.443996
N    -1.420833  4.401710  1.443524
H    -2.767588  1.342491  3.732802
H    -4.253590  1.598441  2.818593
H    -3.612537  2.383479  0.283772
H    -0.983019  3.527451  3.371903
H    -2.366501  4.653895  -0.487255
H    -0.776737  5.186808  1.444364
N    -3.800037  -1.316512  0.148726
C    -3.336926  -2.589655  0.692073
H    -4.289564  -1.334665  -0.742946
H    -3.601549  -2.690264  1.752317
H    -2.251765  -2.707964  0.584037
H    -3.838662  -3.394078  0.146399
