30
Energy: -19628.9371963 eV PBE+vdW (tier 2 basis)
C    0.299015  0.345445  -0.184764
C    -0.149450  0.283679  1.254195
O    0.050834  1.193925  2.056055
H    1.384920  0.498295  -0.212274
H    -0.161620  1.222164  -0.657100
H    0.044315  -0.547733  -0.767668
N    -0.826426  -0.860839  1.630682
C    -1.249066  -1.040601  3.013524
C    -0.130364  -1.645331  3.903061
O    -0.178044  -2.818055  4.294972
H    -0.740683  -1.679268  1.036763
H    -1.455345  -0.025366  3.382715
C    -2.563457  -1.835588  3.119401
C    -2.608505  -3.159415  2.424833
N    -3.536579  -3.439047  1.427184
C    -1.891762  -4.321666  2.586560
C    -3.412164  -4.701735  0.998389
N    -2.409924  -5.242958  1.699191
H    -3.372428  -1.205866  2.723344
H    -2.774052  -1.998534  4.185489
H    -4.230211  -2.783136  1.077948
H    -1.070501  -4.515595  3.265816
H    -4.004942  -5.187069  0.233737
H    -2.086711  -6.200414  1.592454
N    0.858676  -0.774112  4.180649
C    2.040459  -1.123868  4.952585
H    0.787382  0.156445  3.764256
H    2.187737  -0.402521  5.765497
H    2.937549  -1.130428  4.318615
H    1.894647  -2.121491  5.377066
