30
Energy: -19628.4564937 eV PBE+vdW (tier 2 basis)
C    -0.292978  0.737391  0.747580
C    0.129405  0.042596  2.017116
O    1.081581  0.379998  2.697297
H    -1.248925  1.262649  0.890203
H    -0.431463  0.036106  -0.086946
H    0.474113  1.469920  0.484787
N    -0.615312  -1.093982  2.415475
C    -2.004284  -1.343896  2.013438
C    -3.121710  -0.362891  2.473607
O    -4.062826  -0.205374  1.701147
H    -0.390084  -1.312497  3.387058
H    -2.057273  -1.248154  0.920749
C    -2.411200  -2.789804  2.373864
C    -1.651574  -3.815070  1.599815
N    -0.299340  -3.677472  1.324084
C    -2.027858  -5.002500  1.024484
C    0.144273  -4.717042  0.613334
N    -0.900022  -5.534427  0.429153
H    -3.481756  -2.915855  2.169882
H    -2.272028  -2.962920  3.454064
H    0.205604  -2.823223  1.603856
H    -2.988569  -5.498951  0.988581
H    1.152930  -4.871528  0.251525
H    -0.859652  -6.413560  -0.078610
N    -3.048007  0.273782  3.672346
C    -2.108895  0.126921  4.779592
H    -3.839405  0.894920  3.819950
H    -1.943529  -0.927760  5.042173
H    -1.143428  0.615421  4.589003
H    -2.552111  0.601156  5.660866
