30
Energy: -19629.2066687 eV PBE+vdW (tier 2 basis)
C    1.265794  0.898234  0.713816
C    0.045453  0.042413  0.931178
O    -0.685010  -0.235955  -0.037764
H    0.996310  1.748474  0.077637
H    2.007187  0.300407  0.166146
H    1.723529  1.264585  1.639412
N    -0.173481  -0.344192  2.216195
C    -1.138479  -1.279634  2.793753
C    -0.702519  -2.746175  2.533822
O    -0.156926  -3.056617  1.480692
H    0.545003  -0.045751  2.866004
H    -1.094129  -1.070319  3.869827
C    -2.631855  -1.054989  2.384567
C    -3.154506  -1.913927  1.280056
N    -2.625140  -1.868081  0.008035
C    -4.155098  -2.853130  1.257165
C    -3.253596  -2.735651  -0.773012
N    -4.197403  -3.345124  -0.032390
H    -3.254423  -1.241676  3.267991
H    -2.764904  0.007309  2.134541
H    -1.760960  -1.220063  -0.160324
H    -4.830247  -3.198933  2.028480
H    -3.046997  -2.929883  -1.817773
H    -4.838558  -4.051809  -0.377497
N    -1.005350  -3.651673  3.503543
C    -1.539509  -3.410065  4.838499
H    -0.699349  -4.594594  3.279432
H    -1.635476  -4.373569  5.348054
H    -2.540403  -2.956863  4.811011
H    -0.875956  -2.779747  5.447906
