30
Energy: -19628.7001827 eV PBE+vdW (tier 2 basis)
C    -0.023894  -0.439716  -0.096622
C    0.203451  -0.370751  1.400513
O    1.303796  -0.489986  1.911717
H    -0.536181  0.452952  -0.481644
H    -0.623516  -1.319002  -0.374601
H    0.953859  -0.523252  -0.577537
N    -0.907212  -0.124807  2.209174
C    -2.303052  -0.204857  1.840939
C    -3.141520  0.975962  2.397009
O    -4.355083  0.841438  2.582497
H    -0.676630  -0.174051  3.201200
H    -2.359772  -0.121768  0.745900
C    -2.938733  -1.566939  2.264490
C    -4.115571  -2.017639  1.464365
N    -4.133805  -3.241077  0.801619
C    -5.339698  -1.448768  1.203911
C    -5.301564  -3.426189  0.172286
N    -6.038444  -2.337057  0.412318
H    -3.229557  -1.511203  3.323332
H    -2.150869  -2.328917  2.186728
H    -3.376622  -3.918983  0.805943
H    -5.722762  -0.492078  1.535693
H    -5.589874  -4.287777  -0.416105
H    -6.980243  -2.192503  0.059444
N    -2.452742  2.112834  2.611999
C    -3.067140  3.345115  3.081784
H    -1.451005  2.085553  2.445557
H    -2.999234  4.130042  2.317319
H    -4.120702  3.142169  3.295343
H    -2.572662  3.694752  3.996340
