30
Energy: -19629.2835127 eV PBE+vdW (tier 2 basis)
C    0.289599  -0.088297  0.251047
C    -0.070284  -0.160375  1.708579
O    0.735094  -0.616057  2.547841
H    1.211008  0.495905  0.137880
H    -0.496452  0.349450  -0.373990
H    0.507023  -1.103635  -0.105367
N    -1.304867  0.272169  2.060756
C    -1.851072  0.183960  3.413856
C    -3.399383  0.061852  3.319437
O    -4.128635  0.937643  3.771501
H    -1.896798  0.668927  1.337477
H    -1.458491  -0.747110  3.851114
C    -1.470330  1.382524  4.318566
C    -0.381163  1.096239  5.294517
N    0.739160  0.350502  4.967012
C    -0.218416  1.480122  6.602672
C    1.557428  0.275729  6.014543
N    0.991914  0.962491  7.020023
H    -2.375615  1.703485  4.850822
H    -1.180947  2.229619  3.679299
H    0.840596  -0.109856  3.996798
H    -0.851207  2.068911  7.253394
H    2.504221  -0.247499  6.056320
H    1.396114  1.073405  7.944582
N    -3.882413  -1.051548  2.706678
C    -3.163754  -2.202720  2.177095
H    -4.897131  -1.060883  2.644097
H    -3.820127  -3.077940  2.226326
H    -2.272770  -2.427487  2.775347
H    -2.856305  -2.060525  1.130779
