30
Energy: -19628.4288247 eV PBE+vdW (tier 2 basis)
C    1.045455  0.425376  2.486972
C    -0.163280  0.157800  1.629018
O    -0.129645  -0.491180  0.587125
H    1.118507  -0.384870  3.228014
H    1.949649  0.401263  1.871739
H    0.986275  1.374219  3.034852
N    -1.360054  0.706827  2.080608
C    -2.625021  0.091489  1.649260
C    -2.535793  -1.453094  1.879099
O    -2.275144  -1.781886  3.032180
H    -1.353212  0.997837  3.054715
H    -3.350525  0.359710  2.429020
C    -3.215469  0.725437  0.353209
C    -2.277563  1.112371  -0.734092
N    -1.287608  2.066141  -0.549297
C    -2.182974  0.743313  -2.051721
C    -0.588856  2.249060  -1.672489
N    -1.133527  1.454312  -2.599215
H    -3.741843  1.641374  0.664500
H    -3.989724  0.069385  -0.059869
H    -1.064477  2.462345  0.361995
H    -2.764561  0.040387  -2.631642
H    0.254078  2.913666  -1.810097
H    -0.814662  1.391948  -3.561324
N    -2.851474  -2.376748  0.929822
C    -2.722230  -2.302088  -0.518793
H    -2.829307  -3.311841  1.329823
H    -3.619258  -1.882308  -0.999261
H    -1.830625  -1.730014  -0.801725
H    -2.602523  -3.321136  -0.900346
