30
Energy: -19628.7071692 eV PBE+vdW (tier 2 basis)
C    -0.683457  0.178680  0.108700
C    -0.452269  0.177532  1.602261
O    0.654128  0.289140  2.116755
H    -0.141881  -0.667333  -0.332631
H    -0.248169  1.093085  -0.312633
H    -1.739134  0.115916  -0.180786
N    -1.579245  0.045747  2.388868
C    -1.495352  0.050711  3.838672
C    -0.693927  1.250054  4.421730
O    0.156020  1.054726  5.292731
H    -2.488764  -0.029827  1.949941
H    -2.527890  0.137631  4.213099
C    -0.869901  -1.277940  4.355096
C    -1.116678  -1.612042  5.786054
N    -1.875377  -2.713876  6.170429
C    -0.697105  -1.038936  6.964163
C    -1.918984  -2.825403  7.504727
N    -1.204829  -1.806040  7.992598
H    0.211978  -1.217348  4.177886
H    -1.263252  -2.089816  3.727642
H    -2.316593  -3.368110  5.530626
H    -0.087825  -0.156620  7.109147
H    -2.430555  -3.590275  8.074312
H    -1.057990  -1.630489  8.982319
N    -1.015415  2.501680  4.014416
C    -2.002114  2.953760  3.045824
H    -0.412446  3.208019  4.426955
H    -2.940139  2.392772  3.137254
H    -1.641585  2.878799  2.009999
H    -2.230875  4.004221  3.255426
