30
Energy: -19629.469455 eV PBE+vdW (tier 2 basis)
C    0.891115  -0.902228  -0.785910
C    0.681996  -0.678034  0.689130
O    1.495055  -0.079972  1.397238
H    0.088116  -1.474633  -1.264757
H    1.845071  -1.422358  -0.935003
H    0.975622  0.074797  -1.278450
N    -0.484522  -1.173145  1.225296
C    -0.819007  -0.925576  2.621001
C    -0.106841  -1.943834  3.554564
O    -0.670335  -2.953845  4.055705
H    -1.113237  -1.719771  0.647451
H    -0.380844  0.055082  2.859089
C    -2.339898  -0.788785  2.834041
C    -3.178924  -1.965680  2.451809
N    -2.895101  -3.224996  2.945374
C    -4.313902  -2.083853  1.687927
C    -3.805988  -4.088785  2.512972
N    -4.684095  -3.413704  1.747821
H    -2.681549  0.086387  2.267271
H    -2.513528  -0.560632  3.897034
H    -1.939382  -3.300944  3.529656
H    -4.886181  -1.349809  1.135963
H    -3.843775  -5.149424  2.727818
H    -5.493796  -3.824102  1.293207
N    1.174099  -1.656773  3.774016
C    2.075619  -2.492828  4.554473
H    1.558893  -0.885874  3.213537
H    2.707786  -3.103894  3.895867
H    1.488053  -3.152312  5.198651
H    2.718481  -1.854475  5.170211
