30
Energy: -19628.9131915 eV PBE+vdW (tier 2 basis)
C    -0.432967  0.816391  -0.856063
C    -0.576130  -0.050465  0.369933
O    -0.438077  -1.278662  0.332667
H    -0.380673  1.887406  -0.630258
H    -1.297992  0.637444  -1.509278
H    0.460642  0.512060  -1.412121
N    -0.862974  0.610986  1.535812
C    -1.344260  -0.072656  2.719409
C    -2.603308  0.694187  3.193912
O    -2.660692  1.910357  3.020912
H    -1.134812  1.594795  1.502684
H    -1.572059  -1.109328  2.435766
C    -0.329418  -0.052503  3.889494
C    0.919155  -0.833514  3.648972
N    1.992707  -0.802948  4.533893
C    1.292980  -1.694992  2.648185
C    2.980353  -1.599484  4.105442
N    2.561639  -2.143363  2.959076
H    -0.820522  -0.439719  4.797804
H    -0.074187  0.998150  4.101110
H    2.035570  -0.252356  5.386954
H    0.756680  -1.955500  1.732507
H    3.931439  -1.768113  4.594140
H    3.106502  -2.790722  2.396686
N    -3.571222  -0.014120  3.824080
C    -3.668640  -1.461363  3.972734
H    -4.362007  0.550986  4.121574
H    -4.605433  -1.688712  4.489985
H    -2.850805  -1.872780  4.581616
H    -3.687830  -1.976791  3.002526
