30
Energy: -19628.5118652 eV PBE+vdW (tier 2 basis)
C    -0.341339  -0.346205  -0.125921
C    0.003132  -0.513364  1.337184
O    1.083516  -0.939113  1.715653
H    -0.958283  -1.190381  -0.465580
H    0.594720  -0.360309  -0.690340
H    -0.892712  0.572997  -0.355685
N    -0.959669  -0.203672  2.296341
C    -2.309060  0.309611  2.161174
C    -3.170887  -0.424051  1.100427
O    -3.719544  0.211646  0.194452
H    -0.618562  -0.381733  3.237094
H    -2.796280  0.131130  3.133773
C    -2.323650  1.844183  1.889287
C    -3.614833  2.534059  2.168530
N    -3.775453  3.425002  3.225046
C    -4.837532  2.497818  1.540191
C    -5.019970  3.919885  3.248277
N    -5.671558  3.357242  2.225541
H    -2.059657  2.014939  0.838226
H    -1.531098  2.290798  2.504602
H    -3.045010  3.691472  3.879507
H    -5.143105  1.921071  0.676962
H    -5.418629  4.635890  3.955370
H    -6.642416  3.544765  1.991631
N    -3.312229  -1.763964  1.225438
C    -2.754407  -2.666426  2.226425
H    -3.867924  -2.175867  0.480536
H    -3.343680  -3.589034  2.219853
H    -2.825297  -2.238069  3.233851
H    -1.704837  -2.918101  2.024006
