30
Energy: -19629.392726 eV PBE+vdW (tier 2 basis)
C    -0.300475  -0.625466  0.096540
C    -0.679764  -0.092758  1.457842
O    -0.691036  -0.772603  2.475798
H    0.553810  -1.302028  0.206080
H    -0.059253  0.156188  -0.633689
H    -1.138101  -1.220170  -0.293619
N    -1.016880  1.255314  1.503679
C    -1.590033  1.864637  2.696943
C    -0.549687  2.052980  3.834528
O    -0.902214  2.345929  5.001750
H    -1.103814  1.762129  0.629667
H    -1.876424  2.887741  2.405827
C    -2.876333  1.113924  3.165862
C    -3.831204  1.913928  3.986433
N    -3.410839  2.615520  5.099079
C    -5.190849  2.089637  3.904050
C    -4.449567  3.201096  5.685777
N    -5.546595  2.888669  4.973905
H    -2.577197  0.208241  3.711199
H    -3.403166  0.774739  2.265788
H    -2.329924  2.613285  5.279463
H    -5.920031  1.711346  3.200097
H    -4.426532  3.821697  6.572441
H    -6.488096  3.196762  5.195280
N    0.733460  1.965908  3.489843
C    1.835641  2.121965  4.428556
H    0.930989  1.666685  2.540280
H    2.670303  2.624346  3.928273
H    2.171874  1.144150  4.799159
H    1.498936  2.725208  5.276170
