29
Energy: -19618.3802822 eV PBE+vdW (tier 2 basis)
C    0.276234  -0.210782  0.832042
C    0.145106  -0.870832  2.189375
O    0.673437  -1.944628  2.462663
H    0.666547  0.813275  0.908738
H    -0.700292  -0.147372  0.331027
H    0.952125  -0.815373  0.222350
N    -0.601647  -0.197902  3.136106
C    -1.376427  1.024384  2.954875
C    -0.520427  2.310337  2.937549
O    -0.927008  3.334772  2.396108
H    -0.750028  -0.736788  3.985953
H    -1.911529  1.006657  1.995015
C    -2.439819  1.105086  4.081176
C    -3.478558  2.150290  3.853211
N    -4.458165  1.976329  2.895977
C    -3.619674  3.378907  4.458488
C    -5.176332  3.081509  2.916226
N    -4.708218  3.963097  3.849545
H    -1.935467  1.271404  5.045154
H    -2.934974  0.122797  4.127027
H    -3.043875  3.885352  5.222982
H    -6.038719  3.294120  2.293028
H    -5.081944  4.882147  4.051303
N    0.667623  2.214942  3.599799
C    1.604600  3.315842  3.690996
H    0.938933  1.292467  3.923893
H    1.840780  3.550300  4.738253
H    1.134314  4.189315  3.226006
H    2.541154  3.091869  3.160249
