29
Energy: -19618.4120759 eV PBE+vdW (tier 2 basis)
C    0.560510  -0.015596  0.150547
C    -0.158782  0.113668  1.480304
O    -0.636041  1.182865  1.860367
H    1.414452  0.673034  0.142835
H    -0.122306  0.299385  -0.648088
H    0.916754  -1.030786  -0.063800
N    -0.251489  -1.040531  2.207499
C    -0.851281  -1.082625  3.531625
C    0.263608  -0.993897  4.591534
O    1.079015  -1.910611  4.717052
H    0.289300  -1.847316  1.915929
H    -1.532505  -0.226648  3.579969
C    -1.656755  -2.379395  3.741247
C    -2.810837  -2.490334  2.801831
N    -3.899087  -1.644552  2.901840
C    -2.979249  -3.347968  1.736166
C    -4.710115  -1.983544  1.919530
N    -4.198143  -3.013884  1.182374
H    -2.024949  -2.382858  4.778062
H    -0.982406  -3.241838  3.644622
H    -2.364357  -4.146200  1.338450
H    -5.669242  -1.527197  1.697144
H    -4.632620  -3.457190  0.382441
N    0.310334  0.126760  5.360395
C    -0.538908  1.311150  5.287085
H    1.060626  0.114865  6.044836
H    -0.031990  2.128455  5.811905
H    -1.516137  1.152360  5.767786
H    -0.692891  1.619640  4.245133
