29
Energy: -19618.2466063 eV PBE+vdW (tier 2 basis)
C    0.288107  0.087084  0.936054
C    -0.248664  0.249473  2.343674
O    0.496187  0.490523  3.292662
H    1.313965  -0.286469  1.007816
H    0.326042  1.078579  0.462085
H    -0.305948  -0.566907  0.288898
N    -1.603600  0.134640  2.553199
C    -2.705103  -0.025739  1.603538
C    -2.606610  -1.326660  0.776688
O    -2.590285  -1.317357  -0.453879
H    -1.863097  0.383796  3.503292
H    -3.600797  -0.118259  2.237209
C    -2.940909  1.195422  0.695796
C    -3.064596  2.444877  1.504347
N    -3.946102  2.528753  2.567181
C    -2.365053  3.624640  1.382517
C    -3.787640  3.737699  3.071892
N    -2.841815  4.442955  2.385997
H    -3.859154  1.012796  0.118486
H    -2.134158  1.289054  -0.040830
H    -1.592965  3.945674  0.694171
H    -4.322628  4.150389  3.921007
H    -2.533507  5.386996  2.583154
N    -2.548955  -2.498737  1.475075
C    -2.593987  -2.713384  2.912343
H    -2.457675  -3.311959  0.874626
H    -3.367032  -2.092434  3.384332
H    -1.632889  -2.499420  3.400851
H    -2.857738  -3.760844  3.097223
