29
Energy: -19618.3064874 eV PBE+vdW (tier 2 basis)
C    1.828744  -0.014673  0.276604
C    1.249619  -0.526520  1.585148
O    1.965990  -0.836596  2.535466
H    1.072728  0.178345  -0.493914
H    2.546632  -0.754373  -0.098419
H    2.385458  0.910737  0.472222
N    -0.117852  -0.566476  1.627144
C    -0.878974  -1.263658  2.665130
C    -0.257451  -1.214722  4.082379
O    -0.046551  -2.243718  4.717458
H    -0.618465  -0.550061  0.735772
H    -1.846266  -0.735303  2.740370
C    -1.162878  -2.717671  2.249273
C    -2.097771  -2.809154  1.082226
N    -2.033256  -1.944106  -0.000923
C    -3.122755  -3.708927  0.885127
C    -2.991854  -2.317059  -0.828914
N    -3.677606  -3.386164  -0.336515
H    -1.577561  -3.261161  3.106676
H    -0.199391  -3.199438  2.022444
H    -3.494568  -4.526757  1.489778
H    -3.229732  -1.853714  -1.780529
H    -4.455389  -3.857363  -0.781537
N    -0.123612  0.015780  4.667917
C    -0.178966  1.324632  4.043516
H    0.346067  -0.047202  5.566240
H    -0.362013  2.076782  4.820639
H    -1.006160  1.379005  3.326812
H    0.752715  1.582660  3.515491
