29
Energy: -19618.5504626 eV PBE+vdW (tier 2 basis)
C    -0.788012  -0.341562  -0.227939
C    -0.536630  -0.421309  1.264898
O    0.491682  -0.923736  1.725023
H    -0.015043  0.292505  -0.680914
H    -1.774022  0.062033  -0.487662
H    -0.682015  -1.345183  -0.656831
N    -1.508921  0.132542  2.047433
C    -1.527785  0.009501  3.492879
C    -2.858042  -0.662051  3.882242
O    -3.880793  -0.477942  3.222676
H    -2.411198  0.354639  1.633461
H    -0.675537  -0.632274  3.763016
C    -1.423932  1.368675  4.215339
C    -0.110192  2.074642  4.078499
N    0.024394  3.367159  4.551739
C    1.086682  1.634238  3.552766
C    1.277450  3.704957  4.317299
N    1.961543  2.689179  3.713202
H    -1.635478  1.213437  5.286352
H    -2.227310  2.026768  3.849715
H    1.372435  0.706867  3.067441
H    1.736810  4.657894  4.559624
H    2.930587  2.702861  3.420191
N    -2.810156  -1.422476  5.008865
C    -3.978597  -2.067285  5.579061
H    -1.913140  -1.542024  5.464314
H    -4.831704  -1.832328  4.934305
H    -4.183119  -1.696085  6.592939
H    -3.849958  -3.157641  5.617069
