29
Energy: -19618.5722991 eV PBE+vdW (tier 2 basis)
C    -0.313221  -0.304846  -0.142708
C    -0.098382  -0.031825  1.339647
O    1.027538  0.100507  1.814633
H    0.667702  -0.433705  -0.607380
H    -0.826598  0.539355  -0.626394
H    -0.921599  -1.201468  -0.323922
N    -1.218689  0.065718  2.120991
C    -2.598515  0.032295  1.697377
C    -3.405239  0.829083  2.758411
O    -2.873065  1.220316  3.799997
H    -1.087247  0.393977  3.080550
H    -2.714432  0.548475  0.731244
C    -3.153700  -1.423271  1.536699
C    -4.096781  -1.587138  0.388155
N    -5.190996  -0.758062  0.207285
C    -4.043358  -2.501707  -0.640712
C    -5.786988  -1.164464  -0.899224
N    -5.127874  -2.222304  -1.446665
H    -3.635826  -1.731511  2.477593
H    -2.300535  -2.098129  1.395426
H    -3.351553  -3.304843  -0.862129
H    -6.679592  -0.733472  -1.339433
H    -5.382926  -2.713165  -2.294886
N    -4.703241  1.035020  2.451620
C    -5.600503  1.697102  3.380448
H    -5.086157  0.574987  1.613643
H    -6.568259  1.842875  2.888852
H    -5.198046  2.674332  3.676721
H    -5.750241  1.106441  4.296719
