29
Energy: -19618.5348673 eV PBE+vdW (tier 2 basis)
C    -1.834640  2.391020  0.404081
C    -1.341147  0.956449  0.441971
O    -0.271156  0.618452  -0.055041
H    -1.042099  3.012893  -0.019580
H    -2.104792  2.766077  1.400230
H    -2.730733  2.478419  -0.227622
N    -2.144683  0.031029  1.082325
C    -3.528809  0.243171  1.489390
C    -3.698464  1.002019  2.823440
O    -4.774868  1.522040  3.112475
H    -1.883458  -0.937919  0.875395
H    -4.073799  0.839380  0.740762
C    -4.255129  -1.118001  1.633263
C    -4.178758  -1.961581  0.405170
N    -3.004614  -2.614516  0.071490
C    -5.134644  -2.199633  -0.558003
C    -3.243927  -3.233161  -1.068894
N    -4.523335  -3.012997  -1.489391
H    -5.297097  -0.906123  1.900366
H    -3.804883  -1.668243  2.474015
H    -6.163476  -1.876767  -0.658625
H    -2.539728  -3.843420  -1.624167
H    -4.953629  -3.390000  -2.324977
N    -2.603683  0.992162  3.627172
C    -2.576435  1.616166  4.933534
H    -1.769970  0.552647  3.247682
H    -2.355403  0.881624  5.720531
H    -3.567012  2.046909  5.116509
H    -1.824629  2.416905  4.977497
