29
Energy: -19618.3486241 eV PBE+vdW (tier 2 basis)
C    -2.964199  2.358200  -0.508970
C    -1.983158  1.769775  0.485859
O    -0.770623  1.937099  0.378359
H    -3.908926  2.683189  -0.052142
H    -3.193595  1.598319  -1.270075
H    -2.484346  3.209298  -1.000338
N    -2.495619  1.030466  1.523235
C    -3.854901  0.605354  1.766633
C    -3.865565  -0.031877  3.167375
O    -2.875166  -0.583541  3.646408
H    -1.803269  0.567946  2.112771
H    -4.528801  1.478681  1.781882
C    -4.431453  -0.411948  0.716474
C    -3.420399  -1.368207  0.174724
N    -3.001957  -1.261640  -1.138266
C    -2.725936  -2.376890  0.809739
C    -2.074984  -2.186722  -1.297199
N    -1.873440  -2.888219  -0.143253
H    -4.829773  0.150978  -0.136359
H    -5.282986  -0.937493  1.174831
H    -2.733414  -2.734234  1.831753
H    -1.524469  -2.389255  -2.209699
H    -1.205332  -3.636099  -0.002073
N    -5.060689  0.012923  3.813196
C    -5.254426  -0.605707  5.114296
H    -5.822733  0.534432  3.398934
H    -4.954061  -1.660887  5.086689
H    -6.313890  -0.542075  5.382455
H    -4.656887  -0.104869  5.888760
