29
Energy: -19618.4028088 eV PBE+vdW (tier 2 basis)
C    -0.481227  -0.002065  -0.674448
C    -0.149002  -0.466802  0.733911
O    0.939427  -0.968977  1.009925
H    0.348060  -0.294421  -1.323849
H    -0.581210  1.093087  -0.706529
H    -1.415448  -0.430659  -1.057009
N    -1.096167  -0.272963  1.706021
C    -2.446885  0.220743  1.572469
C    -2.752861  1.120345  2.779912
O    -2.240457  0.900444  3.876410
H    -0.802969  -0.491719  2.657132
H    -2.532356  0.784275  0.636021
C    -3.499380  -0.934861  1.551262
C    -3.388448  -1.773535  0.325948
N    -3.981643  -1.383904  -0.861529
C    -2.663339  -2.929987  0.133181
C    -3.627251  -2.290568  -1.753143
N    -2.826474  -3.247969  -1.197699
H    -4.511143  -0.507645  1.603793
H    -3.349619  -1.536133  2.458284
H    -2.049225  -3.522354  0.799878
H    -3.921511  -2.308724  -2.797376
H    -2.426024  -4.048488  -1.671611
N    -3.664012  2.117383  2.592535
C    -4.260996  2.555517  1.339140
H    -3.840270  2.668016  3.427161
H    -5.072898  3.253583  1.569299
H    -4.695628  1.717839  0.778493
H    -3.540281  3.075780  0.689146
