29
Energy: -19618.4485967 eV PBE+vdW (tier 2 basis)
C    0.080915  0.032249  0.500694
C    -0.296255  -0.204140  1.950422
O    0.348866  -0.961681  2.681944
H    -0.490132  0.840958  0.028739
H    -0.092394  -0.894940  -0.061183
H    1.152250  0.257446  0.444186
N    -1.401938  0.457025  2.381601
C    -1.858065  0.355282  3.756844
C    -2.387552  -1.068829  4.051497
O    -3.325456  -1.531856  3.406363
H    -1.833180  1.176662  1.801903
H    -1.021408  0.604036  4.426725
C    -3.021823  1.341599  3.997454
C    -2.711184  2.751219  3.615418
N    -2.575933  3.120294  2.286215
C    -2.509050  3.849491  4.422411
C    -2.298151  4.410256  2.292015
N    -2.248914  4.898476  3.564723
H    -3.298041  1.293736  5.059285
H    -3.885911  0.978378  3.421640
H    -2.533233  3.976118  5.497705
H    -2.129917  5.031302  1.418583
H    -2.071473  5.858540  3.833038
N    -1.833540  -1.737677  5.103040
C    -0.575749  -1.445653  5.780601
H    -2.230825  -2.663898  5.226210
H    -0.661481  -0.577668  6.451187
H    0.228990  -1.274064  5.053019
H    -0.312415  -2.311660  6.397720
