29
Energy: -19618.4818462 eV PBE+vdW (tier 2 basis)
C    1.359016  -1.404100  2.534616
C    0.310233  -0.536993  3.209217
O    0.565967  0.143119  4.200611
H    1.727904  -2.138384  3.261684
H    2.208942  -0.771936  2.249406
H    0.991255  -1.932147  1.646271
N    -0.924377  -0.562860  2.617770
C    -2.081806  0.080399  3.199466
C    -3.254788  -0.902708  3.124744
O    -3.287857  -1.788889  2.266689
H    -1.145578  -1.276946  1.926604
H    -1.825306  0.332306  4.237706
C    -2.454834  1.397716  2.450509
C    -1.536665  2.509447  2.823193
N    -1.704680  3.180622  4.019189
C    -0.400958  2.956472  2.185712
C    -0.688107  4.016028  4.105880
N    0.129776  3.919784  3.016779
H    -3.485454  1.684598  2.703285
H    -2.427858  1.195115  1.371504
H    0.071136  2.670721  1.254118
H    -0.497654  4.708404  4.919230
H    0.979676  4.445307  2.854563
N    -4.275998  -0.709689  4.003878
C    -4.293985  0.171869  5.164371
H    -5.025248  -1.388577  3.908323
H    -3.867193  1.154306  4.930961
H    -3.742271  -0.251166  6.018228
H    -5.335289  0.326182  5.468493
