29
Energy: -19618.3476544 eV PBE+vdW (tier 2 basis)
C    0.439079  -0.314602  -0.268414
C    0.269522  -0.393639  1.234257
O    1.199725  -0.729351  1.960346
H    1.349403  0.261355  -0.465690
H    -0.395048  0.140044  -0.808749
H    0.600824  -1.333267  -0.646564
N    -0.979559  -0.172508  1.797329
C    -2.189714  0.452419  1.262551
C    -2.770578  -0.264582  0.018611
O    -3.425848  0.338857  -0.829005
H    -0.914618  -0.202443  2.811956
H    -2.954419  0.267672  2.036537
C    -2.146118  1.992051  1.097851
C    -1.132914  2.539825  0.148364
N    0.123061  2.922629  0.580861
C    -1.241382  2.731152  -1.213949
C    0.764880  3.332065  -0.496593
N    -0.021431  3.233133  -1.610743
H    -1.947725  2.421558  2.089275
H    -3.153335  2.302926  0.792162
H    -2.049852  2.532839  -1.906087
H    1.780787  3.711974  -0.529085
H    0.233832  3.499669  -2.553868
N    -2.568211  -1.609616  0.003210
C    -3.037677  -2.462683  -1.068886
H    -1.961373  -1.990172  0.721741
H    -3.584951  -3.326700  -0.669314
H    -2.205218  -2.827298  -1.689341
H    -3.711224  -1.870244  -1.697152
