29
Energy: -19618.2121764 eV PBE+vdW (tier 2 basis)
C    0.505695  0.488926  1.885750
C    0.065108  -0.909025  2.264916
O    0.763721  -1.669740  2.931108
H    1.568792  0.585696  2.120122
H    -0.057217  1.239135  2.458772
H    0.335352  0.709689  0.823719
N    -1.179281  -1.312270  1.834436
C    -2.175269  -0.553654  1.092056
C    -2.735253  0.699796  1.814903
O    -2.725561  1.777750  1.219878
H    -1.418210  -2.255459  2.128541
H    -1.713770  -0.114015  0.195636
C    -3.283366  -1.528022  0.619294
C    -4.500446  -0.847002  0.085019
N    -5.573159  -0.566650  0.910017
C    -4.739806  -0.358624  -1.181046
C    -6.443662  0.080412  0.158930
N    -5.983042  0.229957  -1.117446
H    -3.597540  -2.162136  1.460760
H    -2.840412  -2.191419  -0.137318
H    -4.149455  -0.363517  -2.088895
H    -7.411199  0.452565  0.478755
H    -6.461867  0.693582  -1.879834
N    -3.180785  0.605338  3.100674
C    -3.538115  -0.584106  3.860953
H    -3.570409  1.486493  3.423290
H    -4.447074  -1.064872  3.469082
H    -3.721707  -0.284033  4.898599
H    -2.713013  -1.304808  3.872568
