29
Energy: -19618.4551431 eV PBE+vdW (tier 2 basis)
C    -0.505932  1.275762  0.196525
C    -0.448574  0.717410  1.605632
O    0.631676  0.444562  2.141664
H    0.092710  2.194079  0.157877
H    -1.520751  1.493847  -0.157813
H    -0.039693  0.552677  -0.484386
N    -1.654492  0.546137  2.217880
C    -1.899278  -0.027111  3.549542
C    -1.473245  0.877221  4.737217
O    -2.306881  1.203308  5.583952
H    -2.472451  0.860672  1.711634
H    -2.989952  -0.071552  3.652762
C    -1.344376  -1.472137  3.670672
C    -1.573740  -2.062025  5.024741
N    -0.608842  -1.989961  6.011537
C    -2.706256  -2.673954  5.520228
C    -1.146027  -2.543603  7.080829
N    -2.417952  -2.975637  6.833132
H    -0.267786  -1.471602  3.464687
H    -1.829694  -2.080111  2.893201
H    -3.665301  -2.907404  5.073940
H    -0.667048  -2.662985  8.047065
H    -3.039551  -3.429703  7.490892
N    -0.166747  1.223218  4.765941
C    0.416708  1.941606  5.879371
H    0.428382  0.873170  4.010266
H    -0.373866  2.501158  6.390981
H    1.182573  2.638399  5.516927
H    0.876385  1.250559  6.603103
