29
Energy: -19618.2081116 eV PBE+vdW (tier 2 basis)
C    0.153356  0.377805  -0.055898
C    -0.044035  1.082419  1.275752
O    0.732196  1.940320  1.686981
H    1.177864  -0.009965  -0.103877
H    0.045011  1.115690  -0.861316
H    -0.552003  -0.444362  -0.231205
N    -1.133618  0.674524  1.996766
C    -1.593901  1.376548  3.186778
C    -0.578922  1.544241  4.335243
O    -0.627244  2.569455  5.009670
H    -1.815040  0.072625  1.542730
H    -1.860765  2.411517  2.927749
C    -2.856435  0.673552  3.741480
C    -3.928141  0.508111  2.712936
N    -4.567447  1.594141  2.146509
C    -4.412105  -0.661803  2.160615
C    -5.425605  1.095096  1.280178
N    -5.371874  -0.270082  1.249543
H    -3.224464  1.286632  4.575170
H    -2.588191  -0.311150  4.152136
H    -4.188105  -1.705007  2.349909
H    -6.104207  1.665972  0.654420
H    -5.939960  -0.883968  0.678483
N    0.268125  0.524432  4.677427
C    0.566163  -0.731776  4.011775
H    0.886090  0.800876  5.434266
H    1.084309  -1.381375  4.727521
H    1.213182  -0.603001  3.130350
H    -0.347612  -1.248062  3.697698
