29
Energy: -19618.4776137 eV PBE+vdW (tier 2 basis)
C    -1.595217  -1.749045  -0.319512
C    -0.988188  -0.879244  0.765923
O    0.134723  -0.395056  0.628248
H    -1.030071  -2.688325  -0.370346
H    -1.455695  -1.229881  -1.274726
H    -2.652366  -2.000008  -0.188568
N    -1.721459  -0.617752  1.895325
C    -2.982548  -1.161868  2.347861
C    -3.681306  -0.076321  3.183359
O    -3.038333  0.693921  3.893741
H    -1.273213  0.014096  2.559137
H    -3.604428  -1.428001  1.482694
C    -2.808070  -2.434153  3.235656
C    -2.243453  -3.581484  2.472399
N    -3.036467  -4.343299  1.633848
C    -0.933266  -4.002432  2.393329
C    -2.223422  -5.210817  1.062618
N    -0.936111  -5.043538  1.490443
H    -3.789447  -2.718254  3.643190
H    -2.159471  -2.169108  4.081620
H    -0.026596  -3.650550  2.869549
H    -2.506056  -5.976662  0.347751
H    -0.130554  -5.588035  1.206921
N    -5.040751  -0.081852  3.106245
C    -5.878853  0.805532  3.891517
H    -5.481100  -0.747600  2.482312
H    -6.533498  0.239791  4.569083
H    -6.498597  1.440525  3.243893
H    -5.216188  1.443423  4.485489
