29
Energy: -19618.3720412 eV PBE+vdW (tier 2 basis)
C    -0.130583  0.412896  -0.261539
C    0.170462  0.237169  1.216469
O    1.299100  0.007733  1.636834
H    -0.048196  -0.565363  -0.753916
H    0.630733  1.066325  -0.702220
H    -1.126460  0.825288  -0.466297
N    -0.911437  0.373746  2.057892
C    -0.856821  0.016564  3.477482
C    0.146008  0.891218  4.272209
O    0.747601  0.455115  5.248162
H    -1.831545  0.408849  1.633666
H    -1.852631  0.265498  3.875584
C    -0.617530  -1.491246  3.736536
C    -1.343890  -1.984214  4.945250
N    -2.712116  -2.192459  4.917751
C    -0.850994  -2.263918  6.199764
C    -3.038223  -2.596421  6.131005
N    -1.942104  -2.657554  6.944869
H    0.457640  -1.678843  3.824615
H    -0.989490  -2.042129  2.861353
H    0.143854  -2.178899  6.617258
H    -4.034208  -2.861279  6.470906
H    -1.928984  -2.936784  7.917935
N    0.219211  2.188280  3.859247
C    1.163274  3.123701  4.437864
H    -0.191808  2.402318  2.957759
H    2.108013  3.156567  3.873145
H    1.385478  2.795133  5.458487
H    0.728646  4.130709  4.467930
