29
Energy: -19618.2734667 eV PBE+vdW (tier 2 basis)
C    0.532843  0.066451  -0.010557
C    0.346152  -0.600505  1.345418
O    1.263697  -1.200423  1.900650
H    1.547507  -0.152086  -0.353201
H    0.411082  1.157107  0.061100
H    -0.184361  -0.300904  -0.757873
N    -0.886001  -0.487305  1.930700
C    -2.076201  0.145296  1.397873
C    -2.882225  0.640041  2.613504
O    -2.912013  -0.043927  3.637065
H    -0.998834  -0.915365  2.849398
H    -1.778354  0.982195  0.754062
C    -2.932238  -0.850482  0.553349
C    -4.038169  -0.220821  -0.227034
N    -5.304790  -0.050358  0.299238
C    -3.990576  0.296946  -1.506424
C    -6.008544  0.552635  -0.639756
N    -5.254201  0.788653  -1.754688
H    -3.345208  -1.606798  1.234384
H    -2.242689  -1.366677  -0.128551
H    -3.199675  0.343811  -2.245589
H    -7.055817  0.829501  -0.573965
H    -5.570869  1.211133  -2.619093
N    -3.539864  1.829215  2.537529
C    -3.713663  2.737872  1.419970
H    -4.097879  2.007991  3.368553
H    -3.641678  3.774588  1.774365
H    -4.685611  2.595373  0.924684
H    -2.930054  2.585200  0.672377
