29
Energy: -19618.6217015 eV PBE+vdW (tier 2 basis)
C    -2.323791  -0.798704  0.199885
C    -2.345480  -0.332280  1.644790
O    -3.387338  -0.061807  2.234493
H    -2.806536  -0.039468  -0.428124
H    -2.923077  -1.714396  0.120587
H    -1.314735  -0.994718  -0.182395
N    -1.106575  -0.205725  2.233059
C    -0.983653  -0.040684  3.677997
C    -1.147273  1.405444  4.187779
O    -1.224061  1.625266  5.395385
H    -0.333561  -0.707181  1.788739
H    -1.786935  -0.609233  4.172151
C    0.392102  -0.562404  4.152236
C    0.674223  -1.968093  3.737200
N    0.933499  -2.282530  2.411811
C    0.704069  -3.115107  4.498612
C    1.115094  -3.589807  2.375775
N    0.987603  -4.138164  3.617817
H    0.419319  -0.464586  5.243465
H    1.177223  0.096233  3.747814
H    0.554383  -3.287645  5.557088
H    1.341994  -4.179745  1.494163
H    1.095082  -5.116529  3.855660
N    -1.143179  2.365655  3.229123
C    -1.347326  3.768127  3.524621
H    -1.140076  2.043224  2.267318
H    -1.305901  3.887517  4.612764
H    -2.328537  4.115189  3.168791
H    -0.563554  4.385150  3.064396
