29
Energy: -19618.1872014 eV PBE+vdW (tier 2 basis)
C    -2.910498  1.015592  0.771573
C    -1.978658  0.886608  1.966121
O    -0.860518  1.398301  1.974381
H    -3.027019  2.079112  0.530391
H    -3.902770  0.574071  0.927938
H    -2.439361  0.534553  -0.094972
N    -2.489417  0.180134  3.020302
C    -1.734503  -0.196185  4.215428
C    -2.556738  -1.105237  5.144749
O    -1.989340  -2.036500  5.710971
H    -3.361891  -0.311267  2.866669
H    -0.895298  -0.842359  3.916900
C    -1.080929  0.991472  4.985274
C    -1.968947  2.131736  5.351238
N    -2.595742  2.215110  6.581763
C    -2.294168  3.232637  4.584361
C    -3.283693  3.340557  6.560526
N    -3.136593  3.992304  5.367730
H    -0.260233  1.355389  4.357773
H    -0.648584  0.565000  5.900117
H    -1.989037  3.533101  3.589283
H    -3.890585  3.734090  7.369653
H    -3.537652  4.887766  5.116795
N    -3.912586  -0.927984  5.285710
C    -4.742596  0.258792  5.109996
H    -4.287074  -1.630799  5.919453
H    -5.691542  -0.016136  4.627347
H    -4.232064  0.997778  4.487704
H    -4.954788  0.735767  6.076641
