29
Energy: -19618.4740226 eV PBE+vdW (tier 2 basis)
C    0.807870  0.547047  -0.431427
C    -0.046192  0.802595  0.794562
O    -1.261905  0.592584  0.794910
H    1.855543  0.846335  -0.308050
H    0.373707  1.086574  -1.281621
H    0.770689  -0.523942  -0.668587
N    0.633977  1.242318  1.894008
C    -0.029819  1.701171  3.099136
C    0.429354  3.146736  3.356885
O    1.541906  3.529552  2.991217
H    1.582094  1.594047  1.780378
H    -1.109155  1.657644  2.896448
C    0.314402  0.846361  4.337781
C    -0.275231  -0.529882  4.354745
N    0.051551  -1.402107  5.377046
C    -1.166428  -1.126511  3.487293
C    -0.626331  -2.506951  5.134184
N    -1.378602  -2.389703  4.000522
H    1.410293  0.776873  4.419807
H    -0.009982  1.379892  5.246233
H    -1.628259  -0.783483  2.567230
H    -0.611428  -3.409427  5.736804
H    -1.977615  -3.098717  3.596090
N    -0.426121  3.958908  4.036488
C    -1.786377  3.662248  4.460983
H    -0.054113  4.885613  4.217941
H    -1.824015  2.861796  5.214019
H    -2.427082  3.377358  3.614668
H    -2.209579  4.565535  4.911998
