29
Energy: -19618.2299478 eV PBE+vdW (tier 2 basis)
C    -0.383492  -0.165458  -0.522124
C    -0.053682  -0.119248  0.962158
O    1.103274  -0.197116  1.367186
H    0.556710  -0.298220  -1.063525
H    -0.853682  0.770528  -0.858600
H    -1.064018  -0.990885  -0.766620
N    -1.095420  0.038324  1.838566
C    -2.507765  0.144026  1.560807
C    -3.098146  1.208510  2.502352
O    -2.664099  1.353977  3.642345
H    -0.833784  0.106338  2.820580
H    -2.638427  0.441235  0.513015
C    -3.294372  -1.186204  1.797448
C    -2.890251  -2.289553  0.878286
N    -1.822090  -3.116049  1.165689
C    -3.425460  -2.623984  -0.350572
C    -1.707737  -3.930341  0.135231
N    -2.657010  -3.671047  -0.813810
H    -4.370541  -0.982857  1.690301
H    -3.123606  -1.495377  2.837679
H    -4.259907  -2.229092  -0.917904
H    -0.970261  -4.718471  0.024118
H    -2.790512  -4.169473  -1.685374
N    -4.156361  1.936204  2.037100
C    -4.730642  1.927359  0.701882
H    -4.524751  2.595437  2.715431
H    -5.557242  2.645080  0.678073
H    -5.140276  0.943223  0.430391
H    -4.004475  2.229791  -0.067363
