29
Energy: -19618.4802801 eV PBE+vdW (tier 2 basis)
C    -2.975638  -0.991590  0.594498
C    -2.141754  -0.105689  1.502196
O    -1.598998  0.922317  1.107224
H    -2.312174  -1.727269  0.116872
H    -3.424717  -0.377596  -0.192245
H    -3.758829  -1.539950  1.132686
N    -2.054017  -0.544797  2.808071
C    -0.995808  -0.067407  3.706183
C    -1.080367  1.441048  4.030473
O    -0.086368  2.071427  4.382228
H    -2.251454  -1.535830  2.942185
H    -1.189776  -0.569220  4.668378
C    0.410054  -0.471737  3.237942
C    0.657609  -1.942044  3.384682
N    -0.347201  -2.886422  3.233732
C    1.844606  -2.579987  3.674301
C    0.222745  -4.062683  3.424283
N    1.552283  -3.928569  3.690515
H    1.141745  0.100644  3.821508
H    0.529891  -0.152202  2.191395
H    2.841245  -2.203272  3.868038
H    -0.273670  -5.026595  3.385524
H    2.206604  -4.678253  3.877322
N    -2.339286  1.955771  4.015235
C    -2.594840  3.366667  4.222474
H    -3.055627  1.383621  3.582038
H    -3.522483  3.506662  4.791991
H    -2.673743  3.911220  3.268734
H    -1.756030  3.783736  4.789537
