29
Energy: -19618.411892 eV PBE+vdW (tier 2 basis)
C    0.112085  -0.098267  -0.046774
C    0.107870  -0.110703  1.470116
O    1.139065  -0.246637  2.129641
H    0.702090  0.761373  -0.389362
H    -0.890154  -0.039065  -0.488499
H    0.614204  -1.004730  -0.405657
N    -1.114849  0.060164  2.052603
C    -1.288160  -0.020247  3.487878
C    -2.691247  -0.594672  3.739949
O    -3.541932  -0.616677  2.843490
H    -1.973378  0.010088  1.509772
H    -0.526274  -0.723007  3.863357
C    -1.019769  1.325306  4.201188
C    -1.945592  2.469054  3.914451
N    -1.647544  3.712015  4.444402
C    -3.113156  2.540444  3.182311
C    -2.610667  4.517478  4.042959
N    -3.523926  3.855187  3.274664
H    0.003047  1.622894  3.928033
H    -0.989935  1.162690  5.289291
H    -3.679062  1.798085  2.633619
H    -2.695524  5.574521  4.273520
H    -4.351524  4.248554  2.844065
N    -2.971513  -1.075594  4.980324
C    -2.106901  -1.177836  6.143645
H    -3.934851  -1.382077  5.077233
H    -2.141667  -0.276523  6.774026
H    -1.067584  -1.352006  5.842749
H    -2.424152  -2.035815  6.748005
