29
Energy: -19618.4291776 eV PBE+vdW (tier 2 basis)
C    0.192521  1.717687  0.856663
C    -0.168368  0.248512  0.994535
O    -0.118238  -0.532217  0.044703
H    -0.444472  2.168073  0.084822
H    1.229645  1.794461  0.507140
H    0.086461  2.285727  1.789164
N    -0.560059  -0.135268  2.244018
C    -0.894952  -1.508347  2.565501
C    -2.299717  -2.043269  2.197376
O    -2.471321  -3.262247  2.249140
H    -0.625295  0.543099  3.003533
H    -0.225464  -2.159255  1.985546
C    -0.656221  -1.760626  4.072085
C    -1.521636  -0.915866  4.951126
N    -1.408530  0.467014  4.972607
C    -2.536305  -1.308567  5.794715
C    -2.332325  0.895265  5.813734
N    -3.039939  -0.145366  6.338530
H    0.404244  -1.563202  4.288012
H    -0.848430  -2.821609  4.268141
H    -2.936242  -2.284764  6.038526
H    -2.524653  1.929448  6.079065
H    -3.789533  -0.080123  7.016155
N    -3.332148  -1.218154  1.859041
C    -3.438832  0.230494  1.759461
H    -4.158511  -1.756112  1.616300
H    -3.064509  0.730630  2.659811
H    -4.502359  0.477123  1.658215
H    -2.912661  0.631123  0.881471
