29
Energy: -19618.4934639 eV PBE+vdW (tier 2 basis)
C    -0.590419  -1.616602  0.685025
C    -0.212460  -0.807139  1.908108
O    0.722642  -1.164599  2.635083
H    0.309511  -2.074407  0.263105
H    -1.102359  -1.030700  -0.088831
H    -1.266259  -2.418430  1.015397
N    -0.979961  0.305146  2.110606
C    -1.214002  1.119504  3.317840
C    -0.020238  1.746172  4.075506
O    -0.238495  2.776869  4.721051
H    -1.713294  0.421687  1.420238
H    -1.744529  2.008443  2.951875
C    -2.174535  0.414587  4.322274
C    -1.698158  -0.916833  4.794893
N    -2.058718  -2.080699  4.139775
C    -0.821363  -1.206296  5.818711
C    -1.406485  -3.051683  4.750212
N    -0.643756  -2.570822  5.775247
H    -3.148084  0.278043  3.830967
H    -2.318511  1.110556  5.159655
H    -0.312508  -0.576521  6.538015
H    -1.452227  -4.106927  4.502376
H    -0.054197  -3.115017  6.392857
N    1.171580  1.122385  4.021949
C    2.313107  1.625084  4.759143
H    1.199224  0.193478  3.567007
H    2.375806  2.715411  4.658757
H    3.225033  1.168956  4.358255
H    2.244652  1.395355  5.834902
