29
Energy: -19617.8846379 eV PBE+vdW (tier 2 basis)
C    0.309337  0.541054  0.372538
C    0.102044  0.567654  1.873059
O    1.051287  0.621946  2.651729
H    -0.015052  -0.422911  -0.041598
H    1.377815  0.668352  0.181084
H    -0.245233  1.338279  -0.137963
N    -1.183341  0.537814  2.366853
C    -2.485525  0.328427  1.716824
C    -2.614333  -1.162448  1.280992
O    -2.731107  -1.986044  2.189554
H    -1.182982  0.417139  3.375435
H    -3.195792  0.357471  2.552994
C    -2.904213  1.501347  0.794284
C    -4.389260  1.626166  0.659644
N    -5.146394  0.752920  -0.098522
C    -5.214671  2.547160  1.270632
C    -6.400011  1.136867  0.047938
N    -6.492937  2.222192  0.869600
H    -2.440710  1.444747  -0.196416
H    -2.516328  2.413312  1.268708
H    -5.011640  3.380886  1.931719
H    -7.267184  0.673566  -0.410840
H    -7.342285  2.705840  1.134500
N    -2.513978  -1.591635  -0.013497
C    -2.605968  -0.903326  -1.297508
H    -2.610067  -2.602956  -0.044692
H    -2.553949  -1.667933  -2.080479
H    -1.764707  -0.217886  -1.461596
H    -3.554650  -0.359336  -1.397352
