29
Energy: -19618.2348845 eV PBE+vdW (tier 2 basis)
C    0.458113  0.081617  0.658553
C    -0.312846  -1.064693  1.290217
O    0.101591  -2.219475  1.258204
H    1.372685  -0.335699  0.229616
H    0.732155  0.850724  1.394177
H    -0.125649  0.568471  -0.133552
N    -1.493613  -0.766565  1.931735
C    -2.212334  0.499881  1.983394
C    -2.749869  0.676241  3.422775
O    -3.925930  0.459028  3.705720
H    -2.007503  -1.595941  2.221670
H    -1.487126  1.296867  1.770798
C    -3.372965  0.605883  0.969384
C    -2.924035  0.501754  -0.450443
N    -2.700151  -0.721919  -1.052770
C    -2.627317  1.519614  -1.335286
C    -2.274879  -0.453494  -2.271589
N    -2.211338  0.893885  -2.492329
H    -3.884070  1.563940  1.138587
H    -4.105278  -0.181163  1.190399
H    -2.682561  2.598522  -1.252557
H    -2.005943  -1.183201  -3.028327
H    -1.939736  1.351693  -3.353906
N    -1.848079  1.062552  4.375018
C    -0.413602  1.248773  4.235436
H    -2.241740  1.080002  5.310616
H    -0.023686  1.643908  5.179424
H    -0.175308  1.982263  3.452231
H    0.111603  0.309546  4.008379
