29
Energy: -19618.2436314 eV PBE+vdW (tier 2 basis)
C    -0.963808  1.727910  -0.604938
C    -0.412422  0.538802  0.168182
O    0.739839  0.143958  0.013284
H    -0.205457  2.043000  -1.326142
H    -1.180662  2.567740  0.071278
H    -1.890307  1.480079  -1.142805
N    -1.271064  -0.087991  1.035343
C    -2.591480  0.364924  1.409093
C    -2.556195  1.619659  2.316167
O    -1.626275  1.852249  3.078667
H    -0.848065  -0.799910  1.636701
H    -3.159349  0.597826  0.495894
C    -3.352805  -0.778052  2.137243
C    -2.687148  -1.229284  3.395811
N    -1.490311  -1.921257  3.359163
C    -3.057862  -1.004171  4.702808
C    -1.141246  -2.106511  4.617282
N    -2.063137  -1.571889  5.469180
H    -3.429030  -1.621179  1.435243
H    -4.374074  -0.441503  2.360891
H    -3.903893  -0.490720  5.142335
H    -0.247153  -2.614284  4.962741
H    -2.022893  -1.582635  6.480780
N    -3.653279  2.443491  2.255721
C    -4.745358  2.416480  1.295494
H    -3.572330  3.255167  2.860073
H    -5.310990  1.474916  1.335856
H    -4.402789  2.574818  0.260787
H    -5.442398  3.224330  1.542949
