29
Energy: -19618.5507845 eV PBE+vdW (tier 2 basis)
C    -0.598020  -0.963542  0.536222
C    -0.007071  -0.329262  1.779069
O    1.222183  -0.282056  1.943583
H    -0.049976  -0.605236  -0.342394
H    -1.667873  -0.762356  0.407828
H    -0.450469  -2.050344  0.598801
N    -0.913431  0.172305  2.659987
C    -0.682463  0.528305  4.071154
C    0.207136  1.758580  4.369326
O    -0.126023  2.516529  5.284415
H    -1.870469  -0.132144  2.504560
H    -1.664879  0.843219  4.441252
C    -0.231153  -0.689529  4.906689
C    -1.323362  -1.705592  5.080504
N    -2.395217  -1.803394  4.209367
C    -1.451735  -2.651255  6.075628
C    -3.150277  -2.786101  4.666294
N    -2.617341  -3.333276  5.794699
H    0.092870  -0.330924  5.893692
H    0.651483  -1.139024  4.426099
H    -0.839667  -2.887317  6.937288
H    -4.080096  -3.133036  4.228243
H    -3.009917  -4.091619  6.338810
N    1.327165  1.898452  3.627214
C    2.258097  2.986988  3.843754
H    1.538579  1.147226  2.954240
H    3.085361  2.694792  4.509863
H    1.725486  3.822544  4.311372
H    2.680077  3.311067  2.884440
