29
Energy: -19618.4848645 eV PBE+vdW (tier 2 basis)
C    -2.442169  -0.132613  -0.979092
C    -1.068899  0.120215  -0.380486
O    -0.046616  0.083935  -1.063801
H    -3.051450  0.782845  -0.949270
H    -2.998530  -0.918106  -0.453188
H    -2.300351  -0.422265  -2.023527
N    -1.006905  0.435975  0.952581
C    -2.057536  0.418282  1.945924
C    -1.831820  1.603244  2.898804
O    -0.698476  1.946097  3.228976
H    -0.082452  0.685310  1.301131
H    -3.030393  0.511674  1.444987
C    -2.058968  -0.897337  2.786957
C    -2.364812  -2.097478  1.959247
N    -3.669435  -2.461119  1.677502
C    -1.489932  -2.932812  1.297486
C    -3.584757  -3.499376  0.866728
N    -2.283083  -3.821961  0.605815
H    -2.810677  -0.809022  3.584549
H    -1.074325  -0.989462  3.265499
H    -0.408764  -2.956630  1.242334
H    -4.419070  -4.053405  0.449214
H    -1.955273  -4.576367  0.014884
N    -2.969147  2.185967  3.370132
C    -2.958279  3.257561  4.348981
H    -3.859101  1.838126  3.033639
H    -1.911374  3.485159  4.574961
H    -3.467447  2.956764  5.275220
H    -3.441957  4.160799  3.952816
