29
Energy: -19618.2675397 eV PBE+vdW (tier 2 basis)
C    -0.920910  0.851695  -0.916976
C    -0.229974  0.937523  0.426832
O    0.967265  1.201328  0.515817
H    -0.571400  1.690245  -1.528492
H    -2.013222  0.865088  -0.882791
H    -0.593674  -0.074969  -1.409630
N    -0.936852  0.607573  1.576035
C    -2.376909  0.611164  1.835411
C    -3.181230  -0.430030  1.014062
O    -4.380538  -0.291010  0.802800
H    -0.344476  0.723145  2.395028
H    -2.470157  0.220878  2.862578
C    -3.048370  2.014434  1.866464
C    -2.713006  2.944262  0.747918
N    -3.483092  3.035866  -0.396392
C    -1.632777  3.800088  0.654471
C    -2.882101  3.922543  -1.164659
N    -1.751609  4.413872  -0.572135
H    -2.767016  2.485957  2.818482
H    -4.132711  1.844947  1.880013
H    -0.804258  4.004460  1.321613
H    -3.217851  4.250942  -2.142993
H    -1.119973  5.107334  -0.954126
N    -2.468447  -1.536447  0.662139
C    -3.049033  -2.638474  -0.076735
H    -1.474048  -1.528447  0.860339
H    -2.876295  -3.592916  0.438920
H    -2.634363  -2.705178  -1.093588
H    -4.127218  -2.459189  -0.147724
