29
Energy: -19618.5486703 eV PBE+vdW (tier 2 basis)
C    -0.507302  -0.501538  -0.088857
C    -0.349310  -0.385837  1.417499
O    0.725906  -0.585964  1.977603
H    0.171992  0.213783  -0.569503
H    -1.528928  -0.315534  -0.442615
H    -0.195734  -1.506503  -0.398942
N    -1.486847  -0.024939  2.088587
C    -1.568120  0.019941  3.532214
C    -2.876229  -0.664815  3.949011
O    -3.861914  -0.670330  3.209096
H    -2.388173  -0.046667  1.616783
H    -0.690570  -0.512435  3.928465
C    -1.542653  1.481102  4.073807
C    -0.202533  2.107552  3.895772
N    0.813391  1.864830  4.799510
C    0.267634  2.871570  2.850006
C    1.879138  2.466267  4.309291
N    1.599218  3.093169  3.128563
H    -1.789819  1.469854  5.145038
H    -2.325213  2.053721  3.557007
H    -0.207797  3.250742  1.954035
H    2.865666  2.486009  4.760530
H    2.250366  3.614274  2.554689
N    -2.862020  -1.208868  5.195080
C    -4.025749  -1.824091  5.804850
H    -1.992307  -1.179080  5.714748
H    -4.311590  -1.304453  6.730012
H    -3.840853  -2.882713  6.033661
H    -4.849648  -1.755047  5.087060
