29
Energy: -19618.1701318 eV PBE+vdW (tier 2 basis)
C    0.798369  -1.198300  1.335381
C    0.086017  -0.409783  2.420942
O    0.460380  -0.408176  3.589715
H    1.805616  -0.782528  1.204007
H    0.283812  -1.189342  0.366256
H    0.915008  -2.235337  1.671862
N    -1.012416  0.296030  2.009644
C    -1.764350  1.179935  2.894138
C    -2.272869  0.506215  4.192120
O    -2.193422  1.116602  5.256525
H    -1.264803  0.282133  1.028377
H    -1.092458  1.965856  3.270419
C    -2.895411  1.823392  2.071908
C    -3.580135  3.014955  2.669609
N    -4.458337  3.739595  1.884122
C    -3.493643  3.574634  3.926672
C    -4.896861  4.719406  2.649969
N    -4.340758  4.662392  3.895736
H    -3.655032  1.065531  1.816889
H    -2.464213  2.149441  1.110353
H    -2.943785  3.278705  4.811878
H    -5.603536  5.489280  2.357715
H    -4.515065  5.296641  4.665460
N    -2.876991  -0.718582  4.140070
C    -3.029001  -1.661765  3.046205
H    -3.122606  -1.048272  5.068550
H    -3.812705  -2.378199  3.319855
H    -2.105524  -2.223495  2.836650
H    -3.350597  -1.164108  2.124553
