29
Energy: -19618.4204669 eV PBE+vdW (tier 2 basis)
C    -0.237978  1.539345  0.147060
C    0.045410  0.344689  1.037026
O    1.157743  -0.167253  1.123294
H    -0.898578  1.260020  -0.686955
H    0.712242  1.892667  -0.260908
H    -0.732213  2.354790  0.691989
N    -1.013224  -0.146659  1.774362
C    -2.423443  0.201750  1.631242
C    -2.860438  1.452692  2.429720
O    -3.943406  1.984937  2.198901
H    -0.796615  -1.025206  2.240230
H    -2.644394  0.449523  0.581241
C    -3.314083  -0.976964  2.047221
C    -3.149467  -2.218883  1.225454
N    -3.754017  -3.394805  1.625554
C    -2.467545  -2.420626  0.042474
C    -3.452767  -4.287557  0.703069
N    -2.675094  -3.746081  -0.279335
H    -4.356722  -0.631949  1.998367
H    -3.129225  -1.223219  3.106125
H    -1.857077  -1.775685  -0.577207
H    -3.763885  -5.327098  0.696509
H    -2.297467  -4.227455  -1.086256
N    -1.981613  1.870339  3.377615
C    -2.233424  3.009136  4.237284
H    -1.110104  1.355454  3.452431
H    -3.210503  3.421741  3.963316
H    -1.466518  3.784971  4.104356
H    -2.255596  2.711387  5.294823
