29
Energy: -19618.1998213 eV PBE+vdW (tier 2 basis)
C    0.613708  0.362606  0.121320
C    0.500043  0.582713  1.621725
O    1.489342  0.859054  2.301476
H    1.263680  1.136988  -0.300598
H    -0.347995  0.368132  -0.406983
H    1.098920  -0.607766  -0.051018
N    -0.767212  0.441466  2.117311
C    -1.243078  0.381723  3.505217
C    -1.988535  1.643966  4.007469
O    -3.093728  1.495294  4.531816
H    -1.475950  0.210049  1.431926
H    -2.047286  -0.365688  3.501116
C    -0.214088  -0.128151  4.537863
C    0.235785  -1.522016  4.235898
N    -0.645979  -2.586130  4.276543
C    1.491114  -1.963254  3.878931
C    0.062484  -3.651768  3.958767
N    1.366657  -3.326325  3.709399
H    -0.734752  -0.117490  5.506936
H    0.650918  0.538103  4.607080
H    2.421666  -1.435676  3.712516
H    -0.307556  -4.670220  3.898511
H    2.109747  -3.965300  3.455034
N    -1.430654  2.883603  3.903309
C    -0.164417  3.316021  3.338601
H    -2.054559  3.603106  4.257530
H    0.217315  4.161503  3.924749
H    -0.268486  3.640337  2.290529
H    0.583301  2.517197  3.368074
