29
Energy: -19618.4841896 eV PBE+vdW (tier 2 basis)
C    0.091861  0.717247  0.322628
C    -0.237561  -0.472033  1.207312
O    0.595640  -1.333691  1.483832
H    0.461921  0.346225  -0.641034
H    0.905653  1.287233  0.788118
H    -0.758831  1.387306  0.147128
N    -1.521303  -0.510146  1.673718
C    -2.024139  -1.585393  2.506703
C    -3.474076  -1.839963  2.076366
O    -4.238410  -0.887381  1.890400
H    -2.203271  0.191395  1.400084
H    -1.373128  -2.451567  2.340980
C    -1.971393  -1.196317  4.010592
C    -2.592442  -2.195727  4.929041
N    -2.054121  -3.455578  5.124246
C    -3.742945  -2.058815  5.675945
C    -2.858538  -4.063245  5.975488
N    -3.898909  -3.257000  6.340061
H    -2.480528  -0.229776  4.126665
H    -0.911453  -1.053441  4.264816
H    -4.444753  -1.240968  5.783439
H    -2.736709  -5.070484  6.360683
H    -4.640450  -3.486565  6.990224
N    -3.881825  -3.127143  1.931465
C    -3.076246  -4.341460  1.988484
H    -4.848326  -3.208052  1.629835
H    -3.755807  -5.198808  2.049825
H    -2.441533  -4.354635  2.882365
H    -2.448051  -4.464901  1.093209
