29
Energy: -19618.4018766 eV PBE+vdW (tier 2 basis)
C    1.720064  0.555690  1.115614
C    0.876016  1.105713  2.252688
O    1.326753  1.982767  2.996592
H    2.598359  0.058235  1.546977
H    2.084025  1.394361  0.510343
H    1.196050  -0.156224  0.466117
N    -0.373613  0.565395  2.348316
C    -1.429529  0.721164  3.366297
C    -1.958342  2.139251  3.699191
O    -3.151119  2.240436  3.997397
H    -0.594837  -0.117009  1.633849
H    -2.312235  0.253529  2.912016
C    -1.142608  -0.086749  4.666327
C    0.100977  0.286871  5.399605
N    0.182984  1.425938  6.176528
C    1.317882  -0.362003  5.386020
C    1.425709  1.472989  6.611980
N    2.155251  0.409279  6.161416
H    -1.097325  -1.151339  4.394214
H    -2.018835  0.049529  5.315948
H    1.654088  -1.270621  4.901269
H    1.847801  2.237863  7.255706
H    3.130721  0.221765  6.356722
N    -1.083263  3.163013  3.665352
C    -1.458640  4.484507  4.125978
H    -0.088814  2.921969  3.559690
H    -0.814841  5.233079  3.649489
H    -1.360865  4.571470  5.219824
H    -2.503740  4.679138  3.861242
