29
Energy: -19618.3720511 eV PBE+vdW (tier 2 basis)
C    0.056988  0.919215  1.541526
C    -0.551835  -0.171715  2.400970
O    0.060948  -0.674419  3.339048
H    1.125117  0.961471  1.770285
H    -0.388687  1.894996  1.780662
H    -0.076084  0.725361  0.470896
N    -1.854707  -0.556856  2.152070
C    -2.708502  -0.272195  1.012488
C    -2.122960  -0.851405  -0.319051
O    -1.091416  -1.520243  -0.331312
H    -2.108936  -1.363539  2.713223
H    -3.629170  -0.845082  1.200155
C    -3.130660  1.231160  0.929776
C    -4.571237  1.449199  0.592801
N    -5.126121  1.018008  -0.599536
C    -5.543619  2.061090  1.353227
C    -6.400913  1.360487  -0.562731
N    -6.699599  1.998932  0.602295
H    -2.497070  1.762047  0.204279
H    -2.938276  1.678923  1.912298
H    -5.514719  2.524234  2.331599
H    -7.135498  1.173682  -1.338487
H    -7.605682  2.362724  0.870873
N    -2.849570  -0.578779  -1.428824
C    -2.451335  -1.093114  -2.725896
H    -3.731147  -0.053867  -1.347108
H    -3.109132  -0.663918  -3.489624
H    -2.521492  -2.190316  -2.768248
H    -1.412013  -0.820030  -2.952086
