29
Energy: -19618.5724404 eV PBE+vdW (tier 2 basis)
C    -0.335181  0.240585  -0.157673
C    -0.024229  0.299911  1.331595
O    1.130194  0.373486  1.747352
H    -0.880743  1.139631  -0.480533
H    -0.952409  -0.627559  -0.426566
H    0.613508  0.190978  -0.698293
N    -1.091315  0.273805  2.189088
C    -2.495785  0.280373  1.854729
C    -3.237776  0.907671  3.066048
O    -2.642763  1.132094  4.122301
H    -0.897999  0.454730  3.176574
H    -2.676869  0.924625  0.980115
C    -3.053708  -1.146188  1.527376
C    -4.051442  -1.161730  0.414006
N    -5.137831  -0.303860  0.386968
C    -4.062962  -1.947811  -0.717258
C    -5.792963  -0.568419  -0.729126
N    -5.179524  -1.561367  -1.429931
H    -3.489052  -1.581880  2.440334
H    -2.206490  -1.788265  1.256693
H    -3.396514  -2.726678  -1.066344
H    -6.697587  -0.077252  -1.070734
H    -5.482785  -1.943866  -2.317168
N    -4.549427  1.156064  2.852566
C    -5.419815  1.662773  3.895298
H    -4.960229  0.833344  1.964949
H    -6.141000  0.899008  4.223064
H    -5.977103  2.540749  3.541505
H    -4.801201  1.952049  4.751065
