29
Energy: -19618.2293288 eV PBE+vdW (tier 2 basis)
C    0.189942  0.750272  -0.080974
C    0.091501  0.996236  1.414180
O    0.974001  1.573681  2.044382
H    0.383334  1.705542  -0.583332
H    -0.706761  0.291652  -0.516241
H    1.051704  0.098316  -0.272679
N    -1.053455  0.535245  2.010568
C    -1.228651  0.563733  3.463381
C    -2.202052  -0.546971  3.899239
O    -1.820350  -1.431525  4.660770
H    -1.678472  -0.048777  1.467582
H    -0.273911  0.274519  3.921963
C    -1.573523  1.987018  3.988797
C    -1.956758  1.993600  5.431395
N    -3.265806  1.788266  5.830586
C    -1.145933  2.125472  6.538077
C    -3.245822  1.796864  7.149742
N    -1.982461  1.998271  7.625726
H    -2.388113  2.421092  3.396845
H    -0.682620  2.604507  3.819340
H    -0.080215  2.287247  6.642640
H    -4.102808  1.669225  7.802767
H    -1.706010  2.044497  8.598655
N    -3.465908  -0.579412  3.361301
C    -4.246452  0.518540  2.798787
H    -4.006350  -1.337465  3.770740
H    -4.587872  1.215937  3.578447
H    -3.665097  1.077887  2.056879
H    -5.115753  0.094152  2.282682
