29
Energy: -19618.1644398 eV PBE+vdW (tier 2 basis)
C    -0.057252  0.798813  -0.048032
C    -0.149888  0.879197  1.466326
O    0.571815  1.634800  2.114765
H    -0.326633  1.777422  -0.465401
H    -0.699531  0.031601  -0.497270
H    0.985113  0.600068  -0.324151
N    -1.075183  0.042374  2.029777
C    -1.453832  -0.014380  3.446789
C    -2.436778  1.147485  3.779262
O    -3.627222  0.967189  3.495859
H    -1.706147  -0.430377  1.394436
H    -2.131399  -0.877181  3.503841
C    -0.271578  -0.313616  4.377498
C    -0.678173  -0.495377  5.807125
N    0.271401  -0.485447  6.811694
C    -1.933091  -0.691268  6.350129
C    -0.390392  -0.675807  7.936381
N    -1.730501  -0.805007  7.710359
H    0.505675  0.453644  4.314417
H    0.199691  -1.239360  4.008534
H    -2.924892  -0.743075  5.916621
H    0.042674  -0.725541  8.930184
H    -2.450776  -0.946670  8.407820
N    -2.027200  2.321407  4.324937
C    -0.721154  2.771176  4.793685
H    -2.813070  2.947847  4.473426
H    -0.777963  3.854880  4.944133
H    0.049406  2.571261  4.041546
H    -0.442607  2.303830  5.749781
