29
Energy: -19618.6194168 eV PBE+vdW (tier 2 basis)
C    -1.066289  0.147885  0.120278
C    -0.941247  0.727547  1.520249
O    -0.635514  1.908023  1.703975
H    -0.103618  0.264129  -0.393007
H    -1.806667  0.733120  -0.439292
H    -1.358449  -0.908963  0.101776
N    -1.218277  -0.149651  2.525908
C    -1.048641  0.109595  3.950607
C    -1.402947  -1.230236  4.640821
O    -1.003165  -2.285392  4.137097
H    -1.276911  -1.142770  2.310360
H    0.027680  0.257511  4.164905
C    -1.756701  1.390245  4.447654
C    -3.236134  1.433053  4.265385
N    -4.095787  0.920250  5.222597
C    -3.963628  1.926724  3.205864
C    -5.317048  1.099475  4.752405
N    -5.285606  1.707039  3.531691
H    -1.296897  2.227040  3.910409
H    -1.518201  1.515174  5.513698
H    -3.656357  2.404004  2.283602
H    -6.241136  0.820400  5.247004
H    -6.088200  1.965764  2.971242
N    -2.094282  -1.172908  5.803111
C    -2.458885  -2.400642  6.491019
H    -2.704090  -0.362660  5.956138
H    -2.831666  -2.147841  7.489423
H    -1.579366  -3.047021  6.584944
H    -3.233970  -2.964893  5.949137
