29
Energy: -19618.4268292 eV PBE+vdW (tier 2 basis)
C    -0.108140  -0.249776  -0.033620
C    -0.141115  0.642467  1.197539
O    0.487893  1.698058  1.247027
H    0.323649  -1.236282  0.184874
H    0.505711  0.244312  -0.791047
H    -1.116361  -0.414304  -0.440211
N    -0.909419  0.228750  2.252417
C    -1.711997  -0.964872  2.379671
C    -2.799710  -0.651195  3.436258
O    -2.770994  0.385447  4.095591
H    -1.031736  0.894959  3.017100
H    -2.208764  -1.196349  1.423409
C    -0.877016  -2.212838  2.812942
C    -0.412476  -2.143268  4.230170
N    -1.100641  -2.789965  5.241085
C    0.630863  -1.414543  4.760752
C    -0.483478  -2.460560  6.360447
N    0.572042  -1.628936  6.120078
H    -0.025779  -2.300992  2.124862
H    -1.476243  -3.126482  2.688059
H    1.372812  -0.770522  4.305291
H    -0.748925  -2.794773  7.357889
H    1.197772  -1.234351  6.811679
N    -3.758799  -1.603820  3.575708
C    -4.687548  -1.585762  4.693447
H    -3.593351  -2.498283  3.128705
H    -5.619933  -2.086527  4.408181
H    -4.900593  -0.543560  4.949883
H    -4.258725  -2.085030  5.575815
