29
Energy: -19618.6203777 eV PBE+vdW (tier 2 basis)
C    -1.757227  -2.069033  -0.018131
C    -1.317081  -1.574409  1.343955
O    -0.833457  -2.337016  2.188809
H    -2.497033  -2.867629  0.116252
H    -0.890126  -2.508052  -0.527422
H    -2.184846  -1.285809  -0.655871
N    -1.477852  -0.241318  1.575498
C    -1.053723  0.402908  2.819263
C    -2.150550  0.223509  3.905502
O    -2.952530  1.113456  4.190965
H    -1.951945  0.326550  0.882394
H    -0.144639  -0.121667  3.146147
C    -0.736378  1.883020  2.579063
C    0.022487  2.497836  3.712314
N    1.404973  2.487213  3.734049
C    -0.463754  3.098520  4.853921
C    1.749714  3.073374  4.864430
N    0.650821  3.461790  5.578453
H    -1.678834  2.425305  2.416911
H    -0.119561  1.962594  1.673121
H    -1.474425  3.265783  5.203923
H    2.763388  3.246574  5.210811
H    0.649855  3.934155  6.474097
N    -2.131659  -1.010666  4.471748
C    -3.140503  -1.451025  5.414513
H    -1.524030  -1.700776  4.023175
H    -3.869911  -2.128111  4.944037
H    -3.672756  -0.567759  5.782864
H    -2.673418  -1.972318  6.260206
