29
Energy: -19617.9227448 eV PBE+vdW (tier 2 basis)
C    -0.953701  -0.025986  0.029509
C    -0.612592  0.679855  1.326498
O    -0.033205  1.766036  1.311323
H    -2.038261  -0.127596  -0.100401
H    -0.517302  -1.029562  -0.033864
H    -0.554408  0.587679  -0.782134
N    -0.969530  0.143601  2.547588
C    -1.532217  -1.112761  3.064983
C    -0.500456  -1.818743  3.985275
O    -0.766140  -1.972144  5.179738
H    -0.680904  0.779964  3.288341
H    -2.311039  -0.816146  3.783676
C    -2.206118  -2.032446  2.041283
C    -2.939665  -3.200392  2.631175
N    -3.471316  -4.148600  1.776508
C    -3.233096  -3.524874  3.939478
C    -4.075573  -5.029331  2.549445
N    -3.959314  -4.695188  3.867956
H    -1.494828  -2.427433  1.305029
H    -2.927605  -1.431181  1.467192
H    -2.965113  -3.065705  4.883085
H    -4.604767  -5.915125  2.213598
H    -4.321439  -5.214875  4.657951
N    0.694417  -2.240943  3.481469
C    1.261805  -2.097651  2.150146
H    1.286614  -2.645721  4.199830
H    2.214974  -2.636230  2.129272
H    1.456035  -1.048582  1.888304
H    0.619865  -2.544051  1.379867
