29
Energy: -19618.5157774 eV PBE+vdW (tier 2 basis)
C    0.047104  1.086240  0.297111
C    0.090220  0.639132  1.750526
O    1.135609  0.637686  2.397275
H    -0.523709  2.020210  0.190946
H    -0.417120  0.340317  -0.362328
H    1.074956  1.264751  -0.029083
N    -1.093839  0.248921  2.317032
C    -2.409316  0.212274  1.715339
C    -3.430723  0.516285  2.830078
O    -3.204869  0.212058  4.001559
H    -1.069773  0.024477  3.311744
H    -2.488343  0.981980  0.936760
C    -2.705782  -1.167071  1.065078
C    -4.001038  -1.232963  0.317556
N    -4.488324  -0.153301  -0.401533
C    -4.864125  -2.299101  0.191865
C    -5.616053  -0.563783  -0.954946
N    -5.883720  -1.858929  -0.626913
H    -2.678717  -1.940610  1.845315
H    -1.869653  -1.384254  0.381409
H    -4.841501  -3.303553  0.596034
H    -6.268361  0.028663  -1.587911
H    -6.684548  -2.401799  -0.926170
N    -4.566679  1.122102  2.398806
C    -5.700500  1.361454  3.270010
H    -4.689476  1.198768  1.390098
H    -6.084968  2.380112  3.130802
H    -5.363253  1.242237  4.304796
H    -6.515497  0.645698  3.081744
