29
Energy: -19618.0668353 eV PBE+vdW (tier 2 basis)
C    0.429891  -0.013590  1.208327
C    -0.137059  0.206690  2.593544
O    0.601355  0.307112  3.570492
H    -0.268441  0.173420  0.388075
H    0.763252  -1.057217  1.144293
H    1.302843  0.638784  1.101463
N    -1.502667  0.262805  2.778632
C    -2.624126  0.217500  1.861298
C    -2.560690  -1.005881  0.905740
O    -1.936887  -2.022455  1.184487
H    -1.729969  0.380273  3.760881
H    -3.495099  -0.024539  2.494706
C    -2.964247  1.602513  1.225961
C    -1.919895  2.215225  0.348977
N    -0.991816  3.089508  0.879192
C    -1.666762  2.023768  -0.995670
C    -0.188609  3.412813  -0.114830
N    -0.557266  2.791839  -1.274271
H    -3.128893  2.294673  2.062741
H    -3.931737  1.539398  0.702340
H    -2.143514  1.416272  -1.755013
H    0.659602  4.086801  -0.056174
H    -0.106617  2.881971  -2.176922
N    -3.324686  -0.914256  -0.222195
C    -3.442950  -2.027977  -1.146978
H    -3.830872  -0.061977  -0.417246
H    -3.558430  -2.964544  -0.588533
H    -2.550599  -2.125922  -1.783165
H    -4.320359  -1.874318  -1.784596
