29
Energy: -19618.369404 eV PBE+vdW (tier 2 basis)
C    0.096806  1.572846  1.191526
C    -0.022357  0.265473  1.940577
O    0.960539  -0.341030  2.355804
H    0.022023  2.387993  1.925229
H    -0.676775  1.720148  0.428402
H    1.086782  1.610596  0.727402
N    -1.285710  -0.265043  2.150660
C    -2.611982  0.296564  1.898501
C    -3.035753  0.286924  0.406644
O    -4.002449  0.941118  0.020886
H    -1.245045  -1.059853  2.781457
H    -3.303726  -0.414917  2.377198
C    -2.907141  1.680356  2.532311
C    -2.543274  1.753689  3.977945
N    -1.285201  2.162150  4.380165
C    -3.302287  1.425118  5.082550
C    -1.281424  2.084159  5.696586
N    -2.482530  1.639832  6.170994
H    -3.975183  1.874779  2.379517
H    -2.369391  2.467236  1.990041
H    -4.324332  1.082293  5.190221
H    -0.450628  2.333283  6.348434
H    -2.735676  1.510737  7.142966
N    -2.297281  -0.526861  -0.393231
C    -2.566533  -0.694803  -1.806425
H    -1.512613  -1.003710  0.038649
H    -1.710015  -0.372686  -2.415242
H    -3.434634  -0.074747  -2.055267
H    -2.795632  -1.742669  -2.045917
