29
Energy: -19618.2632423 eV PBE+vdW (tier 2 basis)
C    -0.063744  0.301480  0.189944
C    -0.229111  0.804783  1.610130
O    0.692193  1.322718  2.240740
H    0.986540  0.411548  -0.091123
H    -0.686919  0.878714  -0.508208
H    -0.358389  -0.752562  0.092147
N    -1.471237  0.665948  2.177702
C    -2.696674  0.216877  1.548364
C    -3.376895  1.153234  0.515821
O    -4.110961  0.629344  -0.322563
H    -1.546415  1.066061  3.111134
H    -2.480921  -0.672403  0.939693
C    -3.710593  -0.241155  2.629840
C    -3.974755  0.759916  3.707564
N    -4.821720  1.837388  3.523444
C    -3.440510  0.797929  4.981179
C    -4.805084  2.506943  4.659632
N    -3.981004  1.917812  5.576039
H    -3.319279  -1.162633  3.082387
H    -4.647272  -0.492001  2.115825
H    -2.762286  0.135821  5.506307
H    -5.365785  3.410806  4.875069
H    -3.808052  2.232273  6.523209
N    -3.133944  2.495221  0.494047
C    -2.492053  3.375715  1.464356
H    -3.669277  2.944644  -0.242600
H    -2.755415  4.405520  1.198254
H    -1.397791  3.292641  1.451259
H    -2.859285  3.196951  2.481789
