29
Energy: -19618.3484366 eV PBE+vdW (tier 2 basis)
C    0.529946  -0.331341  0.561507
C    0.519745  -0.677747  2.042167
O    1.334508  -1.454765  2.532063
H    0.807217  0.721812  0.409615
H    -0.450424  -0.491305  0.090188
H    1.271846  -0.966281  0.070614
N    -0.459115  -0.096782  2.809325
C    -1.382005  0.934574  2.395948
C    -0.691282  2.297241  2.134080
O    0.292767  2.675259  2.756744
H    -0.372935  -0.249263  3.818015
H    -1.888318  0.619768  1.466781
C    -2.487547  1.108768  3.474450
C    -1.960814  1.496446  4.817026
N    -1.237160  0.599962  5.582213
C    -2.025047  2.713388  5.458070
C    -0.865929  1.262033  6.660667
N    -1.324373  2.546751  6.632914
H    -3.024747  0.152108  3.552240
H    -3.204425  1.863151  3.123896
H    -2.475870  3.658843  5.183541
H    -0.276236  0.866114  7.480450
H    -1.173421  3.253346  7.342143
N    -1.311193  3.049589  1.171699
C    -0.858527  4.376195  0.800798
H    -2.076919  2.632749  0.655845
H    -1.650399  5.124966  0.943795
H    -0.524061  4.409290  -0.245862
H    -0.011042  4.623194  1.449521
