29
Energy: -19618.2169163 eV PBE+vdW (tier 2 basis)
C    -0.701461  0.906300  0.316184
C    -0.375019  0.564165  1.760655
O    0.775053  0.381561  2.146761
H    -0.437557  0.047367  -0.314175
H    -0.071522  1.747107  0.002827
H    -1.754633  1.160663  0.142894
N    -1.455147  0.493513  2.600835
C    -1.393283  0.051380  3.992780
C    -0.188688  0.646999  4.768916
O    0.603421  -0.066823  5.374098
H    -2.378607  0.592270  2.196150
H    -2.305162  0.443390  4.472495
C    -1.418831  -1.486638  4.129451
C    -1.986302  -1.936536  5.436041
N    -3.352848  -1.925574  5.658278
C    -1.329565  -2.368230  6.566801
C    -3.518462  -2.349586  6.896860
N    -2.319558  -2.632457  7.488896
H    -0.400656  -1.867993  3.991052
H    -2.052033  -1.880512  3.322164
H    -0.275727  -2.470072  6.791090
H    -4.467256  -2.476275  7.408131
H    -2.178803  -2.973535  8.431730
N    -0.106923  2.011213  4.848345
C    -0.899769  3.021895  4.175774
H    0.737519  2.316342  5.321853
H    -0.805938  3.964846  4.728010
H    -1.962428  2.750265  4.171554
H    -0.582130  3.194922  3.135172
