29
Energy: -19618.4293848 eV PBE+vdW (tier 2 basis)
C    0.261754  0.278237  0.235984
C    0.153145  0.031319  1.727604
O    1.135526  -0.209239  2.432983
H    0.608892  1.308998  0.080177
H    -0.690086  0.150800  -0.294389
H    1.012904  -0.398680  -0.184521
N    -1.107025  0.113548  2.238646
C    -1.362027  0.030225  3.654892
C    -2.833360  -0.358322  3.832057
O    -3.654119  -0.180214  2.931326
H    -1.909200  0.345124  1.659593
H    -0.690305  -0.738532  4.065325
C    -1.039798  1.368175  4.398175
C    -1.903145  2.512445  3.983598
N    -1.664126  3.224555  2.822315
C    -3.038392  2.994143  4.602331
C    -2.633603  4.114958  2.740937
N    -3.493295  4.016131  3.797954
H    0.013046  1.594410  4.184578
H    -1.123701  1.208400  5.481901
H    -3.552558  2.703039  5.510253
H    -2.758667  4.852081  1.954449
H    -4.312198  4.587718  3.964760
N    -3.213634  -0.869790  5.039793
C    -2.396063  -1.191560  6.195814
H    -4.212434  -1.042685  5.099029
H    -1.386289  -1.487062  5.889482
H    -2.841410  -2.041441  6.726698
H    -2.309833  -0.350783  6.902254
