29
Energy: -19618.3640873 eV PBE+vdW (tier 2 basis)
C    0.363171  -0.434132  0.218310
C    -0.014631  -1.401954  1.325552
O    0.753850  -2.278087  1.720420
H    -0.367165  -0.443970  -0.602756
H    1.343476  -0.725531  -0.166815
H    0.416518  0.598918  0.591543
N    -1.259917  -1.254184  1.880624
C    -2.216530  -0.197678  1.614270
C    -1.891637  1.228714  2.126016
O    -2.431656  2.179404  1.556232
H    -1.481353  -1.901274  2.640608
H    -2.304941  -0.046731  0.528557
C    -3.622558  -0.608233  2.116720
C    -3.694141  -0.858147  3.587573
N    -3.082182  -1.960395  4.162325
C    -4.290902  -0.094608  4.566804
C    -3.308364  -1.866469  5.459443
N    -4.037742  -0.750952  5.753015
H    -3.919478  -1.518346  1.575318
H    -4.319077  0.191052  1.836634
H    -4.852718  0.830197  4.523643
H    -2.975479  -2.567388  6.217614
H    -4.358335  -0.467427  6.670897
N    -1.036202  1.437876  3.167762
C    -0.370070  0.516768  4.083455
H    -0.922160  2.430083  3.351847
H    -0.038585  1.097052  4.952388
H    0.510708  0.036195  3.636612
H    -1.047728  -0.264657  4.442196
