29
Energy: -19617.9585069 eV PBE+vdW (tier 2 basis)
C    -0.147356  0.819280  2.023549
C    -0.640301  -0.205024  3.021765
O    0.131757  -0.711916  3.837140
H    -0.672514  1.776069  2.129790
H    -0.278872  0.483351  0.987698
H    0.919171  0.965851  2.212744
N    -1.966575  -0.589055  3.051506
C    -3.191453  -0.321753  2.289843
C    -3.737611  -1.560378  1.531126
O    -4.933476  -1.832478  1.635620
H    -2.097321  -1.276926  3.790370
H    -3.985181  -0.170324  3.037721
C    -3.226456  0.910526  1.377590
C    -3.141748  2.226450  2.087926
N    -3.004440  3.396140  1.366341
C    -3.194059  2.507907  3.437227
C    -2.978645  4.367788  2.258262
N    -3.090357  3.880568  3.528390
H    -4.187918  0.861259  0.842828
H    -2.455237  0.872359  0.596445
H    -3.270240  1.881272  4.316860
H    -2.881731  5.427129  2.044232
H    -3.087491  4.420415  4.385199
N    -2.909378  -2.332076  0.768463
C    -1.513782  -2.146543  0.402556
H    -3.406575  -3.104853  0.336925
H    -1.330637  -1.152599  -0.027113
H    -0.833193  -2.296880  1.250516
H    -1.266265  -2.883910  -0.368387
