29
Energy: -19618.7113219 eV PBE+vdW (tier 2 basis)
C    0.338423  1.110457  0.010130
C    0.536658  0.514615  1.392422
O    1.624354  0.086993  1.771524
H    -0.695723  1.415079  -0.191824
H    0.654823  0.378062  -0.742864
H    0.994759  1.984077  -0.090749
N    -0.594523  0.470278  2.170503
C    -0.540724  0.126040  3.583708
C    -1.087155  -1.277440  3.927224
O    -1.218483  -1.627529  5.099998
H    -1.428391  0.988978  1.879443
H    0.524480  0.102735  3.862264
C    -1.273726  1.187211  4.431059
C    -2.719446  1.313543  4.070910
N    -3.124475  1.729867  2.810316
C    -3.824606  1.015165  4.834975
C    -4.444506  1.687660  2.819298
N    -4.914210  1.263274  4.026700
H    -0.762678  2.151561  4.295687
H    -1.181231  0.897756  5.483993
H    -3.922732  0.641025  5.846106
H    -5.097900  1.953007  1.994997
H    -5.886481  1.156093  4.288092
N    -1.383103  -2.060351  2.859171
C    -1.829959  -3.430644  2.987734
H    -1.212520  -1.659032  1.943308
H    -1.954019  -3.638962  4.056238
H    -1.093292  -4.133464  2.572489
H    -2.791615  -3.584053  2.478145
