29
Energy: -19618.2299408 eV PBE+vdW (tier 2 basis)
C    -0.058672  -0.697778  0.022468
C    -0.141281  -0.601402  1.535201
O    0.787535  -0.940510  2.262758
H    -0.815131  -1.389144  -0.373710
H    0.934893  -1.074303  -0.233449
H    -0.205039  0.276738  -0.464514
N    -1.300251  -0.093863  2.074384
C    -2.546679  0.229488  1.394977
C    -3.178329  1.477389  2.057705
O    -4.288680  1.449835  2.587554
H    -1.345776  -0.197445  3.085498
H    -2.295366  0.513809  0.361858
C    -3.544159  -0.951463  1.332102
C    -3.635769  -1.752852  2.592545
N    -3.018563  -2.987391  2.682846
C    -4.252976  -1.446168  3.788131
C    -3.260890  -3.422797  3.904310
N    -4.005274  -2.522480  4.613175
H    -3.210612  -1.637383  0.542367
H    -4.526372  -0.554054  1.044606
H    -4.820128  -0.578840  4.100265
H    -2.926487  -4.365785  4.324127
H    -4.326168  -2.625126  5.568212
N    -2.443384  2.628491  2.026459
C    -1.147891  2.876491  1.414150
H    -2.899030  3.399998  2.503203
H    -1.011628  3.959780  1.323024
H    -1.096266  2.454133  0.401607
H    -0.317047  2.463380  2.002478
