29
Energy: -19618.4795434 eV PBE+vdW (tier 2 basis)
C    1.276375  -2.217504  1.973469
C    1.036603  -1.374114  3.213866
O    1.487943  -1.676289  4.314162
H    2.262938  -2.686182  2.044573
H    1.205567  -1.647412  1.038326
H    0.522586  -3.017260  1.945730
N    0.279880  -0.241760  3.004309
C    -0.376437  0.503386  4.084049
C    0.561401  1.402010  4.916227
O    0.167003  1.906572  5.965338
H    -0.177813  -0.174276  2.101712
H    -1.060954  1.196444  3.572439
C    -1.239376  -0.384174  5.004579
C    -2.182003  -1.234653  4.218329
N    -2.965665  -0.714293  3.202397
C    -2.409209  -2.588603  4.334500
C    -3.662199  -1.729228  2.726784
N    -3.362327  -2.889077  3.381799
H    -1.781206  0.290856  5.680722
H    -0.593318  -1.015767  5.625401
H    -1.990424  -3.339992  4.992554
H    -4.387386  -1.684166  1.920574
H    -3.767766  -3.800713  3.209628
N    1.783132  1.640009  4.370581
C    2.796301  2.423084  5.047038
H    2.032811  1.097259  3.552291
H    3.593963  1.784884  5.455878
H    2.311544  2.950679  5.875468
H    3.243036  3.157277  4.363276
