29
Energy: -19618.2003222 eV PBE+vdW (tier 2 basis)
C    -0.709839  0.793692  -0.369760
C    -0.302401  0.257626  0.992785
O    0.857651  -0.096438  1.217168
H    -0.647724  -0.025451  -1.098335
H    0.010722  1.561118  -0.674755
H    -1.722020  1.215162  -0.401672
N    -1.316364  0.184835  1.901220
C    -1.287862  -0.345396  3.270078
C    -1.054182  0.793845  4.300143
O    -2.047335  1.338451  4.788909
H    -2.215917  0.542124  1.604682
H    -2.330304  -0.615798  3.480356
C    -0.477105  -1.646935  3.439125
C    -1.010403  -2.734086  2.563282
N    -2.246664  -3.309987  2.787463
C    -0.430751  -3.282044  1.439556
C    -2.409521  -4.195562  1.823754
N    -1.334795  -4.216761  0.979437
H    -0.574741  -1.944463  4.494018
H    0.583145  -1.501438  3.222915
H    0.508108  -3.079216  0.939119
H    -3.269122  -4.844674  1.691396
H    -1.214519  -4.815792  0.172016
N    0.197703  1.204651  4.647703
C    1.517365  0.748675  4.233536
H    0.160628  1.942277  5.345603
H    1.890019  -0.072005  4.866883
H    2.215361  1.589988  4.321647
H    1.511562  0.427892  3.185762
