29
Energy: -19618.4134008 eV PBE+vdW (tier 2 basis)
C    -0.701125  -1.305685  0.881793
C    -0.302143  -0.524836  2.119035
O    0.631640  -0.857471  2.839322
H    -1.113659  -0.672605  0.085179
H    -1.471880  -2.031641  1.178114
H    0.168856  -1.851397  0.504850
N    -1.071695  0.602110  2.350910
C    -1.186242  1.270195  3.650138
C    0.182305  1.600477  4.294768
O    0.347877  1.550302  5.510366
H    -1.894407  0.685538  1.762311
H    -1.630279  2.256985  3.435079
C    -2.142141  0.553855  4.632986
C    -1.856024  -0.896379  4.837070
N    -2.430301  -1.863873  4.030752
C    -0.984431  -1.481556  5.728401
C    -1.908263  -3.011540  4.424729
N    -1.028362  -2.828446  5.452542
H    -3.165678  0.652314  4.244011
H    -2.088342  1.095878  5.585357
H    -0.323721  -1.053190  6.470874
H    -2.136835  -3.991217  4.018207
H    -0.490184  -3.548038  5.918891
N    1.114788  2.085032  3.426921
C    2.485734  2.306529  3.846825
H    0.946184  1.901058  2.443896
H    2.479838  2.673571  4.878258
H    2.954756  3.056851  3.199280
H    3.077733  1.378178  3.813133
