29
Energy: -19618.4218817 eV PBE+vdW (tier 2 basis)
C    -0.178252  0.540684  0.343863
C    -0.338406  0.549957  1.851296
O    0.463245  1.114355  2.596687
H    -0.581678  1.484541  -0.048850
H    -0.708496  -0.287422  -0.143146
H    0.887062  0.493957  0.096367
N    -1.455401  -0.087424  2.310607
C    -1.838814  -0.081437  3.700361
C    -2.389390  -1.466774  4.055490
O    -2.990240  -2.143368  3.220437
H    -2.077067  -0.574352  1.673188
H    -0.931685  0.165807  4.268003
C    -2.932799  0.989451  4.011652
C    -2.509389  2.368636  3.629709
N    -2.728714  2.864109  2.358418
C    -1.801344  3.286925  4.375933
C    -2.159321  4.054045  2.334561
N    -1.584701  4.355633  3.536138
H    -3.177332  0.945366  5.083191
H    -3.843060  0.723012  3.456473
H    -1.421080  3.266105  5.389844
H    -2.141072  4.736498  1.491223
H    -1.077647  5.201151  3.766553
N    -2.234416  -1.888052  5.343790
C    -1.498318  -1.234747  6.414474
H    -2.666929  -2.786422  5.533612
H    -1.466396  -1.912418  7.273994
H    -1.976322  -0.299683  6.743487
H    -0.462037  -1.014131  6.123645
