29
Energy: -19618.4872756 eV PBE+vdW (tier 2 basis)
C    -2.241976  3.047953  1.145093
C    -1.841032  1.813497  0.362032
O    -0.808818  1.755642  -0.302847
H    -2.383877  2.821902  2.210841
H    -3.186678  3.467109  0.770139
H    -1.452063  3.794696  1.032432
N    -2.690509  0.732569  0.429473
C    -3.953155  0.616482  1.137833
C    -3.850429  0.321507  2.654209
O    -4.843218  0.454230  3.366390
H    -2.404408  -0.060662  -0.142815
H    -4.502597  1.567019  1.081373
C    -4.837649  -0.460422  0.456659
C    -4.130052  -1.754063  0.207086
N    -3.744810  -2.600044  1.232117
C    -3.733749  -2.280260  -1.006761
C    -3.139685  -3.616706  0.650438
N    -3.107408  -3.471164  -0.707481
H    -5.198986  -0.058858  -0.499937
H    -5.709662  -0.619406  1.104931
H    -3.853256  -1.930467  -2.025212
H    -2.713356  -4.477993  1.154682
H    -2.704064  -4.117448  -1.374847
N    -2.626794  -0.057030  3.100326
C    -2.414019  -0.537619  4.450227
H    -1.920702  -0.235576  2.394440
H    -2.462370  -1.636512  4.496486
H    -3.208425  -0.130716  5.084772
H    -1.439250  -0.202660  4.825921
