29
Energy: -19618.5685386 eV PBE+vdW (tier 2 basis)
C    0.400538  -0.974595  0.835968
C    0.664785  -0.524408  2.254888
O    1.724412  -0.793728  2.836257
H    1.350572  -1.075330  0.303090
H    -0.261431  -0.292783  0.286887
H    -0.085661  -1.959816  0.885186
N    -0.350730  0.173713  2.840017
C    -0.558427  0.359611  4.283957
C    0.372073  1.374694  4.992014
O    -0.119296  2.176510  5.790579
H    -1.197315  0.240188  2.287687
H    -1.547392  0.823581  4.375647
C    -0.589802  -0.984661  5.060348
C    -1.738446  -1.858531  4.674461
N    -1.809937  -2.497576  3.447019
C    -2.866742  -2.146080  5.414145
C    -2.952998  -3.157388  3.450099
N    -3.630629  -2.976171  4.621328
H    -0.656905  -0.743995  6.129936
H    0.359890  -1.512872  4.898518
H    -3.180428  -1.845782  6.406494
H    -3.333382  -3.778862  2.645877
H    -4.521779  -3.386497  4.871958
N    1.691040  1.268044  4.712686
C    2.685935  2.118524  5.332540
H    1.969734  0.513926  4.069672
H    3.353892  1.539743  5.987634
H    2.166482  2.870994  5.935648
H    3.296946  2.623547  4.571464
