29
Energy: -19618.510508 eV PBE+vdW (tier 2 basis)
C    -0.272289  0.268766  0.143974
C    -0.272011  -0.090824  1.616359
O    0.729044  -0.514173  2.194145
H    -1.264728  0.190846  -0.317970
H    0.433588  -0.379111  -0.384868
H    0.069616  1.308946  0.046473
N    -1.464889  0.116174  2.253459
C    -1.598723  0.033842  3.690502
C    -2.921889  -0.666222  4.022530
O    -3.970984  -0.349710  3.464069
H    -2.244194  0.521902  1.746204
H    -0.731834  -0.546481  4.037488
C    -1.577564  1.435588  4.369596
C    -0.355813  2.221863  4.027776
N    -0.289438  2.991701  2.880944
C    0.855357  2.256760  4.685925
C    0.937175  3.476585  2.844754
N    1.669466  3.059918  3.919410
H    -1.653004  1.293080  5.457682
H    -2.470953  1.989010  4.047821
H    1.206320  1.781093  5.593469
H    1.342009  4.133605  2.081993
H    2.636208  3.288379  4.115236
N    -2.840511  -1.612548  5.000747
C    -3.992778  -2.355184  5.475543
H    -1.920957  -1.856336  5.348100
H    -3.920601  -3.420200  5.212839
H    -4.878397  -1.931977  4.989883
H    -4.100227  -2.263294  6.564916
