29
Energy: -19618.3043349 eV PBE+vdW (tier 2 basis)
C    0.002045  0.056905  -0.203700
C    -0.229331  -0.756461  1.056374
O    0.629648  -1.505461  1.519521
H    0.927305  -0.292988  -0.668403
H    0.107103  1.125028  0.035171
H    -0.827161  -0.029103  -0.919132
N    -1.439200  -0.602601  1.687394
C    -2.583880  0.159182  1.218959
C    -2.390443  1.686521  1.101700
O    -2.922287  2.285727  0.166699
H    -1.599372  -1.249568  2.463091
H    -2.860558  -0.143495  0.196345
C    -3.814841  -0.103265  2.125784
C    -4.125661  -1.553257  2.292949
N    -3.365348  -2.344859  3.136207
C    -5.092184  -2.319021  1.678509
C    -3.860430  -3.563575  3.033755
N    -4.910556  -3.597383  2.163100
H    -4.666027  0.426743  1.680798
H    -3.639342  0.336585  3.118863
H    -5.869591  -2.075995  0.964775
H    -3.503384  -4.443613  3.557863
H    -5.466400  -4.409533  1.924296
N    -1.672814  2.358100  2.050381
C    -0.987334  1.882592  3.245999
H    -1.626598  3.353072  1.853282
H    -0.799902  2.748522  3.891668
H    -0.025990  1.400552  3.020804
H    -1.598713  1.172003  3.813413
