29
Energy: -19618.3226239 eV PBE+vdW (tier 2 basis)
C    -1.441222  2.199748  -0.408333
C    -0.752246  0.848867  -0.311542
O    0.125793  0.512153  -1.102522
H    -1.132063  2.669009  -1.345858
H    -1.142916  2.845506  0.429294
H    -2.537295  2.114018  -0.390820
N    -1.139803  0.015803  0.707097
C    -2.231333  0.199762  1.639026
C    -2.039274  1.430708  2.556132
O    -0.980755  1.669140  3.124414
H    -0.700180  -0.906915  0.692974
H    -3.191896  0.299997  1.095200
C    -2.337961  -1.039101  2.564256
C    -2.504921  -2.326725  1.827799
N    -1.442693  -2.901863  1.153392
C    -3.633677  -3.101398  1.666448
C    -1.916747  -3.998069  0.594691
N    -3.241499  -4.163965  0.878995
H    -3.182605  -0.884035  3.248702
H    -1.422865  -1.075730  3.173235
H    -4.646654  -3.001498  2.036738
H    -1.354811  -4.697499  -0.015074
H    -3.827397  -4.934935  0.582758
N    -3.171570  2.179770  2.717697
C    -3.219981  3.351663  3.570027
H    -3.977421  1.953698  2.147343
H    -2.263951  3.408731  4.101533
H    -4.035444  3.276002  4.302176
H    -3.352611  4.272158  2.983221
