29
Energy: -19618.3492502 eV PBE+vdW (tier 2 basis)
C    -2.589383  2.160110  0.397687
C    -1.339761  1.374480  0.748035
O    -0.235929  1.663217  0.290464
H    -3.367008  1.525491  -0.045958
H    -2.301982  2.937310  -0.315098
H    -3.022343  2.639997  1.286723
N    -1.468015  0.334485  1.641695
C    -2.685160  -0.315290  2.116683
C    -2.460180  -0.669172  3.601358
O    -2.033755  -1.771180  3.941332
H    -0.597533  -0.172496  1.790580
H    -3.508239  0.403505  2.022516
C    -3.045699  -1.583083  1.310533
C    -3.323273  -1.278028  -0.122720
N    -4.552725  -0.792073  -0.532435
C    -2.462008  -1.336711  -1.197749
C    -4.438144  -0.569707  -1.828458
N    -3.187099  -0.883036  -2.278358
H    -3.934624  -2.041454  1.765941
H    -2.226714  -2.306353  1.413756
H    -1.425454  -1.638230  -1.283759
H    -5.217530  -0.193969  -2.483359
H    -2.850163  -0.803145  -3.230060
N    -2.726245  0.309291  4.516568
C    -3.078392  1.696878  4.262939
H    -2.478121  0.046733  5.465494
H    -3.265063  2.186491  5.224453
H    -3.999239  1.780144  3.669294
H    -2.274624  2.244233  3.748001
