29
Energy: -19618.5129365 eV PBE+vdW (tier 2 basis)
C    0.158676  -0.141041  -0.065874
C    0.225331  -0.085211  1.449911
O    1.296496  -0.099492  2.060185
H    0.730421  0.700456  -0.476713
H    -0.863637  -0.109291  -0.461998
H    0.646690  -1.063114  -0.405552
N    -0.977797  -0.007765  2.082846
C    -1.103737  -0.026343  3.523221
C    -2.543845  -0.492264  3.810581
O    -3.380277  -0.531521  2.902780
H    -1.865806  -0.097203  1.589738
H    -0.375360  -0.748068  3.927384
C    -0.776166  1.366889  4.145896
C    -1.851484  2.380853  3.949409
N    -2.855372  2.548782  4.887323
C    -2.072335  3.212975  2.872913
C    -3.664455  3.463565  4.388076
N    -3.232147  3.897414  3.167719
H    0.169202  1.687127  3.690393
H    -0.590217  1.257260  5.221173
H    -1.523801  3.370334  1.952713
H    -4.561861  3.849321  4.860474
H    -3.676203  4.596952  2.585815
N    -2.862249  -0.868290  5.075868
C    -2.064890  -0.757087  6.284656
H    -3.855690  -1.047483  5.187909
H    -2.118666  0.251564  6.721811
H    -1.016133  -1.003383  6.080940
H    -2.434687  -1.482938  7.018403
