29
Energy: -19617.9273365 eV PBE+vdW (tier 2 basis)
C    0.150063  -0.536472  0.917479
C    -0.547085  0.370927  1.915473
O    -0.090068  1.473503  2.211887
H    0.565216  -1.418424  1.423944
H    0.967437  0.030639  0.464714
H    -0.522502  -0.887840  0.123713
N    -1.696333  -0.086026  2.506602
C    -2.476432  -1.290180  2.244936
C    -1.618455  -2.563132  2.492477
O    -1.057773  -2.669108  3.580020
H    -2.069038  0.561438  3.193080
H    -3.185494  -1.350237  3.084243
C    -3.363538  -1.148260  0.982988
C    -4.285398  0.019896  1.126678
N    -5.287045  0.022264  2.078263
C    -4.271629  1.221077  0.452955
C    -5.873046  1.200161  1.978818
N    -5.294129  1.963307  1.005426
H    -3.964916  -2.060636  0.862059
H    -2.759309  -1.021930  0.076092
H    -3.635705  1.609271  -0.333077
H    -6.711581  1.548121  2.573136
H    -5.556958  2.905001  0.741521
N    -1.522634  -3.586438  1.584278
C    -1.876512  -3.706034  0.177580
H    -0.969944  -4.344426  1.974061
H    -1.503887  -2.864863  -0.421188
H    -2.958639  -3.802217  0.016603
H    -1.401943  -4.615278  -0.206845
