29
Energy: -19618.2297677 eV PBE+vdW (tier 2 basis)
C    0.683064  0.573437  1.423291
C    0.153788  -0.811356  1.735690
O    0.881419  -1.736033  2.095455
H    1.775006  0.530917  1.427466
H    0.350227  1.299742  2.178653
H    0.329901  0.940657  0.450135
N    -1.202528  -0.997172  1.624089
C    -2.202310  -0.047308  1.167062
C    -2.429865  1.181746  2.072118
O    -2.651254  2.274976  1.553964
H    -1.490430  -1.963656  1.756112
H    -1.905458  0.385564  0.200505
C    -3.551800  -0.768758  0.938293
C    -3.427801  -1.905696  -0.023052
N    -3.044921  -1.701401  -1.333519
C    -3.610818  -3.253033  0.210902
C    -3.002253  -2.897813  -1.884711
N    -3.338919  -3.873857  -0.990269
H    -4.256985  -0.018768  0.554295
H    -3.955239  -1.135470  1.894035
H    -3.914516  -3.807491  1.090876
H    -2.738413  -3.116146  -2.914447
H    -3.377752  -4.869732  -1.169988
N    -2.409280  1.042670  3.433233
C    -2.237074  -0.135974  4.271701
H    -2.574979  1.926997  3.903454
H    -2.550900  0.126936  5.288502
H    -1.196033  -0.484130  4.308799
H    -2.867050  -0.971427  3.941122
