29
Energy: -19618.3703721 eV PBE+vdW (tier 2 basis)
C    -0.512528  -1.370951  0.142662
C    -0.284175  -0.460698  1.339020
O    0.843824  -0.187641  1.743292
H    0.459996  -1.757023  -0.173222
H    -0.961765  -0.818410  -0.695332
H    -1.177783  -2.213301  0.376565
N    -1.396483  0.065360  1.943634
C    -2.790836  -0.205853  1.646058
C    -3.569263  1.092016  1.919054
O    -3.425538  1.680048  2.992317
H    -1.221468  0.667505  2.746377
H    -2.877483  -0.502879  0.595979
C    -3.368604  -1.343755  2.529310
C    -4.797616  -1.652015  2.229414
N    -5.194726  -2.129343  0.991863
C    -5.896131  -1.502998  3.047484
C    -6.504795  -2.273311  1.065454
N    -6.977208  -1.906141  2.292609
H    -3.259326  -1.048946  3.581465
H    -2.746754  -2.237058  2.368765
H    -5.998849  -1.150707  4.066363
H    -7.152610  -2.636915  0.274430
H    -7.941567  -1.935336  2.600202
N    -4.418108  1.545266  0.957736
C    -4.627998  1.023174  -0.386160
H    -4.871302  2.419476  1.206950
H    -5.527014  1.493868  -0.799271
H    -4.796869  -0.060541  -0.370327
H    -3.786740  1.252059  -1.058940
