29
Energy: -19618.4836026 eV PBE+vdW (tier 2 basis)
C    1.057454  -2.644165  2.000482
C    0.417816  -1.582175  2.874915
O    0.463507  -1.634026  4.102869
H    2.108592  -2.754223  2.292998
H    1.004336  -2.424040  0.927206
H    0.560895  -3.603737  2.193395
N    -0.191536  -0.557171  2.196735
C    -0.971133  0.455477  2.888730
C    -2.462094  0.067810  2.834857
O    -3.031450  -0.068903  1.748467
H    -0.377650  -0.678333  1.206284
H    -0.597072  0.472981  3.917102
C    -0.778060  1.844846  2.252962
C    -1.574937  2.894805  2.957573
N    -1.296898  3.269510  4.259953
C    -2.673706  3.585296  2.494770
C    -2.204436  4.173805  4.574493
N    -3.063263  4.400296  3.536316
H    -1.083844  1.802060  1.197927
H    0.293278  2.089289  2.289583
H    -3.204951  3.553326  1.551638
H    -2.284295  4.694895  5.523089
H    -3.839009  5.050978  3.526296
N    -3.099284  -0.115466  4.019283
C    -2.533773  -0.022898  5.362443
H    -4.077716  -0.368636  3.922455
H    -3.307192  -0.325481  6.076461
H    -2.222932  1.003562  5.602576
H    -1.673648  -0.695682  5.481140
