32
Energy: -170820.70326 eV PBE+vdW (tier 2 basis)
C    1.640892  0.809761  2.720171
C    1.076170  2.121558  2.333709
O    1.731892  3.021644  1.805200
H    0.964724  -0.018924  2.470518
H    1.749075  0.799326  3.820824
H    2.628722  0.665959  2.272410
N    -0.325450  2.453241  2.621926
C    -1.407898  1.811574  1.794019
C    -1.441633  2.441846  0.387370
O    -1.238391  3.689461  0.190031
H    -0.550511  2.241478  3.608359
H    -1.198497  0.734578  1.682953
C    -2.763860  1.999501  2.553216
C    -2.917276  1.010278  3.733337
C    -3.980627  1.885979  1.625550
C    -1.854496  1.009716  4.837210
H    -2.742479  3.030877  2.952571
H    -3.025965  -0.007658  3.326809
H    -3.887376  1.246347  4.192442
H    -4.893129  2.023520  2.217562
H    -4.053929  0.892619  1.160075
H    -3.995705  2.649047  0.837158
H    -2.198864  0.408910  5.688442
H    -1.666882  2.016815  5.248991
H    -0.901663  0.544122  4.534814
N    -1.759606  1.655375  -0.621991
C    -1.976813  2.101066  -2.002680
H    -1.973920  0.682767  -0.409831
H    -1.680449  1.293547  -2.678960
H    -1.376670  2.993312  -2.198120
H    -3.038175  2.335048  -2.159687
Cd    0.028689  4.578246  1.676626
