32
Energy: -170819.94865 eV PBE+vdW (tier 2 basis)
C    0.452291  0.933924  1.082956
C    -0.232615  -0.124313  1.874687
O    0.410489  -0.906751  2.677163
H    0.900348  1.675095  1.762499
H    -0.222117  1.458255  0.398299
H    1.273903  0.481382  0.510723
N    -1.533695  -0.328905  1.729365
C    -2.344156  -1.310547  2.439279
C    -3.425030  -1.701001  1.396331
O    -3.807615  -0.822045  0.618851
H    -2.060654  0.168735  0.997306
H    -1.707173  -2.158744  2.722408
C    -3.058005  -0.695396  3.710744
C    -2.107246  0.068342  4.650300
C    -3.876096  -1.759590  4.450370
C    -1.151032  -0.752648  5.533272
H    -3.747952  0.064285  3.308182
H    -2.748503  0.641602  5.338677
H    -1.555586  0.834909  4.087295
H    -4.296441  -1.334679  5.371051
H    -3.271013  -2.632158  4.737737
H    -4.723606  -2.116740  3.854851
H    -0.413514  -0.073879  6.022783
H    -0.681043  -1.597478  4.981464
H    -1.625161  -1.245669  6.395927
N    -3.894448  -2.962820  1.393691
C    -4.881280  -3.435306  0.431930
H    -3.467291  -3.644059  2.016249
H    -4.390873  -3.895992  -0.439788
H    -5.477423  -2.584399  0.085711
H    -5.514143  -4.189312  0.913760
Cd    1.416748  -0.550565  4.504280
