32
Energy: -170819.657219 eV PBE+vdW (tier 2 basis)
C    0.119621  -0.706161  0.573697
C    0.008458  -0.442280  2.045220
O    1.104646  -0.553396  2.717659
H    -0.105146  0.213634  0.012533
H    -0.595291  -1.482002  0.267870
H    1.132541  -1.033471  0.326330
N    -1.144858  -0.132270  2.608904
C    -2.455633  0.020064  1.979637
C    -3.190457  0.963183  2.961988
O    -2.739798  1.113024  4.102880
H    -1.199880  0.141622  3.605828
H    -2.337527  0.491689  0.993744
C    -3.191514  -1.383748  1.805224
C    -3.932825  -1.478438  0.452338
C    -4.034575  -1.781032  3.016654
C    -5.106557  -0.538837  0.191977
H    -2.358091  -2.101393  1.743242
H    -4.298376  -2.516925  0.397769
H    -3.200491  -1.378109  -0.363856
H    -4.941010  -1.172160  3.126666
H    -3.469509  -1.712875  3.957089
H    -4.352937  -2.826112  2.914506
H    -5.833074  -0.518389  1.015560
H    -5.661353  -0.862044  -0.699634
H    -4.778585  0.487706  -0.052054
N    -4.312880  1.578917  2.529682
C    -5.089182  2.484957  3.348937
H    -4.603894  1.422841  1.563467
H    -4.800722  3.533099  3.154596
H    -4.907762  2.268469  4.406878
H    -6.150461  2.380255  3.090546
Cd    1.951990  0.185398  4.530761
