32
Energy: -170820.357714 eV PBE+vdW (tier 2 basis)
C    0.609435  1.755523  -0.116582
C    0.505305  1.118578  1.217163
O    1.344005  1.439237  2.137498
H    0.576021  2.850213  -0.034280
H    -0.136049  1.383715  -0.825281
H    1.612713  1.514363  -0.509171
N    -0.431668  0.180843  1.502976
C    -1.877637  0.221505  1.244269
C    -2.480614  1.250287  2.218035
O    -1.987041  1.435362  3.407336
H    -0.162047  -0.491170  2.227003
H    -2.051363  0.538726  0.208153
C    -2.443497  -1.220205  1.456220
C    -1.789585  -2.195009  0.446819
C    -3.973125  -1.293875  1.437479
C    -2.063089  -1.916676  -1.031126
H    -2.117784  -1.518482  2.471431
H    -2.159046  -3.197468  0.707817
H    -0.702025  -2.239751  0.616204
H    -4.440072  -0.689801  2.226089
H    -4.397418  -1.003275  0.469117
H    -4.277231  -2.331602  1.619134
H    -3.133724  -1.924037  -1.270352
H    -1.593487  -2.691394  -1.648765
H    -1.644330  -0.957084  -1.373789
N    -3.551912  1.954883  1.913794
C    -4.391005  1.942418  0.712535
H    -3.865544  2.575891  2.664646
H    -4.568639  2.981132  0.410048
H    -5.353740  1.466407  0.935421
H    -3.906651  1.404434  -0.104826
Cd    0.079912  1.522872  3.888623
