32
Energy: -170820.775836 eV PBE+vdW (tier 2 basis)
C    -0.178809  -0.168494  -0.628449
C    0.007253  0.105786  0.812906
O    1.092934  0.366578  1.332112
H    -1.024603  0.401335  -1.039765
H    -0.439150  -1.234896  -0.753426
H    0.738553  0.042646  -1.185270
N    -1.122020  0.027248  1.751598
C    -2.207875  1.063958  1.704399
C    -1.684517  2.429473  2.173204
O    -0.711364  2.533228  2.992398
H    -1.590694  -0.885062  1.667690
H    -2.573377  1.155420  0.670759
C    -3.402051  0.595300  2.600009
C    -3.206521  0.713472  4.134778
C    -3.909822  -0.784644  2.159145
C    -2.198253  -0.187788  4.856269
H    -4.201411  1.314419  2.361353
H    -4.188781  0.474893  4.571093
H    -3.030754  1.761241  4.416927
H    -3.239059  -1.615803  2.431552
H    -4.096247  -0.830343  1.077437
H    -4.862317  -1.004441  2.657337
H    -2.444086  -0.289667  5.922149
H    -1.161220  0.271313  4.937944
H    -2.095718  -1.197661  4.442162
N    -2.288274  3.535856  1.769150
C    -3.436250  3.717405  0.876472
H    -1.906367  4.386369  2.188466
H    -3.262526  4.611949  0.269193
H    -4.356058  3.858249  1.458667
H    -3.560066  2.863995  0.203855
Cd    0.297186  0.683955  3.489302
