32
Energy: -170821.173156 eV PBE+vdW (tier 2 basis)
C    1.293288  0.698300  0.853089
C    0.116864  0.304526  1.690493
O    -0.637263  -0.607411  1.217551
H    0.932437  1.017836  -0.134216
H    1.923277  -0.186973  0.689742
H    1.896775  1.498046  1.294869
N    -0.045041  0.938003  2.865179
C    -1.069661  0.919887  3.951684
C    -1.163475  -0.423403  4.699726
O    -1.741733  -1.466725  4.229192
H    0.685177  1.624156  3.038452
H    -0.636391  1.620333  4.677196
C    -2.449332  1.577938  3.616079
C    -3.232692  1.784002  4.933108
C    -3.329915  0.938422  2.528766
C    -4.462655  2.685224  4.801033
H    -2.177099  2.572719  3.224535
H    -2.549281  2.229766  5.673500
H    -3.532462  0.803937  5.342731
H    -2.831887  0.839999  1.548249
H    -4.197166  1.578729  2.308464
H    -3.847549  0.010258  2.887301
H    -4.892231  2.876224  5.791222
H    -5.259085  2.234064  4.195331
H    -4.204342  3.658449  4.362377
N    -0.658442  -0.477895  5.918342
C    -0.706364  -1.663893  6.781688
H    -0.243358  0.365422  6.305855
H    -1.700768  -1.761998  7.236078
H    0.042972  -1.546530  7.569004
H    -0.489643  -2.560207  6.192285
Cd    -2.303956  -1.478204  2.185089
