32
Energy: -170821.107597 eV PBE+vdW (tier 2 basis)
C    -0.149607  2.701592  1.264080
C    -0.373419  2.002388  2.563205
O    0.252402  2.466182  3.582166
H    -0.497747  3.740690  1.365517
H    -0.678799  2.228431  0.429854
H    0.926051  2.746954  1.050184
N    -1.208501  0.953986  2.594058
C    -1.892719  0.342851  3.747558
C    -1.114754  -0.865028  4.322148
O    -0.096454  -0.675322  5.097119
H    -1.625246  0.712183  1.695538
H    -1.860756  1.082725  4.570878
C    -3.418417  0.159664  3.439254
C    -3.784732  -0.281018  2.003388
C    -4.138781  1.474988  3.781174
C    -3.286849  -1.635517  1.493036
H    -3.775981  -0.609503  4.143496
H    -3.520494  0.516755  1.285464
H    -4.883298  -0.287285  1.975179
H    -3.993333  1.760607  4.831727
H    -5.217925  1.369729  3.621113
H    -3.796353  2.303111  3.143501
H    -3.695755  -1.836106  0.495109
H    -3.645532  -2.467050  2.123471
H    -2.192373  -1.705459  1.388898
N    -1.497402  -2.094088  4.079887
C    -0.853494  -3.300628  4.612727
H    -2.279623  -2.220199  3.435229
H    -0.488012  -3.108779  5.625581
H    -0.011846  -3.594114  3.971845
H    -1.594139  -4.105086  4.628915
Cd    0.583889  1.305350  5.307701
