32
Energy: -170821.1751 eV PBE+vdW (tier 2 basis)
C    0.319630  1.990898  1.294820
C    0.139007  0.958141  2.360457
O    1.188013  0.564871  2.966849
H    -0.616023  2.290797  0.811623
H    1.003805  1.589373  0.533489
H    0.810801  2.872568  1.727772
N    -1.107620  0.515303  2.592285
C    -1.700384  -0.609631  3.370953
C    -1.757136  -0.317063  4.876497
O    -0.717186  -0.153513  5.600398
H    -1.797182  0.981490  2.009077
H    -2.738466  -0.570973  3.021310
C    -1.247484  -2.097847  2.998097
C    -0.533558  -2.989800  4.054089
C    -0.601231  -2.172159  1.611048
C    0.993932  -2.917683  4.248907
H    -2.223468  -2.597118  2.909382
H    -0.738101  -4.016245  3.718128
H    -1.036621  -2.917746  5.028071
H    -0.486880  -3.222835  1.315985
H    0.393787  -1.709088  1.566344
H    -1.223923  -1.693971  0.845098
H    1.303721  -2.505628  5.261552
H    1.555387  -2.498539  3.394499
H    1.449910  -3.912516  4.381416
N    -2.952748  -0.265919  5.439294
C    -3.195934  -0.045582  6.868891
H    -3.769575  -0.346978  4.838891
H    -4.116912  -0.565269  7.149571
H    -3.308680  1.027429  7.071088
H    -2.354784  -0.435210  7.448325
Cd    1.230711  -0.477945  4.789957
