32
Energy: -170821.205394 eV PBE+vdW (tier 2 basis)
C    -1.674608  -0.118080  -0.333116
C    -1.270127  0.258821  1.057775
O    -0.158124  -0.196290  1.475432
H    -2.652711  0.276118  -0.627636
H    -1.685807  -1.213648  -0.413166
H    -0.909882  0.243023  -1.034544
N    -2.107520  1.049556  1.750457
C    -2.142530  1.568337  3.143612
C    -0.990460  2.526580  3.501189
O    0.226439  2.187055  3.696876
H    -2.936099  1.302245  1.218802
H    -3.020162  2.225630  3.109309
C    -2.545794  0.527256  4.259784
C    -1.825659  -0.840165  4.346251
C    -4.057264  0.264856  4.114710
C    -0.452455  -0.914612  5.052923
H    -2.387006  1.063620  5.211114
H    -1.790174  -1.319818  3.358038
H    -2.497418  -1.485783  4.926667
H    -4.287084  -0.283620  3.190086
H    -4.635053  1.198357  4.115207
H    -4.422328  -0.341528  4.951781
H    0.339206  -1.458537  4.452149
H    -0.451215  -1.598055  5.917768
H    -0.105132  0.037223  5.494791
N    -1.314669  3.797379  3.674170
C    -0.360473  4.839090  4.073415
H    -2.280861  4.077294  3.530586
H    0.073837  4.599444  5.051241
H    -0.896585  5.789240  4.134443
H    0.443858  4.917839  3.332663
Cd    0.893679  0.223545  3.263755
