32
Energy: -170821.072357 eV PBE+vdW (tier 2 basis)
C    -0.309290  0.133845  -0.218872
C    -0.384401  -0.080063  1.256063
O    0.728205  -0.091346  1.894075
H    0.112785  1.133388  -0.403547
H    -1.286633  0.064777  -0.708844
H    0.385047  -0.592064  -0.661021
N    -1.588321  -0.228624  1.826840
C    -1.943313  -0.126997  3.257783
C    -1.845190  -1.507061  3.946658
O    -0.748232  -1.871423  4.526972
H    -2.378629  -0.207528  1.183781
H    -1.165058  0.490924  3.743823
C    -3.250758  0.708872  3.416295
C    -3.404265  1.268737  4.849839
C    -4.539513  0.060745  2.880802
C    -3.588705  0.266300  5.991534
H    -3.045020  1.582878  2.775580
H    -4.269642  1.946525  4.822988
H    -2.539766  1.916994  5.065378
H    -4.423256  -0.469553  1.922106
H    -5.281489  0.848027  2.699371
H    -5.016819  -0.619323  3.602067
H    -3.790799  0.805741  6.924425
H    -2.693111  -0.345075  6.179396
H    -4.438969  -0.410560  5.832277
N    -2.866385  -2.330146  3.941989
C    -2.885479  -3.656626  4.567102
H    -3.742326  -1.970552  3.563529
H    -3.630075  -4.270306  4.052071
H    -3.158539  -3.565771  5.627114
H    -1.897662  -4.118773  4.488653
Cd    0.977316  -0.872930  3.838192
