32
Energy: -170820.717527 eV PBE+vdW (tier 2 basis)
C    0.704824  -0.385458  2.196346
C    -0.060447  0.255941  3.287632
O    0.451969  0.766672  4.283410
H    0.334045  -0.081649  1.207366
H    0.549928  -1.478104  2.259645
H    1.773778  -0.176204  2.296609
N    -1.531663  0.267089  3.271342
C    -2.251783  1.171513  2.316123
C    -2.076167  2.651679  2.689713
O    -1.850689  3.046743  3.879966
H    -1.885223  -0.684473  3.111978
H    -1.837617  1.040189  1.305344
C    -3.769727  0.762092  2.266947
C    -4.396282  0.259939  3.592562
C    -3.975437  -0.291165  1.168265
C    -4.431232  1.163744  4.825906
H    -4.315017  1.673517  1.975608
H    -3.995245  -0.730519  3.861159
H    -5.447064  0.049634  3.340572
H    -3.647655  0.075367  0.187342
H    -5.035497  -0.558772  1.082914
H    -3.431186  -1.225216  1.380736
H    -3.545188  1.009564  5.523516
H    -5.252839  0.889488  5.501515
H    -4.509448  2.235382  4.609173
N    -2.204752  3.557802  1.732027
C    -2.462391  3.356613  0.300870
H    -2.131188  4.522388  2.058596
H    -2.346757  4.323437  -0.196472
H    -3.482552  2.995511  0.121817
H    -1.737474  2.662121  -0.140819
Cd    -1.507883  1.467449  5.308765
