32
Energy: -170821.148919 eV PBE+vdW (tier 2 basis)
C    -0.725318  0.508057  -0.280301
C    -0.824653  0.497294  1.208219
O    -0.851691  1.638300  1.793592
H    -0.645662  -0.497222  -0.708269
H    0.133621  1.117635  -0.588867
H    -1.625151  0.997397  -0.683203
N    -0.895074  -0.681534  1.842647
C    -1.331787  -0.949224  3.226786
C    -0.115510  -0.945210  4.182322
O    0.264956  0.143433  4.762080
H    -0.854291  -1.499200  1.236336
H    -1.968561  -0.100581  3.544118
C    -2.239575  -2.204634  3.309783
C    -3.403675  -2.108987  2.295648
C    -2.748470  -2.373476  4.748662
C    -4.315484  -3.338008  2.283331
H    -1.631612  -3.088655  3.028577
H    -3.009582  -1.964970  1.277480
H    -3.995925  -1.206607  2.525345
H    -1.950511  -2.371139  5.502544
H    -3.276305  -3.327158  4.852066
H    -3.462269  -1.577846  5.006174
H    -5.051914  -3.246580  1.476545
H    -4.875053  -3.452631  3.218778
H    -3.747936  -4.262161  2.107303
N    0.545381  -2.057819  4.403839
C    1.721733  -2.195509  5.270770
H    0.156740  -2.911690  4.005225
H    1.407036  -2.482975  6.282743
H    2.260687  -1.245857  5.314338
H    2.366861  -2.976956  4.857586
Cd    -0.430005  1.914515  3.842807
