32
Energy: -170821.058467 eV PBE+vdW (tier 2 basis)
C    -0.171250  0.174380  -0.096221
C    -0.017411  0.094950  1.390191
O    1.167547  -0.047467  1.834902
H    0.426171  1.017681  -0.469251
H    -1.209802  0.292049  -0.422831
H    0.250316  -0.735838  -0.544467
N    -1.134385  0.184509  2.133976
C    -1.425889  0.113616  3.593245
C    -0.745191  1.228958  4.407239
O    0.458358  1.131800  4.850922
H    -1.973522  0.291473  1.569736
H    -2.495518  0.345634  3.626135
C    -1.370047  -1.312356  4.234313
C    -2.019712  -1.301379  5.637170
C    -0.027823  -2.066164  4.281025
C    -3.501453  -0.923365  5.672056
H    -2.015624  -1.912125  3.570328
H    -1.437465  -0.652615  6.313216
H    -1.910182  -2.316813  6.044987
H    0.464214  -2.174625  3.296721
H    -0.184633  -3.108711  4.598856
H    0.639754  -1.699213  5.102159
H    -4.096342  -1.553520  4.996827
H    -3.692910  0.127697  5.414398
H    -3.900363  -1.068254  6.682887
N    -1.410677  2.323482  4.734151
C    -2.779958  2.757042  4.447151
H    -0.860018  2.969546  5.306514
H    -3.397224  2.677514  5.350891
H    -3.228577  2.171116  3.641614
H    -2.748214  3.806728  4.132714
Cd    1.776831  -0.197730  3.859440
