32
Energy: -170819.522946 eV PBE+vdW (tier 2 basis)
C    -1.325102  0.884759  -0.659833
C    -0.675435  0.802320  0.689302
O    0.331124  1.595727  0.854678
H    -2.281213  1.422760  -0.566998
H    -1.515691  -0.115277  -1.066984
H    -0.682587  1.441408  -1.347402
N    -1.101317  -0.016338  1.632207
C    -2.239082  -0.946125  1.624686
C    -2.877139  -0.709167  3.013361
O    -2.125787  -0.398825  3.947067
H    -0.704908  0.047401  2.580043
H    -2.910747  -0.692663  0.796492
C    -1.761141  -2.441808  1.504515
C    -0.998516  -2.650408  0.183381
C    -2.922958  -3.427613  1.669579
C    -0.385659  -4.047187  0.037500
H    -1.061815  -2.593259  2.347063
H    -0.189485  -1.906399  0.108458
H    -1.676300  -2.467449  -0.669730
H    -3.425696  -3.339055  2.639828
H    -3.668387  -3.319257  0.868642
H    -2.541403  -4.452640  1.616217
H    0.248470  -4.076509  -0.858383
H    -1.140804  -4.832726  -0.085782
H    0.236157  -4.305929  0.905212
N    -4.210405  -0.843315  3.218887
C    -5.292985  -1.035693  2.276837
H    -4.473318  -0.680646  4.194879
H    -5.981194  -0.176934  2.311832
H    -5.870142  -1.928679  2.566829
H    -4.923762  -1.168581  1.258669
Cd    1.475184  2.413310  2.457903
