32
Energy: -170820.795534 eV PBE+vdW (tier 2 basis)
C    0.117900  -1.460622  0.348974
C    -0.023238  -1.041914  1.773968
O    1.020061  -0.565495  2.343989
H    0.357029  -0.572789  -0.255270
H    -0.789901  -1.929058  -0.046667
H    0.966472  -2.150209  0.252349
N    -1.217514  -1.174637  2.372027
C    -1.625309  -0.598667  3.654458
C    -1.170323  -1.457475  4.868193
O    -0.195827  -1.002404  5.594447
H    -1.971694  -1.535144  1.788540
H    -1.031987  0.324972  3.790329
C    -3.085858  -0.032477  3.628995
C    -3.444867  0.488364  5.036160
C    -4.182168  -0.908863  3.012715
C    -4.700914  1.362196  5.069385
H    -2.977587  0.846197  2.969457
H    -2.597243  1.072997  5.433307
H    -3.576378  -0.367297  5.720273
H    -3.888289  -1.436366  2.091108
H    -5.014419  -0.262000  2.711740
H    -4.589014  -1.643339  3.714809
H    -4.850911  1.767045  6.076813
H    -5.605333  0.799391  4.808870
H    -4.616517  2.213215  4.380096
N    -1.683070  -2.611196  5.237336
C    -2.785858  -3.402894  4.693890
H    -1.233829  -2.999479  6.071200
H    -2.517190  -4.460199  4.795747
H    -2.949587  -3.177423  3.639433
H    -3.705609  -3.217845  5.262839
Cd    1.277236  -0.070901  4.391758
