32
Energy: -170821.223581 eV PBE+vdW (tier 2 basis)
C    -0.759048  -0.746667  -0.104764
C    -0.511702  -0.676638  1.367200
O    0.452154  -1.381878  1.820895
H    -1.580613  -0.103897  -0.438126
H    -0.987885  -1.789362  -0.369413
H    0.162082  -0.479308  -0.639391
N    -1.312411  0.109093  2.105283
C    -1.513438  0.240821  3.572844
C    -0.463526  1.171411  4.219323
O    0.745749  0.801183  4.435706
H    -2.008459  0.605550  1.554575
H    -2.478868  0.758438  3.652881
C    -1.715926  -1.084216  4.362937
C    -2.675926  -2.065690  3.654959
C    -2.110644  -0.759766  5.808078
C    -4.090866  -1.532503  3.408804
H    -0.744716  -1.660653  4.436135
H    -2.729823  -2.962208  4.288835
H    -2.232848  -2.403336  2.706594
H    -3.055066  -0.199608  5.840901
H    -1.351086  -0.168301  6.336126
H    -2.260794  -1.685760  6.375122
H    -4.119034  -0.686259  2.706648
H    -4.591542  -1.225980  4.335169
H    -4.702491  -2.326323  2.963108
N    -0.847524  2.379423  4.579362
C    0.000814  3.384618  5.230639
H    -1.811005  2.645610  4.387115
H    -0.578019  3.869974  6.023503
H    0.311251  4.139075  4.496401
H    0.883157  2.899706  5.654362
Cd    1.265845  -1.141750  3.756459
