32
Energy: -170820.143965 eV PBE+vdW (tier 2 basis)
C    -0.576177  -1.945713  1.375793
C    -0.763987  -1.075743  2.570012
O    -0.201453  -1.501051  3.666994
H    0.496702  -2.049300  1.162607
H    -1.094126  -1.548923  0.495905
H    -0.957019  -2.951758  1.602590
N    -1.471868  0.032193  2.473523
C    -1.907438  0.985774  3.491687
C    -3.151065  1.665357  2.789353
O    -3.206204  1.585300  1.564154
H    -1.929872  0.288580  1.572019
H    -2.281175  0.435019  4.379017
C    -0.783617  2.033358  3.851309
C    -0.936142  2.672200  5.250355
C    -0.608649  3.095400  2.759101
C    -0.663902  1.759993  6.449555
H    0.198193  1.482137  3.852982
H    -1.942158  3.103451  5.362943
H    -0.241130  3.520235  5.309764
H    -0.498691  2.648748  1.764380
H    0.282173  3.702528  2.957795
H    -1.477425  3.767118  2.731450
H    -0.667206  2.269512  7.430841
H    0.423096  1.417298  6.483481
H    -1.428422  0.966265  6.625076
N    -4.025647  2.313109  3.568384
C    -5.204528  2.998114  3.020201
H    -3.978301  2.195167  4.574429
H    -5.492843  3.804299  3.701230
H    -6.042000  2.298684  2.903521
H    -4.951049  3.416048  2.041844
Cd    0.004536  -0.312761  5.326519
