32
Energy: -170820.929516 eV PBE+vdW (tier 2 basis)
C    -0.317286  1.432095  0.092449
C    -0.834882  0.977224  1.415641
O    -1.256820  1.884052  2.215772
H    -1.145778  1.893956  -0.465610
H    0.101187  0.612847  -0.502385
H    0.440789  2.211714  0.241288
N    -0.845522  -0.336648  1.684866
C    -1.553092  -1.008774  2.782565
C    -0.715636  -0.977393  4.087401
O    -1.052901  -0.152730  5.025921
H    -0.528063  -0.937988  0.926903
H    -2.447751  -0.398551  3.020223
C    -2.132542  -2.392085  2.381481
C    -3.220311  -2.277583  1.284270
C    -2.716495  -3.077760  3.626231
C    -2.773471  -1.966669  -0.147746
H    -1.311287  -3.009148  1.981562
H    -3.990238  -1.558999  1.612361
H    -3.726343  -3.253217  1.277514
H    -3.570868  -2.515481  4.030091
H    -1.991362  -3.218176  4.438750
H    -3.087841  -4.072519  3.354951
H    -3.595836  -2.171347  -0.843869
H    -1.934747  -2.605372  -0.463569
H    -2.499828  -0.915275  -0.309339
N    0.330967  -1.744644  4.313018
C    0.910184  -2.825989  3.509732
H    0.759582  -1.591128  5.229107
H    0.389676  -3.773718  3.698393
H    1.957056  -2.934622  3.809767
H    0.880440  -2.586373  2.443725
Cd    -1.827202  1.657509  4.244446
