32
Energy: -170820.835091 eV PBE+vdW (tier 2 basis)
C    0.716902  1.736431  1.075137
C    0.129265  0.661860  1.927796
O    0.211337  0.823315  3.196389
H    1.763411  1.901215  1.363045
H    0.179290  2.675179  1.275363
H    0.655445  1.509485  0.005257
N    -0.449090  -0.389078  1.328575
C    -1.332594  -1.396531  1.925196
C    -0.556553  -2.587730  2.544102
O    -0.338152  -2.582700  3.821906
H    -0.458643  -0.367506  0.308648
H    -1.797646  -0.925184  2.811155
C    -2.549233  -1.749054  0.992049
C    -2.316287  -1.472096  -0.510263
C    -3.786200  -0.999358  1.511643
C    -3.282453  -2.241272  -1.416921
H    -2.733595  -2.827053  1.121279
H    -1.290910  -1.740330  -0.820256
H    -2.430270  -0.391443  -0.699167
H    -4.036038  -1.290880  2.541035
H    -4.662982  -1.226042  0.895217
H    -3.635578  0.089815  1.477615
H    -3.083396  -2.008801  -2.469359
H    -4.328378  -1.979703  -1.217811
H    -3.177662  -3.327561  -1.290139
N    -0.127229  -3.643100  1.883922
C    -0.237847  -4.003646  0.466710
H    0.337366  -4.329632  2.482947
H    0.461409  -4.824182  0.283319
H    0.040425  -3.161656  -0.172997
H    -1.250977  -4.344525  0.222098
Cd    -0.194610  -0.647812  4.658236
