32
Energy: -170820.490374 eV PBE+vdW (tier 2 basis)
C    0.323037  -0.460820  0.430560
C    0.106258  0.110113  1.779596
O    1.118036  0.383393  2.519682
H    0.988444  0.179051  -0.164504
H    -0.609043  -0.673467  -0.100593
H    0.867480  -1.411462  0.570739
N    -1.136201  0.337528  2.289260
C    -2.294738  0.963891  1.654059
C    -2.171789  2.501568  1.861521
O    -1.344181  3.060293  2.683067
H    -1.222887  0.216965  3.302752
H    -2.245041  0.769422  0.572857
C    -3.614490  0.350747  2.219781
C    -4.855723  0.732565  1.384206
C    -3.794442  0.651151  3.712438
C    -6.025750  -0.240317  1.565861
H    -3.462936  -0.734216  2.089713
H    -4.586512  0.750298  0.312579
H    -5.198327  1.744805  1.657692
H    -2.974434  0.273211  4.344981
H    -4.694809  0.153549  4.089857
H    -3.913917  1.727114  3.906475
H    -6.869998  0.060952  0.935073
H    -6.388344  -0.262288  2.600863
H    -5.743570  -1.261610  1.278891
N    -2.985993  3.274594  1.177307
C    -3.044248  4.738887  1.257834
H    -3.690807  2.809723  0.604912
H    -3.468325  5.116383  0.323126
H    -2.038135  5.143020  1.400052
H    -3.680964  5.047810  2.097075
Cd    0.436009  2.207211  3.463912
