32
Energy: -170820.45908 eV PBE+vdW (tier 2 basis)
C    -0.287396  0.319669  -0.768570
C    -0.064658  0.208289  0.691387
O    1.124002  0.028958  1.138417
H    0.309502  1.138097  -1.194272
H    -1.343891  0.415423  -1.033907
H    0.106913  -0.605030  -1.224864
N    -1.080683  0.266880  1.596007
C    -2.202223  1.201022  1.676596
C    -1.715162  2.475090  2.409883
O    -0.626018  2.524916  3.111604
H    -0.966992  -0.319491  2.429180
H    -2.495778  1.486972  0.656389
C    -3.413984  0.523686  2.390009
C    -3.036005  0.003268  3.793716
C    -4.010706  -0.547973  1.471563
C    -4.241571  -0.432473  4.632920
H    -4.166959  1.314108  2.529289
H    -2.491539  0.786804  4.349393
H    -2.354488  -0.866105  3.708323
H    -4.298706  -0.134038  0.495717
H    -4.915930  -0.972186  1.919030
H    -3.312013  -1.379263  1.300801
H    -4.963731  0.387390  4.743843
H    -3.920089  -0.729775  5.637654
H    -4.763267  -1.289258  4.191090
N    -2.436378  3.577065  2.371540
C    -3.715081  3.840496  1.702659
H    -2.048045  4.352192  2.914050
H    -3.671638  4.847639  1.273682
H    -4.538366  3.799093  2.427150
H    -3.898600  3.123868  0.897883
Cd    1.046668  1.233049  2.938057
