32
Energy: -170820.256928 eV PBE+vdW (tier 2 basis)
C    -0.195147  0.190901  -0.524874
C    -0.191520  0.151094  0.955818
O    0.761897  0.716407  1.602543
H    -0.080012  1.218900  -0.892221
H    -1.070197  -0.297887  -0.962685
H    0.705278  -0.353538  -0.861077
N    -1.151223  -0.492577  1.671853
C    -2.613708  -0.416106  1.553319
C    -3.028648  0.999995  2.000200
O    -2.406945  1.628922  2.952219
H    -0.841081  -0.862694  2.575812
H    -2.901873  -0.565526  0.505582
C    -3.219530  -1.592900  2.400732
C    -4.751859  -1.750397  2.258858
C    -2.765258  -1.590130  3.866533
C    -5.639894  -0.926448  3.196424
H    -2.772635  -2.472842  1.908749
H    -4.963087  -2.814001  2.440273
H    -5.035299  -1.591902  1.207220
H    -3.200314  -2.459747  4.375624
H    -3.090817  -0.699206  4.418902
H    -1.676813  -1.715421  4.003300
H    -5.439992  0.153504  3.173575
H    -5.539151  -1.247500  4.240290
H    -6.693652  -1.067990  2.927439
N    -4.043531  1.635254  1.447774
C    -5.005849  1.201240  0.432174
H    -4.218147  2.559135  1.852226
H    -4.620627  0.358175  -0.145699
H    -5.190296  2.045518  -0.241389
H    -5.950508  0.911062  0.909180
Cd    -0.311372  1.564664  3.283940
