32
Energy: -170820.76065 eV PBE+vdW (tier 2 basis)
C    0.586097  -0.795538  3.355338
C    -0.189415  -0.131785  4.425689
O    0.225685  0.037509  5.573644
H    0.504906  -0.260842  2.398911
H    0.147015  -1.796385  3.185947
H    1.631686  -0.917616  3.652828
N    -1.565674  0.321479  4.182275
C    -1.788618  1.532159  3.323080
C    -1.577867  2.842281  4.117067
O    -1.668653  2.926718  5.389133
H    -2.119695  -0.437589  3.757299
H    -1.059058  1.523002  2.497309
C    -3.226673  1.462107  2.711342
C    -4.336515  1.593882  3.774174
C    -3.363447  0.217381  1.825671
C    -5.746491  1.700664  3.183104
H    -3.290959  2.343930  2.052132
H    -4.149248  2.488925  4.389420
H    -4.308061  0.724385  4.457589
H    -2.528272  0.110409  1.120122
H    -4.280125  0.280570  1.228592
H    -3.461167  -0.718578  2.403678
H    -5.814086  2.529673  2.465864
H    -6.477563  1.890948  3.977141
H    -6.053911  0.780504  2.672485
N    -1.346314  3.927636  3.404598
C    -1.209621  5.283315  3.953015
H    -1.304996  3.831355  2.391670
H    -0.530864  5.849578  3.308489
H    -0.802598  5.229256  4.966057
H    -2.187426  5.781183  3.978300
Cd    -1.666263  1.050493  6.414769
