32
Energy: -170820.813621 eV PBE+vdW (tier 2 basis)
C    1.038152  0.828325  0.642675
C    0.593320  -0.385771  1.385702
O    1.469089  -0.990197  2.096752
H    1.926533  0.586016  0.045004
H    1.342449  1.594757  1.370913
H    0.255451  1.239042  -0.004560
N    -0.687515  -0.779951  1.281784
C    -1.321817  -1.796731  2.117626
C    -1.038957  -3.243958  1.632047
O    -0.285617  -3.987960  2.381117
H    -1.297474  -0.190110  0.718092
H    -0.793135  -1.761124  3.088122
C    -2.768140  -1.425575  2.566927
C    -3.253033  -2.417109  3.647370
C    -3.820709  -1.222037  1.475891
C    -2.414017  -2.480141  4.925375
H    -2.611777  -0.450723  3.063046
H    -3.366516  -3.422816  3.209439
H    -4.272466  -2.106230  3.916366
H    -4.193152  -2.169280  1.070124
H    -3.489840  -0.586211  0.640625
H    -4.681545  -0.706193  1.919320
H    -1.434476  -2.970953  4.782661
H    -2.924859  -3.079877  5.688341
H    -2.247639  -1.483035  5.357099
N    -1.490832  -3.793738  0.524723
C    -2.309523  -3.271915  -0.569879
H    -1.180415  -4.762709  0.408956
H    -3.309805  -3.720681  -0.542322
H    -2.393876  -2.186906  -0.518699
H    -1.824719  -3.554010  -1.512256
Cd    1.271801  -2.801671  3.208048
