32
Energy: -170819.568965 eV PBE+vdW (tier 2 basis)
C    -0.124207  0.198163  -0.034648
C    -0.124392  0.340275  1.457942
O    1.050863  0.418946  1.993282
H    -0.341473  1.179270  -0.485402
H    -0.886135  -0.518512  -0.365769
H    0.861251  -0.126608  -0.379877
N    -1.239527  0.388424  2.156847
C    -2.625263  0.298521  1.675543
C    -3.408702  1.066245  2.758244
O    -2.906955  1.175062  3.885977
H    -1.228577  0.572761  3.172935
H    -2.698523  0.781281  0.693478
C    -3.092613  -1.208624  1.561998
C    -4.283374  -1.396687  0.608645
C    -3.324606  -1.858646  2.926050
C    -4.029092  -1.019962  -0.849855
H    -2.224066  -1.703236  1.090783
H    -5.177702  -0.888854  1.001977
H    -4.540322  -2.466177  0.654583
H    -3.456371  -2.940702  2.799056
H    -2.482921  -1.721060  3.618410
H    -4.231916  -1.480326  3.416904
H    -4.908487  -1.244438  -1.465431
H    -3.190086  -1.592263  -1.271009
H    -3.810075  0.048911  -1.004959
N    -4.634606  1.594713  2.512605
C    -5.306591  1.863388  1.259507
H    -5.049904  2.009287  3.351651
H    -5.435774  2.949971  1.130430
H    -6.316310  1.421480  1.284580
H    -4.756621  1.457920  0.408960
Cd    1.899994  0.987360  3.858353
