32
Energy: -170820.86785 eV PBE+vdW (tier 2 basis)
C    -0.754675  0.356737  6.041739
C    -2.217508  0.564899  6.099831
O    -2.832137  0.875654  7.121233
H    -0.308186  0.875554  5.181202
H    -0.559545  -0.719420  5.884206
H    -0.279835  0.670904  6.975567
N    -3.058779  0.353791  4.914368
C    -3.007795  1.336685  3.780160
C    -3.585313  2.700147  4.204694
O    -4.510206  2.807402  5.072886
H    -2.879001  -0.573227  4.505547
H    -1.959945  1.481607  3.470069
C    -3.795395  0.750142  2.562175
C    -5.344193  0.774005  2.652942
C    -3.235618  -0.620648  2.156981
C    -6.072504  -0.123181  3.660060
H    -3.551028  1.445154  1.742734
H    -5.696617  0.456845  1.659299
H    -5.704451  1.807527  2.752410
H    -3.500163  -1.434190  2.852092
H    -2.143050  -0.603752  2.042916
H    -3.653296  -0.918734  1.187228
H    -7.108372  -0.316408  3.348705
H    -6.266465  0.382813  4.661033
H    -5.598039  -1.092933  3.850648
N    -3.120698  3.763058  3.571531
C    -3.606909  5.136360  3.747513
H    -2.381107  3.620393  2.886390
H    -4.141892  5.457943  2.845301
H    -2.750286  5.798936  3.913280
H    -4.278501  5.174843  4.607659
Cd    -4.941042  0.981155  6.158830
