32
Energy: -170821.223005 eV PBE+vdW (tier 2 basis)
C    -0.089708  0.144792  -0.494285
C    -0.064674  -0.260631  0.945272
O    1.051391  -0.660022  1.412473
H    -1.082436  0.440433  -0.848961
H    0.274996  -0.696657  -1.099996
H    0.617169  0.972099  -0.645141
N    -1.216202  -0.183897  1.633067
C    -1.659987  -0.647956  2.979049
C    -1.199120  0.290114  4.107188
O    0.033354  0.514482  4.375422
H    -1.984059  0.176499  1.072846
H    -2.747588  -0.518564  2.906120
C    -1.524533  -2.186576  3.292875
C    -0.187909  -2.747545  3.848740
C    -2.023619  -2.996788  2.090328
C    -0.272795  -4.180972  4.407831
H    -2.243429  -2.320842  4.119634
H    0.144241  -2.129613  4.718166
H    0.571748  -2.791924  3.030190
H    -2.980355  -2.610949  1.714445
H    -2.194867  -4.040751  2.372527
H    -1.303005  -2.991057  1.261270
H    0.674532  -4.473510  4.874686
H    -0.488160  -4.903485  3.613802
H    -1.058352  -4.244507  5.171378
N    -2.137319  0.868733  4.836548
C    -1.889426  1.751869  5.981224
H    -3.108088  0.731601  4.564315
H    -2.665942  1.576329  6.732432
H    -1.927423  2.800613  5.659141
H    -0.903801  1.537812  6.401584
Cd    1.502179  -0.742955  3.480281
