32
Energy: -170820.520395 eV PBE+vdW (tier 2 basis)
C    -3.203465  -0.493471  -0.930492
C    -2.690844  0.298911  0.210667
O    -2.723420  1.579657  0.156633
H    -2.588634  -0.223066  -1.807325
H    -4.230836  -0.199600  -1.183312
H    -3.121692  -1.572817  -0.774091
N    -2.152708  -0.278960  1.321473
C    -2.657501  -1.397726  2.114908
C    -3.695976  -0.838803  3.124023
O    -3.814760  0.413293  3.426381
H    -1.396824  0.249668  1.767110
H    -3.180359  -2.094881  1.445348
C    -1.462663  -2.142965  2.795053
C    -1.851878  -3.489853  3.434716
C    -0.714910  -1.249577  3.791956
C    -2.611934  -4.467227  2.535351
H    -0.795446  -2.369882  1.946173
H    -2.386462  -3.321076  4.384512
H    -0.906942  -3.961336  3.740572
H    -0.300409  -0.328953  3.348653
H    0.152290  -1.788598  4.192237
H    -1.342523  -0.967255  4.649555
H    -3.633417  -4.142522  2.266917
H    -2.724676  -5.436895  3.033996
H    -2.078900  -4.648477  1.591749
N    -4.472263  -1.705927  3.736246
C    -5.481835  -1.385224  4.751605
H    -4.314074  -2.692420  3.528520
H    -6.243588  -2.169931  4.737884
H    -5.939210  -0.417602  4.527838
H    -5.019165  -1.345773  5.746374
Cd    -3.210399  2.047944  2.214740
