32
Energy: -170820.733772 eV PBE+vdW (tier 2 basis)
C    0.026523  0.155033  -0.014487
C    -0.049085  -0.083401  1.456324
O    1.017068  0.127475  2.133929
H    0.233716  1.221679  -0.187022
H    -0.896863  -0.119454  -0.536201
H    0.872149  -0.405978  -0.433104
N    -1.212673  -0.490264  1.987344
C    -1.550863  -0.538896  3.413420
C    -1.005370  -1.825146  4.090439
O    -0.017537  -1.689292  4.922892
H    -1.992348  -0.581560  1.337442
H    -0.958265  0.255553  3.905758
C    -3.009384  -0.032842  3.676232
C    -3.282110  0.154657  5.187222
C    -4.154174  -0.735085  2.940509
C    -3.495943  -1.100351  6.036801
H    -2.949153  0.986728  3.256241
H    -4.180834  0.784317  5.253804
H    -2.474133  0.765608  5.623374
H    -3.971410  -0.895959  1.866272
H    -5.038401  -0.087254  2.992507
H    -4.435050  -1.692688  3.387372
H    -3.794965  -0.808944  7.050765
H    -2.589629  -1.710631  6.151956
H    -4.297445  -1.740534  5.646805
N    -1.427159  -3.053803  3.881541
C    -2.520261  -3.588311  3.071888
H    -0.909636  -3.748644  4.426849
H    -2.170803  -4.520988  2.614508
H    -2.808960  -2.889529  2.286688
H    -3.386958  -3.811164  3.707008
Cd    1.375960  -0.271015  4.189907
