32
Energy: -170821.081406 eV PBE+vdW (tier 2 basis)
C    -0.665945  -0.679068  -0.054873
C    -0.487595  -0.422929  1.404238
O    0.523949  0.291757  1.743738
H    -1.523281  -1.325969  -0.269616
H    0.251014  -1.119007  -0.467733
H    -0.810754  0.287442  -0.560843
N    -1.381710  -0.932067  2.260767
C    -1.642622  -0.539023  3.661553
C    -0.857692  -1.426525  4.652223
O    0.369242  -1.148357  4.951620
H    -2.116184  -1.503733  1.841979
H    -1.206578  0.469500  3.793895
C    -3.166537  -0.319245  3.917836
C    -4.123577  -1.539385  3.823849
C    -3.650124  0.837036  3.025804
C    -4.085764  -2.413747  2.564940
H    -3.208749  0.034997  4.961164
H    -5.132660  -1.113712  3.922051
H    -4.050489  -2.178859  4.721525
H    -3.710161  0.560422  1.964846
H    -3.002312  1.720722  3.109384
H    -4.655637  1.143878  3.335673
H    -4.193279  -1.824289  1.641549
H    -4.929587  -3.114173  2.568847
H    -3.183792  -3.044436  2.494714
N    -1.424177  -2.465277  5.217010
C    -0.771421  -3.367081  6.174328
H    -2.413561  -2.613458  5.015571
H    0.266070  -3.540659  5.873829
H    -1.320962  -4.312236  6.184464
H    -0.788084  -2.925041  7.179019
Cd    1.331963  0.236523  3.687647
