32
Energy: -170821.054063 eV PBE+vdW (tier 2 basis)
C    -0.075908  -0.039578  0.007450
C    0.027645  -0.158956  1.493783
O    1.142562  -0.553563  1.965236
H    -1.037597  0.359474  -0.331853
H    0.079796  -1.033742  -0.435862
H    0.738047  0.600917  -0.357497
N    -1.058022  0.148215  2.224621
C    -1.344778  0.069251  3.679568
C    -0.557308  1.147107  4.465086
O    0.652806  0.963790  4.841625
H    -1.852806  0.447281  1.665885
H    -2.402350  0.353234  3.742417
C    -1.290429  -1.325342  4.364994
C    -1.880992  -2.476101  3.517062
C    -1.934946  -1.205641  5.750914
C    -0.878813  -3.272055  2.683378
H    -0.220931  -1.654676  4.563892
H    -2.681848  -2.076428  2.874284
H    -2.375490  -3.162322  4.217483
H    -3.014824  -1.024361  5.645877
H    -1.508605  -0.398402  6.361772
H    -1.815232  -2.140962  6.309490
H    -1.361422  -4.149849  2.236555
H    -0.062292  -3.660577  3.315278
H    -0.437799  -2.701450  1.857330
N    -1.143641  2.286825  4.781093
C    -2.517906  2.727091  4.501246
H    -0.550806  2.933405  5.305701
H    -2.617418  3.751699  4.870195
H    -3.249831  2.102769  5.028408
H    -2.721497  2.736038  3.424071
Cd    1.622875  -0.756684  4.019755
