32
Energy: -170821.067336 eV PBE+vdW (tier 2 basis)
C    0.021181  -0.035465  -0.095615
C    0.071601  0.020684  1.399145
O    1.229611  0.027284  1.929356
H    0.565524  -0.927761  -0.434084
H    0.556042  0.834987  -0.500109
H    -0.996586  -0.056657  -0.499020
N    -1.101923  0.061624  2.055636
C    -1.514731  0.063821  3.489165
C    -1.054580  1.312395  4.262118
O    0.141424  1.466505  4.705002
H    -1.899098  0.044081  1.424744
H    -2.602949  0.161158  3.408905
C    -1.346883  -1.282924  4.269060
C    -2.122483  -1.180456  5.602769
C    0.065642  -1.856259  4.474940
C    -2.291971  -2.511616  6.339233
H    -1.867652  -2.017351  3.631343
H    -3.122044  -0.771150  5.386415
H    -1.626174  -0.450859  6.265449
H    0.632625  -1.998771  3.538317
H    0.013201  -2.871600  4.895589
H    0.628896  -1.327943  5.288508
H    -1.344316  -2.908795  6.724931
H    -2.749558  -3.274135  5.694575
H    -2.950543  -2.376899  7.205022
N    -1.929045  2.262122  4.544018
C    -3.358704  2.351225  4.217267
H    -1.539881  3.029313  5.096472
H    -3.534175  2.178682  3.149682
H    -3.688287  3.367669  4.450611
H    -3.947057  1.650537  4.822792
Cd    1.671890  0.188556  3.992764
