32
Energy: -170821.120354 eV PBE+vdW (tier 2 basis)
C    -0.656789  -1.373429  0.025682
C    -0.569255  -0.775339  1.392294
O    0.399921  -1.160029  2.127784
H    -1.497349  -0.991583  -0.563333
H    -0.754539  -2.463978  0.128208
H    0.284516  -1.189004  -0.509120
N    -1.512644  0.110861  1.754083
C    -1.856686  0.724323  3.063590
C    -0.945057  1.933118  3.369348
O    0.256317  1.789334  3.799397
H    -2.197714  0.291776  1.024897
H    -2.865642  1.123048  2.902193
C    -2.010449  -0.235914  4.278392
C    -2.814922  -1.500722  3.925751
C    -2.576146  0.554151  5.463307
C    -2.887101  -2.529563  5.053144
H    -1.005551  -0.631911  4.624412
H    -2.386468  -1.977975  3.033121
H    -3.832889  -1.179154  3.645336
H    -1.983979  1.446107  5.707502
H    -2.609200  -0.067660  6.363855
H    -3.606869  0.872004  5.248867
H    -3.413344  -3.426369  4.705913
H    -3.427338  -2.158014  5.931385
H    -1.884810  -2.849713  5.376195
N    -1.397296  3.161296  3.205359
C    -2.723614  3.607233  2.753182
H    -0.724988  3.892492  3.447138
H    -2.688796  4.695681  2.653523
H    -3.497210  3.354326  3.488460
H    -2.971655  3.187649  1.771434
Cd    0.987997  -0.201510  3.921293
