32
Energy: -170821.073105 eV PBE+vdW (tier 2 basis)
C    0.639550  -0.148589  0.029772
C    0.516792  -0.463473  1.486119
O    1.396728  -1.236029  1.986627
H    -0.143297  0.520277  -0.342481
H    0.602654  -1.091897  -0.533996
H    1.625982  0.294787  -0.160767
N    -0.515133  0.079601  2.153855
C    -1.143999  -0.131355  3.488020
C    -0.373051  0.549636  4.621854
O    0.849127  0.281993  4.893475
H    -1.079255  0.682264  1.561131
H    -2.067807  0.442446  3.366053
C    -1.670366  -1.593864  3.855509
C    -1.036546  -2.381344  5.037233
C    -1.887968  -2.451448  2.604833
C    0.245231  -3.214137  4.837486
H    -2.672028  -1.365089  4.250093
H    -1.814465  -3.101988  5.326700
H    -0.925830  -1.734506  5.918614
H    -2.432328  -3.364565  2.876657
H    -0.951945  -2.759681  2.120072
H    -2.495075  -1.930728  1.854132
H    0.469098  -3.484475  3.790566
H    0.197497  -4.190516  5.346425
H    1.137077  -2.814898  5.417630
N    -0.992977  1.438341  5.380951
C    -2.360238  1.966014  5.266195
H    -0.413978  1.820594  6.130958
H    -2.534299  2.624143  6.121964
H    -3.102915  1.160517  5.304242
H    -2.481109  2.559050  4.351073
Cd    1.821800  -1.409699  4.038355
