32
Energy: -170821.115042 eV PBE+vdW (tier 2 basis)
C    -0.972265  2.022359  0.293529
C    -0.924050  0.693186  0.969915
O    0.233412  0.156703  1.104094
H    -0.409717  2.743765  0.905452
H    -1.994016  2.392810  0.156754
H    -0.461527  1.960585  -0.676004
N    -2.068344  0.148585  1.407044
C    -2.249289  -0.953804  2.371580
C    -2.313680  -2.325686  1.660599
O    -1.236539  -3.012327  1.463311
H    -2.909480  0.690230  1.212545
H    -1.333414  -0.999816  2.989719
C    -3.378391  -0.610044  3.387076
C    -3.371023  -1.632246  4.543773
C    -4.778058  -0.390893  2.785115
C    -4.259539  -1.229982  5.723349
H    -3.046647  0.356633  3.803833
H    -2.335239  -1.751841  4.903407
H    -3.684122  -2.621864  4.170672
H    -4.790606  0.137637  1.819113
H    -5.373311  0.226315  3.467716
H    -5.351530  -1.325307  2.675907
H    -4.141465  -1.947398  6.543534
H    -5.323898  -1.216151  5.458501
H    -3.989404  -0.238323  6.110633
N    -3.462832  -2.813063  1.256529
C    -3.646827  -4.098239  0.572332
H    -4.298213  -2.282945  1.504280
H    -3.785469  -4.899130  1.310555
H    -2.769093  -4.320797  -0.040269
H    -4.538262  -4.028599  -0.057863
Cd    0.546975  -1.887377  1.518756
