32
Energy: -170821.121393 eV PBE+vdW (tier 2 basis)
C    -1.129981  0.006391  -0.332394
C    -0.590264  -0.248034  1.040174
O    0.470351  -0.950445  1.113656
H    -2.053633  0.594440  -0.337578
H    -1.311500  -0.959414  -0.823874
H    -0.362892  0.524576  -0.924249
N    -1.262570  0.281199  2.077025
C    -1.141763  0.210805  3.565943
C    0.120046  0.915008  4.094221
O    1.300901  0.422805  4.017233
H    -2.076492  0.814263  1.781314
H    -1.980019  0.842551  3.886334
C    -1.498842  -1.177306  4.202656
C    -1.876790  -1.023849  5.699181
C    -0.545590  -2.368833  3.995461
C    -0.736092  -0.902344  6.712688
H    -2.425595  -1.450170  3.672331
H    -2.486165  -1.901913  5.958510
H    -2.561937  -0.167000  5.797451
H    -0.428007  -2.660907  2.935654
H    -0.961732  -3.276513  4.460510
H    0.411881  -2.264157  4.563706
H    -1.154939  -0.790943  7.719917
H    -0.084515  -0.034225  6.545700
H    -0.102315  -1.798977  6.744242
N    -0.039111  2.086642  4.683057
C    1.052763  2.866082  5.277254
H    -0.982036  2.454706  4.777473
H    0.702623  3.890661  5.427143
H    1.918675  2.863298  4.607790
H    1.343342  2.434428  6.244227
Cd    1.597608  -1.332236  2.863715
