32
Energy: -170819.736114 eV PBE+vdW (tier 2 basis)
C    -0.584372  0.352141  -0.386557
C    -0.421523  0.247169  1.092845
O    0.765570  0.004138  1.526625
H    0.106020  1.107362  -0.783648
H    -1.613186  0.587198  -0.680720
H    -0.297753  -0.610212  -0.837394
N    -1.487492  0.384350  1.874438
C    -1.654955  0.033532  3.293230
C    -3.200113  -0.246043  3.409846
O    -3.953603  0.464824  2.747374
H    -2.378459  0.632894  1.430205
H    -1.110991  -0.901344  3.493254
C    -1.216518  1.136582  4.288705
C    -1.458343  0.819341  5.776606
C    -1.574036  2.540298  3.851623
C    -2.809736  1.299950  6.335981
H    -0.016264  1.079228  4.254131
H    -0.669409  1.316960  6.359402
H    -1.322967  -0.259491  5.951963
H    -1.159639  2.805639  2.872013
H    -1.258667  3.288493  4.587534
H    -2.672563  2.610327  3.757005
H    -2.890196  2.392662  6.340724
H    -2.884656  0.966408  7.378826
H    -3.667025  0.896884  5.785371
N    -3.588048  -1.255669  4.202680
C    -4.989567  -1.647998  4.342906
H    -2.881959  -1.851615  4.625129
H    -5.260535  -2.407486  3.595514
H    -5.623164  -0.767490  4.192341
H    -5.139575  -2.065415  5.344242
Cd    1.693031  0.571098  3.355447
