32
Energy: -170819.828832 eV PBE+vdW (tier 2 basis)
C    0.108421  -0.301497  0.581122
C    -0.184396  -0.200493  2.030000
O    0.793838  -0.157270  2.868062
H    0.989895  -0.924066  0.395905
H    0.353899  0.719085  0.234390
H    -0.755542  -0.633996  -0.002657
N    -1.443022  -0.133765  2.520037
C    -2.610668  -0.990078  2.175521
C    -2.127219  -2.438066  2.472918
O    -1.513799  -2.641937  3.610434
H    -1.512619  0.336170  3.423455
H    -3.303485  -0.808596  3.015045
C    -3.402804  -0.593763  0.904020
C    -3.426834  0.944782  0.714474
C    -4.828931  -1.161676  0.997078
C    -4.034538  1.777003  1.845708
H    -2.897865  -1.001810  0.014970
H    -3.997855  1.126036  -0.207552
H    -2.410121  1.304835  0.498062
H    -5.352257  -1.024120  0.043638
H    -5.406539  -0.637904  1.769239
H    -4.872075  -2.229767  1.241362
H    -4.006916  2.840045  1.578160
H    -3.489441  1.688064  2.799387
H    -5.084161  1.526581  2.040142
N    -2.307632  -3.522552  1.745636
C    -2.963881  -3.822073  0.467583
H    -1.930437  -4.350826  2.216353
H    -2.318254  -4.526137  -0.070520
H    -3.106337  -2.927707  -0.134452
H    -3.930257  -4.308655  0.653287
Cd    0.175540  -1.593784  4.352826
