32
Energy: -170820.739419 eV PBE+vdW (tier 2 basis)
C    0.216201  0.091236  0.093152
C    0.113710  0.206562  1.576954
O    1.114214  0.720448  2.190623
H    1.140610  -0.439187  -0.170091
H    0.295529  1.101913  -0.333749
H    -0.645169  -0.420015  -0.350340
N    -1.003232  -0.221455  2.183755
C    -1.357665  0.021522  3.582595
C    -0.650705  -0.938921  4.574194
O    0.223198  -0.416237  5.380600
H    -1.746296  -0.573981  1.580249
H    -0.905735  0.998729  3.843930
C    -2.872439  0.325433  3.825463
C    -3.928929  -0.737449  3.447200
C    -3.184236  1.696797  3.199573
C    -4.080220  -1.117707  1.969726
H    -2.933410  0.444271  4.920365
H    -4.884246  -0.310071  3.784658
H    -3.802188  -1.635313  4.064447
H    -2.538003  2.487700  3.605471
H    -4.219223  1.977638  3.427010
H    -3.080984  1.702256  2.106367
H    -4.986218  -1.719846  1.829789
H    -3.261719  -1.748747  1.579349
H    -4.186979  -0.242149  1.315389
N    -0.858754  -2.233004  4.691822
C    -1.704586  -3.163488  3.944854
H    -0.293470  -2.659576  5.431742
H    -1.084091  -4.021406  3.657448
H    -2.109616  -2.696254  3.047717
H    -2.523471  -3.522207  4.580253
Cd    1.420658  0.954909  4.283651
