32
Energy: -170819.870435 eV PBE+vdW (tier 2 basis)
C    -2.314568  -1.193807  -1.017337
C    -2.384283  -0.121571  0.014104
O    -2.091625  1.105742  -0.256927
H    -1.280434  -1.284656  -1.378735
H    -2.937279  -0.909276  -1.879502
H    -2.652479  -2.170994  -0.662136
N    -2.699295  -0.356868  1.285240
C    -2.767457  -1.609926  2.004394
C    -3.493267  -1.230735  3.325571
O    -3.465594  -0.064334  3.712582
H    -2.768329  0.458665  1.917480
H    -3.334826  -2.348009  1.420687
C    -1.328641  -2.226141  2.317830
C    -1.445709  -3.673417  2.824499
C    -0.492290  -1.321514  3.213832
C    -0.137102  -4.454437  2.679339
H    -0.866640  -2.262666  1.313373
H    -2.230432  -4.205493  2.258792
H    -1.755302  -3.672827  3.882142
H    -0.396426  -0.299215  2.826365
H    0.525695  -1.726664  3.291875
H    -0.888078  -1.264837  4.237638
H    -0.283321  -5.495618  2.992123
H    0.665189  -4.029823  3.295631
H    0.213527  -4.474982  1.637085
N    -4.120481  -2.230279  3.986141
C    -4.936486  -1.998746  5.164491
H    -4.124577  -3.161218  3.574234
H    -5.994252  -1.845883  4.892639
H    -4.578026  -1.098608  5.675861
H    -4.876788  -2.881215  5.813059
Cd    -2.531535  2.334674  -1.964631
