32
Energy: -170819.827837 eV PBE+vdW (tier 2 basis)
C    0.159153  -0.405691  0.650926
C    -0.150815  0.541779  1.758463
O    0.679390  1.454658  2.124362
H    -0.660906  -1.085516  0.404786
H    1.045659  -0.998665  0.916643
H    0.411172  0.167421  -0.254673
N    -1.276777  0.480093  2.470232
C    -2.255365  -0.579917  2.560393
C    -3.478293  0.112829  3.230014
O    -3.289247  1.063658  3.982647
H    -1.414518  1.204669  3.192771
H    -2.499712  -0.956285  1.558283
C    -1.733087  -1.811489  3.440245
C    -2.661485  -3.036331  3.365763
C    -1.329401  -1.399081  4.848308
C    -3.754810  -3.174731  4.419856
H    -0.818277  -2.079446  2.878317
H    -1.998233  -3.915639  3.459264
H    -3.078945  -3.130022  2.348590
H    -0.535691  -0.641786  4.855861
H    -0.946110  -2.276136  5.388833
H    -2.171196  -1.010676  5.438820
H    -3.347483  -3.274532  5.433659
H    -4.364633  -4.063960  4.220655
H    -4.440302  -2.310299  4.441043
N    -4.699673  -0.380881  2.922348
C    -5.932295  0.264271  3.347304
H    -4.764056  -1.140838  2.248569
H    -6.276805  0.994758  2.597996
H    -5.750323  0.792640  4.289502
H    -6.707939  -0.501621  3.463641
Cd    1.961796  2.773364  0.988793
