32
Energy: -170820.587071 eV PBE+vdW (tier 2 basis)
C    0.473157  0.613949  -0.664595
C    0.091908  0.963604  0.721804
O    0.422891  2.011533  1.279605
H    0.873835  1.487100  -1.188101
H    -0.360739  0.163726  -1.219625
H    1.263070  -0.158384  -0.613572
N    -0.673942  0.025808  1.554782
C    -2.137908  -0.184848  1.254549
C    -2.947320  1.041361  1.708902
O    -2.649524  1.680511  2.781736
H    -0.240778  -0.912040  1.527440
H    -2.266837  -0.316358  0.170679
C    -2.583981  -1.490896  1.998568
C    -2.164603  -2.767009  1.232394
C    -4.087859  -1.536476  2.298468
C    -0.680083  -2.974864  0.916091
H    -2.054441  -1.469052  2.969609
H    -2.751465  -2.828396  0.302203
H    -2.506536  -3.610236  1.848732
H    -4.306786  -2.450075  2.863844
H    -4.433133  -0.695481  2.912805
H    -4.690300  -1.581430  1.382035
H    -0.302040  -2.318087  0.115070
H    -0.514408  -3.993555  0.543496
H    -0.038074  -2.883447  1.809687
N    -4.011594  1.438585  1.035388
C    -4.658915  0.884191  -0.155742
H    -4.493283  2.230697  1.468596
H    -4.794888  1.688745  -0.888129
H    -5.641963  0.480521  0.116565
H    -4.063294  0.086758  -0.604871
Cd    -0.579709  1.576800  3.316901
