15
Energy:  -38233.9717546  eV PBE+vdW (tier 2 basis)
N    -0.137361  -1.170640  0.201304
C    -0.271407  -0.146314  1.312964
C    1.129051  0.137795  1.848296
O    2.025697  -0.749277  1.647697
H    0.719008  -1.729279  0.392361
H    -0.955702  -1.790181  0.116668
H    -0.748009  0.748669  0.894354
C    -1.106084  -0.651192  2.519917
S    -0.240411  -1.546042  3.879191
H    -1.964304  -1.258776  2.202284
H    -1.515317  0.233412  3.023549
H    -0.030399  -2.732745  3.257147
O    1.266595  1.077399  2.682278
H    -0.002740  -0.713754  -0.713406
Ca    2.599382  -0.285075  3.794401
