15
Energy:  -38233.0995954  eV PBE+vdW (tier 2 basis)
N    0.057299  1.253451  0.729841
C    0.246027  0.040417  1.594969
C    1.731048  -0.033716  1.956566
O    2.449450  0.988127  1.846295
H    0.175549  0.946095  -0.247870
H    -0.950653  1.469891  0.761400
H    -0.265321  0.245130  2.552712
C    -0.362670  -1.249328  0.994682
S    -2.091311  -1.037733  0.455108
H    -0.308128  -2.078990  1.715077
H    0.192227  -1.555629  0.095113
H    -2.647912  -1.097574  1.690063
O    2.280969  -1.114057  2.419491
H    1.678472  -1.886854  2.458560
Ca    1.782389  2.908857  1.179897
