15
Energy:  -38233.9704864  eV PBE+vdW (tier 2 basis)
N    2.125618  1.001744  1.532929
C    2.700550  -0.047413  2.441090
C    4.201586  -0.186107  2.231898
O    4.879337  -0.853518  3.080297
H    2.167288  1.950248  1.926064
H    2.602127  1.011218  0.618405
H    2.513396  0.269035  3.476096
C    1.973115  -1.404173  2.182701
S    0.160546  -1.152460  2.082174
H    2.203071  -2.074542  3.017992
H    2.325264  -1.872876  1.256399
H    0.012123  -1.579069  0.805428
O    4.760607  0.329783  1.199573
H    1.104969  0.707703  1.419368
Ca    6.710404  -0.482575  1.935584
