15
Energy:  -38234.1044152  eV PBE+vdW (tier 2 basis)
N    -0.066373  0.257735  0.462537
C    -0.275414  -0.745946  1.548054
C    1.081903  -1.005148  2.192749
O    2.131982  -0.926994  1.524203
H    -0.937166  0.346619  -0.074595
H    0.063689  1.185403  0.885698
H    -0.980496  -0.393659  2.317323
C    -0.848927  -2.053840  0.957968
S    0.092571  -2.775739  -0.459246
H    -1.851105  -1.855053  0.553654
H    -0.962134  -2.825381  1.728377
H    0.902634  -3.606485  0.246221
O    1.027283  -1.350763  3.446336
H    1.916346  -1.546103  3.821492
Ca    1.939207  -0.603643  -0.671774
