15
Energy:  -38233.8566325  eV PBE+vdW (tier 2 basis)
N    0.685971  -1.025770  -0.108507
C    0.243912  -0.502513  1.214440
C    1.489076  -0.421720  2.107997
O    2.390990  -1.265946  1.962288
H    -0.143777  -1.232300  -0.676600
H    1.166580  -0.276053  -0.621580
H    -0.232201  0.488569  1.125980
C    -0.791703  -1.452319  1.864564
S    -0.272969  -3.227439  1.977485
H    -1.735170  -1.417581  1.306466
H    -1.012445  -1.135335  2.891599
H    -1.073889  -3.715876  0.997317
O    1.601621  0.462528  3.057902
H    0.883390  1.127680  3.090158
Ca    2.171615  -2.914923  0.529491
