15
Energy:  -38233.2615699  eV PBE+vdW (tier 2 basis)
N    0.133450  -0.706488  0.006842
C    0.080493  -0.304599  1.397781
C    1.155668  0.680538  1.889957
O    1.876232  1.314676  1.046601
H    -0.331595  -0.051084  -0.619672
H    1.083566  -0.849041  -0.339753
H    -0.872989  0.225306  1.565018
C    0.061366  -1.582503  2.266639
S    -1.087016  -2.705230  1.355371
H    -0.359586  -1.443791  3.269886
H    1.036445  -2.077168  2.345087
H    -1.172126  -3.674106  2.321434
O    1.289922  0.890969  3.148522
H    -0.216675  -3.420496  0.597078
Ca    2.758188  2.457307  2.701541
