15
Energy:  -38233.7218413  eV PBE+vdW (tier 2 basis)
N    2.647711  -6.096709  0.534226
C    2.850321  -7.386053  1.306403
C    4.363743  -7.704858  1.067397
O    4.798607  -8.783761  1.642033
H    1.984198  -6.170319  -0.247764
H    2.359186  -5.307519  1.125429
H    2.686937  -7.167854  2.369822
C    1.876473  -8.473078  0.817825
S    1.878592  -10.085905  1.700144
H    2.078044  -8.744786  -0.228898
H    0.837579  -8.121144  0.874512
H    1.378985  -9.664935  2.890306
O    5.002695  -6.933724  0.369276
H    3.635416  -5.929388  0.150559
Ca    4.658514  -10.673970  2.335733
