15
Energy:  -38233.1884885  eV PBE+vdW (tier 2 basis)
N    0.820492  -0.031293  0.748476
C    0.109241  -0.333363  2.042784
C    1.193401  -0.290789  3.138232
O    2.028858  0.656515  3.075440
H    1.213139  -0.904818  0.372545
H    0.118388  0.245327  0.052175
H    -0.505792  0.556594  2.262423
C    -0.864944  -1.526540  2.040110
S    -0.047186  -3.143729  2.399657
H    -1.382617  -1.577141  1.073477
H    -1.625866  -1.351451  2.809898
H    -1.106380  -3.708240  3.028914
O    1.255801  -1.155740  4.074865
H    0.714494  -2.014886  3.803257
Ca    2.596073  1.629500  1.293564
