15
Energy:  -38233.9400264  eV PBE+vdW (tier 2 basis)
N    -0.389720  -0.031334  -0.097236
C    -0.211729  0.334136  1.367447
C    1.277255  0.345372  1.700054
O    1.699702  1.178970  2.550134
H    -1.354137  -0.326356  -0.314766
H    -0.167170  0.764224  -0.715945
H    -0.662209  1.319812  1.526752
C    -0.870460  -0.762388  2.257160
S    -0.096960  -1.102232  3.888721
H    -0.810448  -1.739345  1.756228
H    -1.928210  -0.534540  2.435635
H    -0.413084  0.072361  4.491027
O    1.964167  -0.655845  1.303576
H    0.256748  -0.804918  -0.336241
Ca    2.901253  -0.506917  3.348452
