15
Energy:  -38233.2480318  eV PBE+vdW (tier 2 basis)
N    1.347646  0.328869  0.448834
C    1.411445  0.904045  1.826558
C    2.862523  0.931357  2.273614
O    3.701504  0.179194  1.721435
H    0.432786  -0.187418  0.440545
H    1.204204  1.097007  -0.217662
H    0.987774  1.919486  1.840447
C    0.599024  0.016161  2.842425
S    -0.968547  -0.602846  2.171896
H    0.436320  0.576190  3.770721
H    1.167743  -0.887424  3.105955
H    -1.634942  0.579316  2.171740
O    3.269055  1.662341  3.269923
H    2.584790  2.248404  3.654541
Ca    3.365281  -0.914254  -0.083013
