15
Energy:  -38233.1593213  eV PBE+vdW (tier 2 basis)
N    0.467447  -0.528417  0.141585
C    0.296236  0.078983  1.497729
C    1.542186  -0.202753  2.320952
O    2.331820  -1.113796  1.974314
H    -0.502609  -0.847829  -0.104546
H    0.641017  0.230251  -0.529173
H    0.143183  1.165986  1.410793
C    -0.939881  -0.534990  2.244830
S    -2.398237  -0.580888  1.141532
H    -1.164408  0.083492  3.122415
H    -0.720625  -1.549451  2.600363
H    -2.675229  -1.894352  1.312990
O    1.802608  0.435572  3.423698
H    1.172365  1.153203  3.642194
Ca    2.289635  -2.129605  0.096514
