15
Energy:  -38234.0307935  eV PBE+vdW (tier 2 basis)
N    0.161070  -0.287743  -0.025877
C    0.050568  0.239258  1.377362
C    1.419248  0.294339  2.041294
O    2.410262  -0.339128  1.529796
H    0.339619  0.443585  -0.725054
H    0.909572  -0.993983  -0.101048
H    -0.364474  1.254149  1.326033
C    -0.925347  -0.674417  2.185876
S    -2.379850  -1.184157  1.218080
H    -1.213939  -0.157557  3.107145
H    -0.431088  -1.615433  2.465280
H    -3.010341  0.018088  1.216048
O    1.546562  0.939947  3.132740
H    -0.789906  -0.736601  -0.211609
Ca    3.664042  0.380653  3.234935
