15
Energy:  -38234.0068051  eV PBE+vdW (tier 2 basis)
N    -0.037656  -1.343246  0.754764
C    -0.124129  -0.152631  1.669204
C    1.292956  0.212658  2.125349
O    2.305053  -0.318166  1.544212
H    -0.175568  -2.178446  1.398833
H    -0.765040  -1.345137  0.028294
H    -0.496611  0.710345  1.095388
C    -1.096345  -0.456400  2.832681
S    -0.754358  -2.107598  3.557541
H    -2.132193  -0.414948  2.479299
H    -0.975460  0.316395  3.599800
H    -1.954834  -2.668421  3.279817
O    1.445368  1.069676  3.053235
H    0.894269  -1.405548  0.315195
Ca    3.626548  0.931464  2.845387
