24
Energy: -605684.625173 eV PBE+vdW (tier 2 basis)
C    -1.529802  1.284636  0.125458
C    -0.480980  0.807397  1.096240
O    0.590112  1.334939  1.276181
H    -2.524032  1.377161  0.584856
H    -1.605207  0.609716  -0.740762
H    -1.220661  2.266015  -0.245412
N    -0.788668  -0.339355  1.902045
C    -1.810284  -1.323827  1.642571
C    -2.735262  -1.512371  2.857014
O    -3.605297  -2.475496  2.899291
H    0.043666  -0.648717  2.409007
H    -2.455175  -0.946776  0.830578
C    -1.150903  -2.631038  1.163126
O    -2.146938  -3.599382  0.634616
H    -0.587018  -3.128603  1.964133
H    -0.472826  -2.386140  0.337613
H    -1.736785  -4.126616  -0.077643
N    -2.642103  -0.648907  3.831927
C    -3.440432  -0.591000  5.055239
H    -1.916463  0.062543  3.675792
H    -3.940220  0.384209  5.106740
H    -2.775113  -0.691898  5.921762
H    -4.181913  -1.392382  5.056960
Pb    -4.167694  -4.205111  1.698666
