24
Energy: -605685.156995 eV PBE+vdW (tier 2 basis)
C    0.203330  -0.444100  -0.118344
C    0.213401  -0.206286  1.348571
O    1.349640  0.099918  1.910709
H    0.883377  -1.279174  -0.344198
H    0.600004  0.437298  -0.640683
H    -0.796306  -0.679019  -0.496896
N    -0.890841  -0.331385  2.047680
C    -1.097207  -0.323430  3.489704
C    -2.480748  -1.105296  3.617594
O    -3.130910  -1.243521  2.583540
H    -1.786366  -0.653854  1.604239
H    -0.297154  -0.883713  4.001134
C    -1.271851  1.064396  4.090183
O    0.026551  1.786978  4.186762
H    -1.664990  0.991379  5.111744
H    -1.946934  1.673770  3.475563
H    -0.123050  2.596189  4.713478
N    -2.833215  -1.519991  4.837547
C    -4.081586  -2.249023  5.096975
H    -2.168866  -1.445670  5.601860
H    -4.794607  -2.020887  4.300427
H    -4.488730  -1.928747  6.061315
H    -3.897423  -3.330526  5.118111
Pb    2.240483  1.323694  3.434982
