24
Energy: -605685.617714 eV PBE+vdW (tier 2 basis)
C    1.032807  0.798692  0.073924
C    0.250100  -0.096221  0.969576
O    0.861053  -0.780054  1.860103
H    1.557347  1.540670  0.694190
H    0.415328  1.320840  -0.664264
H    1.807490  0.214295  -0.440936
N    -1.081820  -0.151157  0.839577
C    -1.990990  -0.863038  1.737210
C    -1.984510  -2.383058  1.443104
O    -1.163630  -3.109278  2.125413
H    -1.497947  0.430172  0.113554
H    -1.580927  -0.792583  2.755545
C    -3.366957  -0.175033  1.782827
O    -4.199019  -1.061116  2.498805
H    -3.744567  0.029649  0.764165
H    -3.237227  0.795610  2.288979
H    -4.973934  -0.589761  2.846716
N    -2.725611  -2.981975  0.538619
C    -3.763707  -2.452098  -0.354485
H    -2.576912  -3.992703  0.498190
H    -3.416991  -1.550765  -0.869650
H    -4.679654  -2.246233  0.212126
H    -3.970762  -3.216516  -1.108203
Pb    0.798043  -2.659337  3.086916
