24
Energy: -605686.089862 eV PBE+vdW (tier 2 basis)
C    -0.661451  -1.130488  0.400478
C    -0.413313  -0.343322  1.639097
O    0.769997  0.093703  1.875875
H    -1.697296  -1.472283  0.307440
H    0.017248  -1.993535  0.370696
H    -0.410552  -0.501570  -0.466816
N    -1.427466  -0.082133  2.463292
C    -1.389031  0.792328  3.642909
C    -0.755617  0.046645  4.835900
O    0.525851  0.048813  4.969596
H    -2.340637  -0.488237  2.253079
H    -0.732006  1.646642  3.421408
C    -2.795377  1.346733  3.896094
O    -3.650911  0.215677  4.081538
H    -3.101762  1.949130  3.026615
H    -2.774305  2.003065  4.781102
H    -4.579356  0.499971  4.139971
N    -1.536847  -0.575269  5.685114
C    -1.106909  -1.332737  6.861349
H    -2.543597  -0.528605  5.467520
H    -1.661900  -0.971874  7.735144
H    -0.035303  -1.198007  7.020728
H    -1.334160  -2.396124  6.712980
Pb    2.209701  0.422478  3.546890
