24
Energy: -605684.544043 eV PBE+vdW (tier 2 basis)
C    -1.255245  0.882619  -0.548492
C    -0.794373  0.702078  0.860293
O    -0.590233  1.604601  1.654496
H    -1.898160  1.764216  -0.631177
H    -1.745707  -0.001941  -0.972060
H    -0.355872  1.066119  -1.159107
N    -0.500724  -0.643024  1.294478
C    -1.583361  -1.580078  1.493272
C    -2.399817  -1.293505  2.771831
O    -3.278085  -2.154513  3.203397
H    0.131348  -0.590782  2.097980
H    -2.291814  -1.486318  0.651246
C    -0.975491  -2.992223  1.448877
O    -2.021583  -4.045649  1.374569
H    -0.345452  -3.202566  2.323752
H    -0.372494  -3.063514  0.537212
H    -1.680163  -4.800352  0.857754
N    -2.224385  -0.160268  3.401793
C    -2.940626  0.294222  4.595037
H    -1.541589  0.510355  2.998346
H    -2.219015  0.435869  5.409649
H    -3.698421  -0.434901  4.886337
H    -3.408750  1.261169  4.372864
Pb    -3.948986  -4.164616  2.726651
