24
Energy: -605684.627129 eV PBE+vdW (tier 2 basis)
C    -0.093393  0.510315  0.128798
C    -0.248484  0.088168  1.545118
O    0.812038  -0.016268  2.276476
H    -1.050946  0.612152  -0.392622
H    0.522824  -0.236389  -0.395068
H    0.454413  1.461223  0.083003
N    -1.450743  -0.199586  2.033162
C    -1.718173  -0.829071  3.329167
C    -2.828122  -1.954703  3.338335
O    -2.538716  -2.937885  4.000079
H    -2.231934  -0.107329  1.385092
H    -0.838924  -1.447005  3.572537
C    -1.969251  0.136049  4.476794
O    -0.680296  0.738306  4.914955
H    -2.382465  -0.415095  5.330957
H    -2.632660  0.963351  4.195228
H    -0.844606  1.273765  5.715904
N    -3.992788  -1.778616  2.678638
C    -4.514461  -0.619065  1.962683
H    -4.600064  -2.595772  2.736879
H    -4.240031  -0.624949  0.894477
H    -4.209584  0.325439  2.431702
H    -5.608438  -0.643192  2.008100
Pb    1.540802  0.099155  4.327610
