24
Energy: -605686.406922 eV PBE+vdW (tier 2 basis)
C    0.863792  -1.275229  1.855974
C    -0.107770  -0.141469  1.842549
O    0.254403  0.979769  2.304786
H    1.179176  -1.457349  2.892809
H    1.763581  -0.976134  1.300508
H    0.466501  -2.202447  1.430535
N    -1.331289  -0.374001  1.327846
C    -2.492181  0.525161  1.167950
C    -2.186064  1.756587  0.290596
O    -1.621261  2.793933  0.765531
H    -1.477023  -1.321360  0.988585
H    -3.225080  -0.082147  0.617182
C    -3.244316  0.863268  2.463891
O    -2.445436  1.645441  3.394160
H    -3.525356  -0.076370  2.959255
H    -4.156975  1.420131  2.203706
H    -2.924333  1.723045  4.239313
N    -2.565420  1.707842  -0.974720
C    -2.376737  2.775779  -1.961696
H    -3.035043  0.866113  -1.302037
H    -1.759841  2.400467  -2.787193
H    -1.885906  3.627069  -1.486361
H    -3.354455  3.080696  -2.353578
Pb    -0.550968  3.046204  2.756411
