24
Energy: -605685.762677 eV PBE+vdW (tier 2 basis)
C    0.920311  -1.234107  2.157409
C    -0.071714  -0.121041  2.161835
O    0.170506  0.907751  2.876603
H    0.633629  -2.075520  1.518360
H    1.049422  -1.591319  3.189419
H    1.896089  -0.845045  1.834919
N    -1.182387  -0.257500  1.423857
C    -2.370299  0.608630  1.303546
C    -2.078768  1.918296  0.550012
O    -1.386056  2.851434  1.089811
H    -1.239161  -1.129081  0.902152
H    -3.082668  0.032511  0.699172
C    -3.100555  0.889869  2.633198
O    -4.185521  1.707160  2.287792
H    -2.430194  1.389407  3.377166
H    -3.386708  -0.069778  3.091862
H    -4.906612  1.618843  2.933462
N    -2.579267  2.062837  -0.657375
C    -2.442134  3.244759  -1.512720
H    -3.152455  1.303478  -1.021132
H    -3.438895  3.654716  -1.716607
H    -1.973704  2.951506  -2.459935
H    -1.828138  3.992810  -1.008247
Pb    -0.343718  3.076379  3.049438
