24
Energy: -605685.783172 eV PBE+vdW (tier 2 basis)
C    -0.873324  -0.385974  -0.103355
C    -0.395649  -0.199469  1.293630
O    0.866541  -0.135112  1.514567
H    -1.962142  -0.471097  -0.178490
H    -0.402015  -1.277524  -0.538097
H    -0.537608  0.474572  -0.701436
N    -1.286796  -0.082650  2.278273
C    -1.011179  0.332715  3.662149
C    -0.448386  -0.831551  4.496049
O    0.807690  -1.089961  4.449154
H    -2.265009  -0.027075  1.994258
H    -0.221650  1.101231  3.628893
C    -2.269770  1.006870  4.234434
O    -2.614923  1.992060  3.287344
H    -2.024882  1.422416  5.226027
H    -3.091791  0.271569  4.362363
H    -3.338387  2.546853  3.624664
N    -1.249185  -1.542896  5.259398
C    -0.855485  -2.673544  6.106922
H    -2.236035  -1.288865  5.267008
H    0.232593  -2.710576  6.186756
H    -1.231446  -3.607832  5.670625
H    -1.298624  -2.538622  7.099889
Pb    2.447467  -0.530540  3.017976
