24
Energy: -605684.74837 eV PBE+vdW (tier 2 basis)
C    -0.195901  1.125051  0.003899
C    -0.193428  0.726975  1.435428
O    0.896392  0.253003  1.942083
H    0.618236  1.838246  -0.183308
H    -1.147912  1.561601  -0.315652
H    0.014711  0.234930  -0.608666
N    -1.298830  0.832886  2.165781
C    -1.514778  0.257243  3.498720
C    -2.984254  -0.293927  3.666326
O    -3.095354  -1.453565  4.019180
H    -2.133781  1.144229  1.668488
H    -0.929816  -0.674552  3.565484
C    -1.162270  1.163603  4.665018
O    0.315462  1.229733  4.841714
H    -1.580654  0.743605  5.588962
H    -1.515754  2.192797  4.520705
H    0.505166  1.709188  5.672176
N    -3.992808  0.559778  3.377291
C    -5.398244  0.142283  3.486179
H    -3.814425  1.556842  3.298392
H    -6.008044  0.786007  2.845626
H    -5.750247  0.212829  4.523261
H    -5.484657  -0.896572  3.154289
Pb    2.033313  -0.028300  3.775545
