24
Energy: -605685.740364 eV PBE+vdW (tier 2 basis)
C    0.240737  -0.287623  0.101785
C    0.010434  -0.052605  1.554063
O    1.023836  0.065079  2.323541
H    -0.678664  -0.277853  -0.492573
H    0.726778  -1.268766  -0.011652
H    0.942443  0.462116  -0.285813
N    -1.248174  0.014113  2.000932
C    -1.753591  -0.003153  3.388738
C    -1.591313  1.358179  4.077444
O    -0.443452  1.766232  4.470297
H    -1.961639  -0.123363  1.289219
H    -2.826217  -0.210578  3.281062
C    -1.188014  -1.167267  4.236412
O    -1.175720  -2.299504  3.425040
H    -1.812099  -1.267424  5.139786
H    -0.154683  -0.936703  4.617350
H    -1.224468  -3.110133  3.960211
N    -2.671011  2.089663  4.270047
C    -2.714817  3.405011  4.916417
H    -3.559366  1.714910  3.941406
H    -1.727109  3.652025  5.309990
H    -3.446881  3.376434  5.731930
H    -3.024404  4.159791  4.182808
Pb    1.630394  0.898418  4.292556
