24
Energy: -605685.855296 eV PBE+vdW (tier 2 basis)
C    -0.111284  -0.879332  0.212028
C    -0.206200  -0.165723  1.515288
O    0.683316  0.705744  1.819337
H    0.869545  -1.365473  0.124907
H    -0.163248  -0.130662  -0.593291
H    -0.904208  -1.619431  0.062372
N    -1.232476  -0.430049  2.327948
C    -1.636856  0.306799  3.533640
C    -0.856711  -0.190104  4.767614
O    0.432605  -0.136110  4.754775
H    -1.876782  -1.154596  2.012757
H    -1.354455  1.364577  3.400362
C    -3.176192  0.216874  3.610296
O    -3.580951  0.774894  4.849015
H    -3.489649  -0.842167  3.522890
H    -3.591393  0.767116  2.751934
H    -4.533465  0.969722  4.834643
N    -1.503785  -0.643662  5.811838
C    -0.899635  -1.139768  7.049111
H    -2.522014  -0.489173  5.799581
H    -1.037736  -0.397457  7.846282
H    0.164209  -1.330838  6.896584
H    -1.408276  -2.066432  7.338076
Pb    1.962640  1.020248  3.617012
