24
Energy: -605684.854582 eV PBE+vdW (tier 2 basis)
C    -0.382543  1.917525  0.327320
C    -0.325358  1.145160  1.595959
O    0.813735  0.671569  1.984725
H    -0.011558  1.286190  -0.493282
H    0.295219  2.780372  0.394599
H    -1.391618  2.268216  0.087369
N    -1.424316  0.932605  2.304527
C    -1.521623  0.166813  3.554973
C    -3.045273  -0.083176  3.909949
O    -3.444734  0.191898  5.029381
H    -2.293104  1.333951  1.948298
H    -1.051136  -0.819859  3.400817
C    -0.866295  0.858098  4.752386
O    0.473561  0.286029  5.035037
H    -1.505472  0.679016  5.628519
H    -0.748481  1.936219  4.597569
H    0.575198  0.169765  5.998802
N    -3.799750  -0.564037  2.898725
C    -5.228394  -0.852748  3.082996
H    -3.349227  -0.961179  2.079682
H    -5.372484  -1.824739  3.572106
H    -5.715770  -0.858650  2.103697
H    -5.671562  -0.073582  3.709976
Pb    2.203985  -0.049457  3.494870
