24
Energy: -605685.641452 eV PBE+vdW (tier 2 basis)
C    0.071758  -0.352460  -0.033961
C    -0.095127  -0.033688  1.411280
O    0.931496  0.321474  2.082652
H    0.597913  0.471456  -0.533209
H    -0.873560  -0.553989  -0.548170
H    0.717591  -1.239975  -0.115796
N    -1.312978  -0.143293  1.954476
C    -1.710466  -0.118619  3.376417
C    -1.715839  1.304070  3.944293
O    -0.618808  1.892377  4.253884
H    -2.034982  -0.472908  1.318680
H    -2.739311  -0.495550  3.374280
C    -0.910499  -1.103944  4.260140
O    -0.806392  -2.296346  3.546655
H    -1.434216  -1.201209  5.225799
H    0.107555  -0.701332  4.515464
H    -0.686009  -3.051034  4.148119
N    -2.854521  1.937889  4.143925
C    -4.228929  1.480044  3.887197
H    -2.750339  2.872686  4.544512
H    -4.523503  0.699636  4.599808
H    -4.340417  1.122403  2.857477
H    -4.894136  2.337493  4.021161
Pb    1.548721  1.371820  3.944917
