24
Energy: -605685.594529 eV PBE+vdW (tier 2 basis)
C    -0.081145  0.444733  -0.187371
C    -0.127055  0.309832  1.293705
O    0.961357  0.405648  1.962667
H    0.638289  -0.275212  -0.600051
H    0.297175  1.448451  -0.432678
H    -1.057006  0.304399  -0.663419
N    -1.300891  0.109514  1.899022
C    -1.524756  0.156945  3.348708
C    -1.038330  -1.132899  4.035785
O    0.151984  -1.130936  4.529634
H    -2.129802  0.128953  1.306527
H    -0.876076  0.951867  3.749504
C    -2.949824  0.642677  3.654892
O    -2.951652  1.979678  3.203771
H    -3.125381  0.550711  4.741546
H    -3.707784  0.031537  3.134947
H    -3.802222  2.403232  3.408664
N    -1.751837  -2.233655  4.151986
C    -3.111887  -2.547547  3.696402
H    -1.267242  -2.981709  4.653518
H    -3.190393  -3.635743  3.614882
H    -3.305373  -2.114965  2.710515
H    -3.856678  -2.196095  4.421001
Pb    2.010528  -0.051414  3.876841
