24
Energy: -605685.286597 eV PBE+vdW (tier 2 basis)
C    0.116262  -1.250412  1.976525
C    0.039049  0.160498  2.427499
O    1.116136  0.827407  2.636869
H    0.771034  -1.777825  2.689586
H    0.617238  -1.324945  1.000684
H    -0.852540  -1.756741  1.950179
N    -1.142954  0.772029  2.655255
C    -2.245199  0.743227  1.701900
C    -1.966232  1.856663  0.651314
O    -0.800340  2.409954  0.571382
H    -1.063720  1.639488  3.189409
H    -2.219767  -0.214772  1.159798
C    -3.610929  0.840818  2.406855
O    -4.588699  0.685873  1.384057
H    -3.712591  1.809106  2.929388
H    -3.665459  0.032333  3.151724
H    -5.482190  0.667800  1.766954
N    -2.943166  2.181282  -0.157270
C    -2.892217  3.148600  -1.252485
H    -3.840583  1.706935  0.048543
H    -1.885677  3.559894  -1.346214
H    -3.608579  3.955443  -1.053625
H    -3.179272  2.645794  -2.184074
Pb    1.285393  2.708550  1.377748
