24
Energy: -605685.091059 eV PBE+vdW (tier 2 basis)
C    0.756159  -0.577384  0.782173
C    -0.005845  -0.647720  2.066934
O    0.320447  -1.369695  3.017811
H    1.714774  -0.076033  0.981986
H    0.236098  -0.031243  -0.012333
H    0.992204  -1.593504  0.445658
N    -1.130934  0.149408  2.180100
C    -1.783707  0.358891  3.464220
C    -2.664004  -0.833008  3.912172
O    -3.921973  -0.682260  4.244455
H    -1.472993  0.638869  1.357972
H    -0.987295  0.436535  4.226775
C    -2.532320  1.690524  3.393033
O    -3.149328  2.015001  4.693010
H    -3.332014  1.675585  2.639302
H    -1.826576  2.490637  3.142919
H    -2.887522  2.907982  4.983026
N    -2.080849  -1.994593  3.962358
C    -2.679540  -3.268490  4.346805
H    -1.051770  -1.952046  3.688128
H    -2.214334  -3.617595  5.278069
H    -2.467531  -4.004117  3.561520
H    -3.758972  -3.166582  4.477918
Pb    -5.060180  0.766835  5.373987
