24
Energy: -605686.319558 eV PBE+vdW (tier 2 basis)
C    -0.421462  -0.207955  -0.136975
C    -0.422498  0.037192  1.335088
O    0.555119  0.644111  1.863206
H    -0.321887  0.755903  -0.655600
H    -1.317269  -0.723207  -0.498548
H    0.467703  -0.798725  -0.397601
N    -1.486355  -0.389559  2.044445
C    -1.739989  -0.253014  3.488696
C    -1.623079  1.205240  3.973369
O    -0.544212  1.646199  4.493318
H    -2.204979  -0.874183  1.512764
H    -2.793654  -0.540806  3.617035
C    -0.989592  -1.255662  4.376579
O    0.454537  -1.141134  4.241797
H    -1.277115  -2.272445  4.076486
H    -1.283513  -1.094182  5.424390
H    0.878750  -1.909910  4.664529
N    -2.677123  1.997815  3.894325
C    -4.023260  1.688812  3.394321
H    -2.521444  2.940506  4.257112
H    -3.986796  1.322953  2.361650
H    -4.604827  2.614661  3.404994
H    -4.529945  0.962326  4.043117
Pb    1.549892  1.013064  3.877501
