24
Energy: -111562.6093457  eV PBE+vdW (tier 2 basis)
C    0.190602  -0.197084  0.007227
C    -0.205652  0.194078  1.394467
O    0.651385  0.715229  2.176163
H    -0.277995  0.493176  -0.710656
H    -0.132085  -1.210344  -0.262412
H    1.275398  -0.113560  -0.103228
N    -1.471889  0.027915  1.852051
C    -2.279671  -1.178341  1.657304
C    -1.491853  -2.383130  2.262789
O    -0.322405  -2.192224  2.749862
H    -1.634325  0.507730  2.736955
H    -3.146964  -1.044349  2.324762
C    -2.828714  -1.370434  0.217404
S    -4.631867  -1.052964  0.267406
H    -2.617749  -2.377544  -0.162619
H    -2.353789  -0.649647  -0.453015
H    -4.886825  -1.392399  -1.018029
N    -2.040506  -3.581062  2.333487
C    -3.374812  -4.041221  1.931926
H    -1.441255  -4.287130  2.763664
H    -3.811137  -4.602763  2.765894
H    -3.290972  -4.706953  1.063519
H    -4.033439  -3.202711  1.679848
Sr    1.404833  -0.921354  3.621177
