24
Energy: -111563.5942900  eV PBE+vdW (tier 2 basis)
C    -0.149821  -0.104193  -0.027196
C    -0.132400  0.003819  1.461153
O    0.945269  0.263753  2.081597
H    0.144026  0.867854  -0.449692
H    -1.127010  -0.385932  -0.432591
H    0.603272  -0.833104  -0.353509
N    -1.280832  -0.165784  2.133791
C    -1.470285  0.085281  3.576019
C    -0.932757  -1.106940  4.403736
O    0.312986  -1.146237  4.660191
H    -2.113072  -0.373921  1.585822
H    -0.818736  0.930106  3.842302
C    -2.919377  0.504769  3.861707
S    -3.189722  0.950350  5.611351
H    -3.636589  -0.296714  3.623612
H    -3.187057  1.350277  3.216027
H    -2.796051  2.239927  5.497688
N    -1.759001  -2.061778  4.784088
C    -1.401924  -3.239942  5.575619
H    -2.746633  -1.940706  4.572811
H    -1.763454  -4.141902  5.068616
H    -1.870857  -3.171164  6.565213
H    -0.317204  -3.285887  5.687545
Sr    2.258962  -0.233032  3.873499
