24
Energy: -111563.5926859  eV PBE+vdW (tier 2 basis)
C    -1.636133  -0.185300  -0.478638
C    -1.181576  -0.519963  0.902781
O    -0.346639  -1.456314  1.103837
H    -2.025687  -1.087365  -0.967978
H    -0.763018  0.141581  -1.062210
H    -2.397076  0.601247  -0.508694
N    -1.660705  0.195832  1.931416
C    -1.179382  0.110664  3.324259
C    -1.786008  -1.125982  4.027156
O    -1.220631  -2.254096  3.866613
H    -2.328782  0.932536  1.714237
H    -0.099523  -0.091613  3.277868
C    -1.372842  1.450350  4.047683
S    -0.674881  1.433823  5.735027
H    -2.436767  1.718302  4.144650
H    -0.910722  2.253419  3.460500
H    0.582045  1.784771  5.377506
N    -2.889394  -1.008322  4.739321
C    -3.540039  -2.116818  5.445111
H    -3.279232  -0.079228  4.870841
H    -2.888132  -2.489728  6.244737
H    -3.762615  -2.931711  4.747710
H    -4.472291  -1.748820  5.880457
Sr    0.228033  -3.243266  2.392809
