24
Energy: -111563.5347884  eV PBE+vdW (tier 2 basis)
C    0.048165  -0.094667  0.010127
C    -0.048956  -0.231996  1.494734
O    0.896305  -0.770376  2.149806
H    -0.816017  0.401547  -0.442962
H    0.156497  -1.097000  -0.428331
H    0.959212  0.462646  -0.245682
N    -1.154239  0.226344  2.099096
C    -1.581631  0.078568  3.504982
C    -0.717715  0.883297  4.491349
O    0.473036  0.532289  4.765047
H    -1.862655  0.609782  1.479054
H    -2.593448  0.503765  3.520623
C    -1.726707  -1.393207  3.959787
S    -3.002596  -2.314549  3.051639
H    -2.058676  -1.396241  5.007098
H    -0.771841  -1.933765  3.920449
H    -2.272120  -2.546778  1.936019
N    -1.298426  1.908933  5.094347
C    -0.687406  2.752707  6.122397
H    -2.251341  2.138621  4.821496
H    -1.403477  2.893774  6.939420
H    -0.429351  3.732066  5.699694
H    0.213509  2.266326  6.502513
Sr    2.186526  -0.774881  4.009584
