24
Energy: -111563.4609859  eV PBE+vdW (tier 2 basis)
C    -0.083852  0.891538  0.342758
C    -0.316708  0.288679  1.690357
O    0.503785  0.502389  2.634360
H    -0.883908  0.687306  -0.376021
H    0.861548  0.495161  -0.055604
H    0.044435  1.977074  0.443616
N    -1.406912  -0.476768  1.856774
C    -1.796563  -1.344194  2.994517
C    -2.186344  -0.544228  4.249527
O    -1.300225  0.082597  4.918294
H    -1.989079  -0.579779  1.029572
H    -2.692330  -1.863933  2.639298
C    -0.762493  -2.437837  3.325505
S    -1.423764  -3.678258  4.487281
H    0.188070  -2.029109  3.688327
H    -0.537173  -2.990771  2.404445
H    -1.228767  -2.964962  5.621354
N    -3.445442  -0.535592  4.650004
C    -4.601294  -1.242160  4.078722
H    -3.610374  -0.008144  5.508065
H    -5.474013  -1.000817  4.691330
H    -4.442429  -2.327160  4.107496
H    -4.803166  -0.908446  3.054132
Sr    0.804701  0.955455  4.830562
