24
Energy: -111562.1959230  eV PBE+vdW (tier 2 basis)
C    -0.597247  0.612559  0.010596
C    -0.383029  0.479224  1.479777
O    0.328581  1.398682  2.090177
H    -0.912738  1.637206  -0.223882
H    -1.343233  -0.087067  -0.376486
H    0.352340  0.434806  -0.515303
N    -0.861000  -0.499341  2.194648
C    -1.713352  -1.639552  1.844681
C    -2.232403  -2.060392  3.260255
O    -1.689797  -1.532834  4.249986
H    -0.776394  -0.538314  3.253200
H    -2.551541  -1.311624  1.214229
C    -0.910579  -2.751889  1.122784
S    -1.955771  -4.094186  0.456222
H    -0.145082  -3.169073  1.786977
H    -0.393566  -2.316400  0.257975
H    -1.714639  -4.988146  1.441677
N    -3.222070  -2.948490  3.298202
C    -3.802420  -3.467764  4.535141
H    -3.520826  -3.350122  2.408634
H    -4.894161  -3.477293  4.447600
H    -3.505371  -2.820437  5.364246
H    -3.448605  -4.488112  4.731256
Sr    1.428381  2.904749  3.143358
