24
Energy: -111562.7700192  eV PBE+vdW (tier 2 basis)
C    -0.010128  -0.260493  0.024445
C    -0.004044  -0.033232  1.501479
O    1.086077  0.206857  2.110417
H    -0.787631  0.334265  -0.470182
H    -0.205464  -1.318122  -0.212691
H    0.968400  0.007923  -0.383974
N    -1.146098  -0.086986  2.227919
C    -2.182976  -1.116887  2.092860
C    -1.489017  -2.505370  2.263752
O    -0.287967  -2.579208  2.687362
H    -1.040732  0.285307  3.170349
H    -2.819799  -0.988534  2.981940
C    -3.120892  -0.969558  0.874334
S    -4.017903  0.612920  0.850036
H    -3.928386  -1.711313  0.952263
H    -2.610900  -1.160539  -0.076490
H    -2.969612  1.387619  0.485408
N    -2.188016  -3.592759  2.002005
C    -1.705023  -4.964592  2.195604
H    -3.140147  -3.476469  1.664785
H    -2.480998  -5.653524  1.852783
H    -1.501675  -5.151284  3.256892
H    -0.792862  -5.132121  1.611758
Sr    1.736818  -1.646188  3.333721
