24
Energy: -111563.4157175  eV PBE+vdW (tier 2 basis)
C    -0.129007  -0.554771  0.238454
C    -0.178366  0.043982  1.603900
O    0.882920  0.222636  2.276811
H    0.464939  0.105021  -0.410653
H    -1.117118  -0.698542  -0.210469
H    0.395946  -1.518185  0.278342
N    -1.370124  0.404891  2.108392
C    -1.547999  1.142836  3.366617
C    -1.372118  0.192563  4.582379
O    -0.197224  0.119830  5.078007
H    -2.192181  0.256799  1.527182
H    -0.690186  1.825624  3.456733
C    -2.800867  2.021064  3.306621
S    -2.941345  2.896884  4.908462
H    -3.705276  1.435852  3.100724
H    -2.663311  2.745016  2.493098
H    -3.989857  3.672559  4.549896
N    -2.335599  -0.559796  5.083589
C    -3.754109  -0.656914  4.726368
H    -2.038264  -1.113274  5.888139
H    -4.157674  -1.550680  5.209886
H    -3.882642  -0.771224  3.645174
H    -4.301953  0.222456  5.090499
Sr    1.949277  0.258976  4.297076
