24
Energy: -111563.4396747  eV PBE+vdW (tier 2 basis)
C    -0.117418  0.518665  -0.014098
C    -0.165686  0.421777  1.473846
O    0.778649  0.880357  2.188324
H    -0.974346  0.050485  -0.509092
H    0.809715  0.059538  -0.381846
H    -0.079681  1.581121  -0.295024
N    -1.233172  -0.152213  2.052200
C    -1.482335  -0.169805  3.504713
C    -0.562046  -1.198105  4.212356
O    0.525225  -0.746175  4.707339
H    -1.975106  -0.486146  1.440926
H    -1.123002  0.793519  3.894331
C    -2.983282  -0.242240  3.818004
S    -3.300814  -0.418173  5.604600
H    -3.468253  -1.103023  3.342658
H    -3.476691  0.656909  3.428748
H    -3.116494  0.883562  5.926599
N    -0.802547  -2.497167  4.262644
C    -1.941010  -3.277410  3.772364
H    -0.098899  -3.018277  4.786985
H    -2.265803  -2.929158  2.787585
H    -2.776144  -3.245391  4.484291
H    -1.614170  -4.316383  3.669189
Sr    2.088308  0.787733  4.058357
