24
Energy: -111562.4722631  eV PBE+vdW (tier 2 basis)
C    -0.221885  0.363634  -0.109947
C    -0.327580  0.115478  1.353679
O    0.699667  0.201025  2.111882
H    -1.179772  0.268504  -0.631452
H    0.494823  -0.348501  -0.543395
H    0.184267  1.369876  -0.281931
N    -1.508938  -0.207931  1.893113
C    -1.599000  -0.517613  3.318737
C    -2.640952  -1.498337  3.904649
O    -2.316846  -1.913117  5.027417
H    -2.323273  -0.265618  1.287917
H    -0.673129  -1.069965  3.530054
C    -1.608602  0.768569  4.195188
S    -0.551403  0.571400  5.687336
H    -2.619764  1.013670  4.542716
H    -1.234057  1.634601  3.636954
H    -1.016286  -0.717937  5.884538
N    -3.789230  -1.838740  3.301316
C    -4.371154  -1.373665  2.044025
H    -4.339927  -2.496909  3.852123
H    -5.419185  -1.686553  2.018572
H    -3.880824  -1.823974  1.168131
H    -4.374584  -0.276499  1.977853
Sr    1.909190  0.274641  4.023048
