24
Energy: -111563.4558770  eV PBE+vdW (tier 2 basis)
C    -0.514111  1.197022  0.467862
C    -0.258388  0.462564  1.739576
O    0.931016  0.256799  2.149213
H    -0.033356  0.662747  -0.363313
H    -0.041084  2.187191  0.525245
H    -1.579741  1.316462  0.248784
N    -1.301480  0.019683  2.450667
C    -1.179974  -0.545282  3.793678
C    -0.426135  -1.891292  3.765896
O    0.769616  -1.909223  4.212897
H    -2.244516  0.387536  2.245662
H    -0.524831  0.116247  4.382142
C    -2.558175  -0.592801  4.518474
S    -3.709547  0.739866  4.058283
H    -2.384413  -0.596794  5.599930
H    -3.112000  -1.506676  4.282778
H    -3.048706  1.756529  4.664527
N    -0.962871  -3.005931  3.291463
C    -2.257126  -3.246175  2.644994
H    -0.359096  -3.823310  3.390124
H    -2.639793  -2.335352  2.178458
H    -2.986692  -3.639930  3.364337
H    -2.108693  -3.994770  1.859240
Sr    2.542095  -0.647112  3.474080
