24
Energy: -111563.0920929  eV PBE+vdW (tier 2 basis)
C    0.025308  0.422846  0.166984
C    -0.156384  0.251439  1.638453
O    0.693286  0.718517  2.458929
H    -0.221731  1.450913  -0.139183
H    -0.567254  -0.278603  -0.428010
H    1.090528  0.278616  -0.056837
N    -1.233475  -0.412386  2.126206
C    -2.590828  -0.158079  1.650562
C    -3.059861  1.187119  2.299289
O    -2.208823  1.932517  2.898419
H    -1.165158  -0.621561  3.123497
H    -2.536862  0.011498  0.563567
C    -3.500022  -1.373924  1.921048
S    -5.030981  -1.275320  0.908001
H    -3.765052  -1.438876  2.983867
H    -2.943798  -2.277306  1.643421
H    -5.849931  -1.865584  1.808849
N    -4.325644  1.514819  2.185721
C    -4.925503  2.742413  2.710976
H    -4.929091  0.814304  1.710356
H    -5.975936  2.764784  2.409690
H    -4.416248  3.621942  2.299984
H    -4.865959  2.765517  3.806110
Sr    -0.130563  2.483022  3.719196
