24
Energy: -111562.8273679  eV PBE+vdW (tier 2 basis)
C    0.066233  -0.159386  0.113066
C    -0.011940  -0.016413  1.593134
O    1.031841  0.224614  2.280848
H    -0.770463  0.362411  -0.373141
H    0.014151  -1.220238  -0.180600
H    1.022745  0.241512  -0.235216
N    -1.192720  -0.128682  2.254946
C    -2.197503  -1.180219  2.054583
C    -1.528730  -2.547490  2.401228
O    -0.337016  -2.587798  2.849625
H    -1.134067  0.200596  3.217842
H    -2.955893  -0.991353  2.830734
C    -2.929973  -1.165999  0.701963
S    -3.477967  0.547815  0.371470
H    -3.815336  -1.811706  0.777210
H    -2.298492  -1.550714  -0.108654
H    -4.256060  0.226754  -0.688711
N    -2.243170  -3.646227  2.250697
C    -1.779050  -4.997666  2.583523
H    -3.191379  -3.551457  1.894809
H    -2.558288  -5.708694  2.297954
H    -1.593043  -5.082916  3.660947
H    -0.860972  -5.230570  2.032354
Sr    1.668038  -1.616231  3.513621
