24
Energy: -111563.5183048  eV PBE+vdW (tier 2 basis)
C    -0.137336  0.866796  0.294675
C    -0.381961  0.323161  1.665228
O    0.432379  0.573849  2.604754
H    -0.002195  1.954700  0.351293
H    -0.934886  0.638272  -0.419572
H    0.807505  0.447969  -0.081314
N    -1.476991  -0.431972  1.855601
C    -1.874336  -1.233971  3.037414
C    -2.271544  -0.355754  4.240741
O    -1.384978  0.293862  4.883908
H    -2.054346  -0.569041  1.030129
H    -2.769185  -1.773213  2.708392
C    -0.832319  -2.293785  3.438945
S    -1.345876  -3.219622  4.924579
H    0.135511  -1.838206  3.681902
H    -0.651944  -2.973942  2.598554
H    -2.136923  -4.115211  4.288582
N    -3.541021  -0.269008  4.598267
C    -4.703423  -0.983153  4.056600
H    -3.704585  0.310045  5.422424
H    -4.822303  -0.796597  2.983251
H    -5.594667  -0.603653  4.563615
H    -4.623284  -2.059764  4.253373
Sr    0.739708  1.094234  4.793661
