24
Energy: -111563.6137888  eV PBE+vdW (tier 2 basis)
C    -0.160480  -0.086896  -0.029709
C    -0.081757  -0.103414  1.460341
O    1.045945  -0.076004  2.048989
H    -1.186675  -0.119397  -0.408815
H    0.400804  -0.939307  -0.435397
H    0.332357  0.823995  -0.397972
N    -1.224211  -0.142819  2.155543
C    -1.375628  0.056498  3.603516
C    -0.838790  -1.153548  4.407828
O    0.397630  -1.202211  4.700271
H    -2.085120  0.049240  1.630914
H    -0.734561  0.900530  3.907189
C    -2.844929  0.425444  3.916347
S    -3.576051  1.661047  2.794602
H    -2.925815  0.746175  4.961419
H    -3.515354  -0.437404  3.783708
H    -2.790321  2.701992  3.164034
N    -1.674276  -2.099868  4.794684
C    -1.301590  -3.284040  5.572820
H    -2.652631  -2.006406  4.535141
H    -2.164431  -3.595384  6.168887
H    -0.467820  -3.038664  6.236336
H    -1.012637  -4.106137  4.905047
Sr    2.403988  -0.593805  3.774884
