24
Energy: -111564.0654206  eV PBE+vdW (tier 2 basis)
C    0.829213  0.421206  0.329364
C    -0.300922  0.095144  1.251870
O    -0.104398  -0.584816  2.295273
H    0.541428  1.049029  -0.519994
H    1.251087  -0.520889  -0.049207
H    1.626341  0.920262  0.895789
N    -1.527887  0.541588  0.919683
C    -2.830953  0.293612  1.568202
C    -2.975091  1.054356  2.901303
O    -2.249871  0.782472  3.896976
H    -1.576199  1.087124  0.063647
H    -3.546352  0.739765  0.863171
C    -3.260391  -1.199288  1.611799
S    -2.827732  -2.337445  2.990809
H    -2.857560  -1.692823  0.718476
H    -4.352390  -1.250647  1.533279
H    -3.903418  -2.094401  3.778261
N    -3.906793  1.997458  2.959015
C    -4.179388  2.802292  4.154065
H    -4.449568  2.199280  2.124177
H    -5.080434  3.393993  3.973997
H    -3.338240  3.475533  4.360784
H    -4.339539  2.150137  5.019619
Sr    -0.697155  -0.851269  4.494003
