24
Energy: -111562.7570698  eV PBE+vdW (tier 2 basis)
C    -0.101501  0.343398  0.066101
C    -0.097927  0.032959  1.522843
O    0.995501  0.051552  2.177245
H    -1.020159  0.864225  -0.235772
H    -0.018132  -0.580662  -0.528306
H    0.778641  0.956334  -0.156570
N    -1.236181  -0.247787  2.211434
C    -2.278989  -1.211274  1.834365
C    -1.671518  -2.636208  1.988669
O    -0.404916  -2.781366  2.079114
H    -1.083404  -0.209933  3.219810
H    -3.067955  -1.094860  2.593485
C    -2.935289  -0.993626  0.462633
S    -3.614415  0.706461  0.414191
H    -3.755319  -1.711195  0.354679
H    -2.229419  -1.173409  -0.357464
H    -4.331443  0.522079  -0.718811
N    -2.463179  -3.692727  2.053289
C    -3.928477  -3.770015  2.048524
H    -1.971232  -4.584439  2.123415
H    -4.230213  -4.563527  2.740320
H    -4.298678  -4.018234  1.045758
H    -4.375639  -2.830716  2.386427
Sr    1.726832  -2.074441  2.662638
