24
Energy: -111563.4433212  eV PBE+vdW (tier 2 basis)
C    0.477330  1.442241  0.585852
C    0.315580  0.605415  1.816878
O    1.172989  -0.301215  2.078891
H    1.392316  2.042322  0.700339
H    -0.365090  2.116759  0.402477
H    0.628242  0.798724  -0.289748
N    -0.743896  0.857352  2.586209
C    -1.178258  0.456394  3.924861
C    -0.703087  -0.882357  4.484944
O    -0.490766  -1.910585  3.772048
H    -1.395658  1.585101  2.244545
H    -0.839098  1.243551  4.619822
C    -2.747267  0.454231  3.932535
S    -3.499342  1.904713  3.134016
H    -3.109054  0.355079  4.962017
H    -3.113592  -0.409242  3.361293
H    -3.214353  2.798755  4.112762
N    -0.630681  -0.933642  5.810852
C    -0.384450  -2.144587  6.594132
H    -0.777623  -0.070789  6.329358
H    0.685181  -2.252364  6.818676
H    -0.741227  -3.018241  6.041389
H    -0.931930  -2.068851  7.538897
Sr    1.189731  -2.537765  2.344952
