24
Energy: -111562.8808050  eV PBE+vdW (tier 2 basis)
C    -0.055338  0.226079  -0.055919
C    -0.161654  -0.021854  1.410719
O    0.859672  -0.322316  2.104817
H    0.292938  1.253218  -0.248798
H    -1.003123  0.070022  -0.581014
H    0.709509  -0.446462  -0.463495
N    -1.358778  0.081647  2.036190
C    -2.275493  1.197438  1.823463
C    -1.585153  2.478974  2.369221
O    -0.523513  2.375677  3.077523
H    -1.350177  -0.267973  2.995650
H    -2.453178  1.316922  0.745969
C    -3.627303  0.901011  2.514897
S    -4.591228  -0.399753  1.691765
H    -4.266155  1.790822  2.483124
H    -3.471207  0.670987  3.579237
H    -3.884080  -1.454672  2.159194
N    -2.092191  3.670858  2.107365
C    -3.254926  4.028693  1.287709
H    -1.600481  4.448923  2.549238
H    -3.008877  4.929154  0.714827
H    -4.122468  4.243273  1.924777
H    -3.504494  3.228931  0.585050
Sr    1.422313  1.281073  3.685982
