24
Energy: -111563.5371118  eV PBE+vdW (tier 2 basis)
C    0.006721  -0.109300  -0.031086
C    0.003661  -0.068169  1.462665
O    1.082731  -0.245668  2.107627
H    -0.965290  0.118569  -0.480185
H    0.318550  -1.114714  -0.349769
H    0.757591  0.592883  -0.415923
N    -1.163804  0.156626  2.084264
C    -1.505175  0.075013  3.525034
C    -0.865658  1.198825  4.361116
O    0.388058  1.223558  4.574147
H    -1.962432  0.284991  1.468029
H    -2.592430  0.220986  3.552189
C    -1.240100  -1.314305  4.142455
S    -2.006808  -1.512494  5.782283
H    -0.171988  -1.561987  4.175665
H    -1.717747  -2.070302  3.505636
H    -1.069613  -0.836059  6.487659
N    -1.683885  2.097761  4.878290
C    -1.302296  3.205042  5.754065
H    -2.678713  1.981288  4.697806
H    -0.221742  3.190426  5.908383
H    -1.815272  3.099101  6.717743
H    -1.599480  4.155323  5.294448
Sr    2.384777  0.386778  3.842538
