24
Energy: -111562.9246236  eV PBE+vdW (tier 2 basis)
C    0.833927  -0.693460  1.668075
C    0.216593  0.644636  1.900559
O    0.938744  1.675013  2.092189
H    1.216253  -0.774597  0.638786
H    0.147185  -1.523248  1.861586
H    1.704470  -0.779521  2.331528
N    -1.128191  0.790023  1.909893
C    -2.006916  0.180389  0.919461
C    -1.821297  0.969880  -0.415663
O    -0.963104  1.908183  -0.494539
H    -1.455747  1.680299  2.288445
H    -1.668384  -0.853901  0.749132
C    -3.458212  0.151383  1.414821
S    -3.468845  -0.723001  3.021175
H    -4.085163  -0.390031  0.694685
H    -3.855737  1.173125  1.511931
H    -4.816392  -0.753568  3.143249
N    -2.560552  0.622381  -1.451083
C    -2.495493  1.252435  -2.774656
H    -3.222956  -0.139868  -1.327828
H    -1.509117  1.091620  -3.225924
H    -2.691806  2.327562  -2.693162
H    -3.258235  0.795984  -3.410393
Sr    0.761072  3.206936  0.371806
