24
Energy: -111562.8763695  eV PBE+vdW (tier 2 basis)
C    0.066457  1.440917  0.144028
C    -0.389355  0.683641  1.345380
O    -0.039407  1.073539  2.524780
H    -0.240403  2.492045  0.227743
H    -0.324260  1.024684  -0.789482
H    1.165193  1.425002  0.109086
N    -1.145511  -0.380849  1.186639
C    -1.642732  -1.321862  2.180477
C    -2.279619  -2.449022  1.272268
O    -2.381516  -2.218801  0.067720
H    -1.452722  -0.715580  0.243847
H    -0.798429  -1.759580  2.737895
C    -2.686202  -0.719001  3.148282
S    -1.948243  -0.424446  4.821093
H    -3.506012  -1.425159  3.323106
H    -3.106745  0.207385  2.744217
H    -3.063255  -0.012228  5.474203
N    -2.672841  -3.567698  1.893288
C    -3.277638  -4.699683  1.183541
H    -2.443083  -3.698433  2.873567
H    -4.086244  -5.118040  1.791746
H    -2.528824  -5.477098  0.986214
H    -3.680533  -4.341384  0.232603
Sr    0.027222  1.798045  4.590696
