24
Energy: -111564.0878141  eV PBE+vdW (tier 2 basis)
C    -0.850999  0.447725  -0.368912
C    -0.499823  0.564257  1.080573
O    0.702673  0.546359  1.452124
H    -0.401610  1.293687  -0.908006
H    -1.927801  0.431474  -0.565573
H    -0.394808  -0.464337  -0.776038
N    -1.519673  0.696166  1.956254
C    -1.496711  0.872558  3.421923
C    -0.560047  2.004230  3.902741
O    0.664964  1.797168  4.126188
H    -2.447761  0.699672  1.541831
H    -2.519375  1.202789  3.659212
C    -1.348194  -0.429497  4.239092
S    0.134624  -1.500927  4.098418
H    -2.206809  -1.079925  4.032133
H    -1.394307  -0.177723  5.307576
H    -0.162883  -2.075584  2.907806
N    -1.125072  3.185689  4.115434
C    -0.423820  4.374932  4.603730
H    -2.118980  3.284462  3.924333
H    0.505668  4.071161  5.091078
H    -1.064779  4.892606  5.324856
H    -0.200612  5.053544  3.770365
Sr    2.257132  0.427517  3.148860
