24
Energy: -111563.3711918  eV PBE+vdW (tier 2 basis)
C    0.538054  -0.558654  0.243660
C    0.116641  -0.133386  1.616384
O    0.898742  -0.329288  2.603698
H    1.409117  0.046729  -0.047835
H    -0.244827  -0.435630  -0.511521
H    0.870040  -1.604182  0.258946
N    -1.084138  0.435144  1.731252
C    -1.797453  1.169788  2.777625
C    -1.478795  0.868724  4.233627
O    -1.110880  -0.279295  4.641436
H    -1.641894  0.501799  0.862259
H    -1.608253  2.240763  2.604389
C    -3.332661  0.914777  2.567144
S    -3.878732  1.049727  0.837576
H    -3.915206  1.589823  3.202507
H    -3.571706  -0.115155  2.863474
H    -3.807304  2.400540  0.745482
N    -1.689560  1.841891  5.117074
C    -2.103745  3.233534  4.897882
H    -1.599460  1.546021  6.088330
H    -1.936089  3.783050  5.828440
H    -3.169054  3.302098  4.645148
H    -1.502440  3.705502  4.112589
Sr    0.836598  -1.479315  4.541433
