24
Energy: -111562.8157769  eV PBE+vdW (tier 2 basis)
C    -0.618760  -2.151214  0.132626
C    -0.086540  -1.401458  1.305566
O    0.936678  -1.825763  1.934580
H    -0.792999  -1.467848  -0.709703
H    0.097388  -2.925897  -0.155643
H    -1.577981  -2.636544  0.370243
N    -0.659800  -0.250407  1.733440
C    -2.092772  -0.016356  1.924654
C    -2.596054  -1.029143  3.001879
O    -1.779698  -1.816799  3.583240
H    -0.070888  0.254684  2.394270
H    -2.152986  0.981311  2.385458
C    -2.977113  0.032010  0.650235
S    -2.270343  0.948131  -0.748829
H    -3.949343  0.470587  0.913971
H    -3.182798  -0.972802  0.262309
H    -2.280422  2.172217  -0.168789
N    -3.881180  -1.031890  3.304081
C    -4.498605  -1.891825  4.320074
H    -4.489133  -0.385561  2.807112
H    -5.571111  -1.683025  4.340944
H    -4.072792  -1.680688  5.308155
H    -4.343437  -2.947944  4.071140
Sr    0.339290  -2.679803  3.990383
