24
Energy: -111563.7283383  eV PBE+vdW (tier 2 basis)
C    0.903612  1.383434  0.754733
C    0.513975  0.072480  1.351555
O    1.305503  -0.921195  1.312882
H    1.786771  1.761284  1.290289
H    0.110970  2.137026  0.803794
H    1.203929  1.238378  -0.291070
N    -0.683336  -0.035859  1.944917
C    -1.152592  -1.213242  2.685200
C    -1.582149  -2.334690  1.708203
O    -0.697413  -3.177739  1.339583
H    -1.304976  0.769667  1.908321
H    -0.274897  -1.624139  3.208267
C    -2.155848  -0.819913  3.788534
S    -3.773866  -0.123454  3.293210
H    -1.663166  -0.134710  4.489551
H    -2.410029  -1.723150  4.358464
H    -3.367424  1.139065  3.016458
N    -2.824761  -2.368605  1.279479
C    -3.382440  -3.363155  0.363578
H    -3.442240  -1.617254  1.632010
H    -4.406861  -3.590495  0.675711
H    -2.779064  -4.274000  0.392108
H    -3.404942  -2.965908  -0.659788
Sr    1.560245  -3.161825  0.979013
