24
Energy: -111563.6375121  eV PBE+vdW (tier 2 basis)
C    -0.001412  0.205495  0.007055
C    -0.040963  0.198168  1.499272
O    0.964538  0.591722  2.176068
H    0.109923  1.246449  -0.330585
H    -0.899792  -0.221020  -0.450263
H    0.883935  -0.338897  -0.345312
N    -1.157473  -0.218416  2.100868
C    -1.490922  -0.130681  3.522304
C    -0.821630  -1.269481  4.325833
O    0.433726  -1.208905  4.520354
H    -1.950545  -0.549840  1.529758
H    -1.030062  0.787342  3.922349
C    -3.028510  0.025838  3.661765
S    -4.069129  -0.879084  2.461723
H    -3.276957  1.074613  3.452565
H    -3.350912  -0.156332  4.694335
H    -3.921043  -2.136256  2.946446
N    -1.557036  -2.254040  4.807821
C    -1.066162  -3.383298  5.600179
H    -2.555738  -2.227320  4.618985
H    -1.691293  -3.493954  6.493260
H    -0.031828  -3.195518  5.894965
H    -1.119774  -4.305455  5.007822
Sr    2.295719  -0.009841  3.899410
