24
Energy: -111563.5689095  eV PBE+vdW (tier 2 basis)
C    -0.245741  -0.929505  0.149920
C    -0.066216  -0.237673  1.460831
O    1.056435  -0.273230  2.054200
H    -1.219578  -0.743622  -0.314142
H    -0.134926  -2.011562  0.315447
H    0.552088  -0.627897  -0.540319
N    -1.119679  0.407065  1.981347
C    -1.297864  0.968439  3.335213
C    -0.442379  2.222355  3.590610
O    0.819301  2.146261  3.720473
H    -1.978412  0.327230  1.443779
H    -2.351207  1.276646  3.358075
C    -1.111780  -0.072150  4.467786
S    -2.131296  -1.565237  4.264823
H    -1.314562  0.406817  5.433946
H    -0.076346  -0.435174  4.498347
H    -3.268370  -1.048885  4.787693
N    -1.088599  3.368420  3.739431
C    -0.473121  4.656662  4.062508
H    -2.097230  3.362947  3.607607
H    -1.104003  5.178331  4.789912
H    -0.386528  5.271725  3.157532
H    0.518180  4.488736  4.489644
Sr    2.615728  0.800278  3.283514
