24
Energy: -111564.0468018  eV PBE+vdW (tier 2 basis)
C    0.475241  0.588369  0.301226
C    -0.582268  0.226825  1.293500
O    -0.274096  -0.164358  2.450491
H    0.081497  0.935500  -0.659409
H    1.114328  -0.289256  0.131386
H    1.115795  1.369554  0.732592
N    -1.869536  0.333074  0.902282
C    -3.104029  0.049151  1.662216
C    -3.203416  0.830399  2.993043
O    -2.673539  0.407126  4.056899
H    -2.013474  0.650462  -0.052402
H    -3.900637  0.447845  1.017118
C    -3.479856  -1.441954  1.790484
S    -2.248677  -2.604766  2.534803
H    -3.677477  -1.830866  0.784375
H    -4.406429  -1.514549  2.372238
H    -3.150924  -3.445050  3.094810
N    -3.914580  1.950451  2.966935
C    -4.143393  2.811386  4.130139
H    -4.322606  2.245383  2.083967
H    -5.083441  3.351359  3.984965
H    -3.325631  3.535484  4.239631
H    -4.209414  2.196699  5.032468
Sr    -0.836435  -0.914264  4.557244
