24
Energy: -111562.7997548  eV PBE+vdW (tier 2 basis)
C    -0.333638  0.039386  -0.167704
C    -0.180458  0.115651  1.311616
O    0.622483  0.941636  1.845425
H    -0.575493  1.022851  -0.591445
H    -1.059667  -0.708065  -0.498190
H    0.652262  -0.234328  -0.576907
N    -0.890462  -0.711711  2.119946
C    -2.343298  -0.910869  2.005391
C    -3.005506  0.484405  2.076267
O    -2.389057  1.424337  2.697567
H    -0.557294  -0.714077  3.085572
H    -2.580577  -1.401165  1.054027
C    -2.764869  -1.844679  3.174299
S    -4.483017  -2.422973  3.199525
H    -2.515642  -1.376718  4.137363
H    -2.152543  -2.752348  3.082619
H    -4.997783  -1.373602  3.882269
N    -4.174543  0.729938  1.515198
C    -5.027960  -0.104582  0.661250
H    -4.515327  1.680266  1.673147
H    -5.162836  0.403976  -0.301507
H    -6.004542  -0.236232  1.140118
H    -4.591215  -1.092207  0.509795
Sr    -0.424882  2.538243  3.173959
