24
Energy: -111563.5911192  eV PBE+vdW (tier 2 basis)
C    -1.294856  -0.222792  -0.444265
C    -0.884100  -0.526288  0.959052
O    0.044143  -1.359120  1.197375
H    -1.514143  -1.155614  -0.978812
H    -0.441991  0.245350  -0.957959
H    -2.158205  0.447096  -0.512129
N    -1.510165  0.113672  1.957991
C    -1.123487  0.120099  3.380408
C    -1.672659  -1.143519  4.089121
O    -1.197804  -2.276448  3.748787
H    -2.255898  0.754162  1.693818
H    -0.026437  0.024195  3.421972
C    -1.519153  1.486063  3.957720
S    -1.017466  1.618483  5.718661
H    -2.602359  1.653151  3.850701
H    -0.997842  2.256626  3.376000
H    -1.380406  2.914814  5.855882
N    -2.600355  -1.014023  5.014261
C    -3.202919  -2.107690  5.775786
H    -2.798412  -0.062365  5.338903
H    -2.977915  -3.060079  5.291742
H    -4.287618  -1.957694  5.813859
H    -2.807830  -2.107854  6.799980
Sr    0.411876  -3.230225  2.437148
