24
Energy: -111563.4023027  eV PBE+vdW (tier 2 basis)
C    0.489641  0.620207  -0.096068
C    -0.055079  -0.276624  0.962374
O    0.719413  -0.899093  1.756921
H    1.073021  1.418554  0.384616
H    -0.287141  1.071952  -0.721019
H    1.184739  0.056042  -0.732315
N    -1.383487  -0.415850  1.073154
C    -2.036950  -1.112900  2.188522
C    -1.816049  -2.642576  2.110806
O    -0.927634  -3.140598  2.879185
H    -1.973819  0.221184  0.536157
H    -1.505709  -0.824473  3.110685
C    -3.492229  -0.656717  2.349914
S    -3.468651  1.151821  2.659580
H    -3.935484  -1.192978  3.198838
H    -4.091113  -0.863674  1.457511
H    -4.777771  1.356837  2.388268
N    -2.487726  -3.435279  1.291440
C    -3.494772  -3.126300  0.270496
H    -2.251866  -4.422953  1.397827
H    -3.444792  -3.907715  -0.494321
H    -3.284662  -2.167539  -0.211365
H    -4.504058  -3.124617  0.700293
Sr    1.244219  -2.500900  3.283333
