24
Energy: -111562.8633246  eV PBE+vdW (tier 2 basis)
C    -0.129504  -1.168749  0.350663
C    -0.254747  -0.705455  1.762681
O    0.056037  -1.498367  2.730086
H    0.898198  -1.505694  0.160111
H    -0.395323  -0.392919  -0.373739
H    -0.787136  -2.037233  0.202164
N    -0.688558  0.513981  2.003691
C    -1.012794  1.155990  3.270979
C    -1.900503  2.377599  2.791101
O    -1.880996  2.656937  1.593138
H    -0.982611  1.155497  1.232579
H    -1.613520  0.482287  3.900230
C    0.216757  1.687911  4.033904
S    1.091183  0.595954  5.244525
H    -0.042234  2.578198  4.619228
H    1.002451  1.989786  3.329551
H    0.223198  0.698784  6.280494
N    -2.583620  3.036896  3.735489
C    -3.431967  4.195213  3.434606
H    -2.621743  2.659574  4.676690
H    -3.376578  4.906296  4.264919
H    -4.474382  3.885911  3.286468
H    -3.067216  4.669474  2.519523
Sr    0.956623  -2.321304  4.543103
