16
Energy: -567335.9729164  eV PBE+vdW (tier 2 basis)
N    -0.744173  0.500751  0.052827
C    0.009457  0.202002  1.328950
C    1.528101  0.399708  0.954632
O    2.471455  -0.108377  1.724977
H    -0.067899  1.027057  -0.544992
H    -1.590740  1.059326  0.202739
H    -0.208808  1.008460  2.043823
C    -0.475053  -1.135787  1.912499
C    -0.303484  -2.282300  0.899978
O    -0.977811  -2.265033  -0.125811
O    0.579497  -3.252120  1.126664
H    -1.550970  -1.062785  2.129739
H    0.009265  -1.312520  2.880157
O    1.757697  1.133572  0.006271
H    -1.012171  -0.413758  -0.390382
Hg    2.274637  -2.227194  1.891929
