16
Energy: -567335.9721283  eV PBE+vdW (tier 2 basis)
N    0.394795  -0.300784  0.539391
C    0.192725  -0.262047  2.036983
C    1.613752  -0.576373  2.642651
O    2.571136  -0.328786  1.926466
H    -0.096102  0.450843  0.044137
H    0.045551  -1.227167  0.186340
H    -0.007299  0.781062  2.321602
C    -1.018514  -1.130622  2.416182
C    -0.840560  -2.580423  1.931001
O    -0.685468  -3.568164  2.809522
O    -0.819822  -2.796252  0.722510
H    -1.913650  -0.735246  1.913576
H    -1.218172  -1.036013  3.490145
O    1.727631  -0.959468  3.900419
H    1.426445  -0.208307  0.401872
Hg    0.626552  -2.751252  4.266203
