16
Energy: -567336.1854962  eV PBE+vdW (tier 2 basis)
N    -0.345803  0.243201  0.229507
C    0.154747  -0.187037  1.477612
C    1.691429  -0.296727  1.541620
O    2.251135  -1.054831  2.301230
H    0.018413  -0.126431  -0.641915
H    -1.174584  0.823400  0.171623
H    -0.145736  0.527523  2.262210
C    -0.460699  -1.567191  1.843002
C    -0.190401  -1.905000  3.356530
O    -0.023661  -3.151431  3.510393
O    -0.231816  -1.016732  4.217670
H    -0.072544  -2.374347  1.214363
H    -1.555966  -1.535062  1.750930
O    2.296068  0.544693  0.691468
H    3.264546  0.448193  0.804648
Hg    0.335960  -2.954996  5.799900
