16
Energy: -567336.2445411  eV PBE+vdW (tier 2 basis)
N    -0.687368  0.699878  -0.488499
C    -0.349837  0.562144  0.939142
C    0.905886  -0.309607  1.076891
O    1.274568  -1.119340  0.235348
H    0.055163  1.157047  -1.022255
H    -1.554520  1.224744  -0.621649
H    -0.097888  1.546596  1.365275
C    -1.523703  0.014790  1.793740
C    -1.960071  -1.460137  1.762410
O    -1.859921  -2.278364  0.723026
O    -2.490594  -1.933063  2.752666
H    -2.424715  0.608801  1.568933
H    -1.292929  0.222526  2.845414
O    1.522879  -0.088434  2.229302
H    2.290595  -0.693152  2.313045
Hg    -0.889545  -1.636429  -1.084788
