16
Energy: -567336.1853418  eV PBE+vdW (tier 2 basis)
N    -0.388355  -0.052109  -0.175135
C    -0.204374  -0.044189  1.224673
C    1.248544  -0.293878  1.675429
O    1.514208  -0.763134  2.759001
H    0.058859  -0.746726  -0.763421
H    -1.072171  0.552407  -0.615389
H    -0.499653  0.937672  1.631546
C    -1.122615  -1.114426  1.880370
C    -1.191250  -0.897847  3.437731
O    -1.222872  0.244648  3.913743
O    -1.283782  -2.009575  4.038090
H    -0.788359  -2.134470  1.667893
H    -2.158682  -0.995730  1.531659
O    2.139937  0.084016  0.748244
H    3.038016  -0.072383  1.107674
Hg    -1.306448  -1.018274  6.142893
