16
Energy: -567336.2686662  eV PBE+vdW (tier 2 basis)
N    0.894951  -1.359725  0.141598
C    0.382902  -0.359237  0.989967
C    1.570792  0.299702  1.718289
O    2.719560  0.015992  1.474644
H    0.312635  -1.823234  -0.546382
H    1.909419  -1.430533  0.063752
H    -0.110150  0.457844  0.413769
C    -0.735586  -0.866548  1.918241
C    -0.240998  -2.085647  2.736797
O    -0.742300  -2.169047  3.883209
O    0.571382  -2.884084  2.182132
H    -1.589473  -1.248751  1.336835
H    -1.102623  -0.081070  2.585361
O    1.148717  1.209358  2.608005
H    1.933385  1.628666  3.016729
Hg    0.536383  -4.213686  4.238055
