16
Energy: -567335.8035512  eV PBE+vdW (tier 2 basis)
N    0.107580  0.838594  0.517068
C    0.223407  -0.062770  1.662220
C    1.780719  -0.225842  1.927967
O    2.324937  -0.771072  2.896758
H    -0.541710  0.518074  -0.198688
H    -0.145885  1.788264  0.787397
H    -0.186208  0.372283  2.586101
C    -0.520482  -1.396653  1.393896
C    -0.058961  -2.332507  2.511442
O    -0.377859  -1.969871  3.686093
O    0.799195  -3.207373  2.209643
H    -0.254958  -1.819103  0.418515
H    -1.602085  -1.237508  1.465931
O    2.499183  0.355997  1.008421
H    1.783307  0.747055  0.382230
Hg    1.707820  -2.756567  4.340006
