16
Energy: -567336.2049461  eV PBE+vdW (tier 2 basis)
N    0.131265  0.661159  0.365653
C    -0.267993  0.117704  1.607573
C    0.939530  -0.466621  2.379976
O    0.873215  -1.469530  3.044721
H    -0.563165  0.989043  -0.296945
H    1.070677  1.032706  0.267297
H    -0.669930  0.905131  2.294399
C    -1.414730  -0.876960  1.494223
C    -1.035536  -2.077346  0.578659
O    -1.610392  -3.152122  0.875865
O    -0.232567  -1.865752  -0.373574
H    -2.297319  -0.417138  1.024125
H    -1.707662  -1.264744  2.473799
O    2.026338  0.309141  2.219568
H    2.761399  -0.075539  2.739138
Hg    -0.465250  -4.249019  -0.936794
