16
Energy: -567336.1703576  eV PBE+vdW (tier 2 basis)
N    -0.366661  0.332890  0.258289
C    0.045736  -0.074104  1.541648
C    1.534938  0.278321  1.684086
O    2.152273  0.856538  0.821176
H    0.345178  0.682138  -0.383856
H    -1.346363  0.407310  0.010347
H    -0.519641  0.410968  2.364154
C    -0.230115  -1.604440  1.666241
C    -0.219577  -2.042290  3.165163
O    0.219639  -3.219521  3.306032
O    -0.660200  -1.268969  4.033703
H    0.471144  -2.203087  1.075610
H    -1.251957  -1.837520  1.329362
O    2.039583  -0.146382  2.855137
H    2.984735  0.108434  2.881161
Hg    -0.134607  -3.161003  5.634219
