16
Energy: -567335.8569495  eV PBE+vdW (tier 2 basis)
N    0.028667  -0.059559  0.020585
C    0.115513  0.062930  1.439719
C    1.625880  0.247707  1.878665
O    2.262157  -0.670780  2.324580
H    0.685958  0.475807  -0.541785
H    -0.125752  -1.004473  -0.334058
H    -0.405313  0.984338  1.780213
C    -0.566043  -1.064826  2.186124
C    0.104315  -2.445071  1.940751
O    0.188788  -3.197955  2.943600
O    0.470938  -2.716186  0.760757
H    -1.605149  -1.176558  1.843398
H    -0.574967  -0.875555  3.262987
O    2.168714  1.452940  1.662376
H    1.506907  2.121734  1.406404
Hg    1.205730  -4.891302  1.631489
