16
Energy: -567335.7998495  eV PBE+vdW (tier 2 basis)
N    -0.423191  -0.035764  -0.124568
C    -0.085078  -0.119375  1.297545
C    1.222807  -0.896826  1.531753
O    1.536189  -1.329833  2.610657
H    -1.183993  0.617300  -0.321075
H    0.397778  0.188336  -0.689385
H    0.115463  0.906175  1.677911
C    -1.200911  -0.645271  2.237340
C    -1.794426  -1.792558  1.368486
O    -2.789123  -1.440659  0.685602
O    -1.032422  -2.779348  1.178548
H    -1.974131  0.099388  2.437999
H    -0.742787  -1.015447  3.160463
O    1.967365  -0.971175  0.407294
H    2.808245  -1.419685  0.631236
Hg    -1.482610  -2.393929  -1.133635
