16
Energy: -567336.2797702  eV PBE+vdW (tier 2 basis)
N    0.376683  0.163945  -0.218552
C    -0.005891  0.076848  1.130706
C    1.118584  0.593214  2.123260
O    0.865370  1.308587  3.052995
H    1.194285  -0.338159  -0.551686
H    0.077570  0.953458  -0.779319
H    -0.866294  0.729502  1.313812
C    -0.309270  -1.358538  1.585145
C    -1.424041  -1.988329  0.700143
O    -2.119545  -2.828479  1.325683
O    -1.505559  -1.655539  -0.511172
H    -0.615070  -1.393097  2.635957
H    0.562062  -2.020847  1.460381
O    2.320961  0.119580  1.767770
H    2.990355  0.455958  2.399287
Hg    -3.419201  -3.250103  -0.675408
