16
Energy: -567335.7123566  eV PBE+vdW (tier 2 basis)
N    0.084390  -1.164525  0.003205
C    0.303307  -0.294727  1.166169
C    1.818821  -0.284179  1.492190
O    2.598687  -1.136881  1.088112
H    0.490095  -0.789205  -0.856076
H    -0.904621  -1.384610  -0.142847
H    0.026701  0.744600  0.906315
C    -0.577413  -0.693288  2.387061
C    -0.588286  -2.250831  2.358793
O    0.569405  -2.737164  2.718313
O    -1.515620  -2.810563  1.789647
H    -1.599664  -0.321353  2.265808
H    -0.147622  -0.303202  3.316228
O    2.278890  0.712435  2.234408
H    1.588545  1.361019  2.471291
Hg    1.324386  -3.261527  0.700382
