16
Energy: -567338.9213827  eV PBE+vdW (tier 2 basis)
N    0.906735  -1.118432  1.827302
C    -0.116430  -0.356585  1.936774
C    4.541906  0.252449  2.975215
O    5.663383  0.433036  3.211030
H    1.841848  -0.809143  2.124793
H    -3.515927  -1.948917  0.799060
H    0.020495  0.644968  2.355202
C    -1.481583  -0.773910  1.521362
C    -1.602663  -2.200236  0.976183
O    -0.645434  -2.939517  0.836977
O    -2.824335  -2.618914  0.645670
H    -1.842576  -0.042505  0.775001
H    -2.145933  -0.635212  2.393870
O    3.400868  0.074977  2.738351
H    0.713063  -2.069191  1.424154
Hg    -1.211415  -2.846868  4.758053
