16
Energy: -567336.1852048  eV PBE+vdW (tier 2 basis)
N    -0.327079  -0.128254  -0.123573
C    -0.191495  -0.099766  1.281467
C    1.267345  -0.104739  1.779037
O    1.571626  -0.522737  2.873431
H    0.248523  -0.734300  -0.698008
H    -1.092424  0.350654  -0.583812
H    -0.661167  0.815106  1.680515
C    -0.936224  -1.314449  1.905002
C    -1.090268  -1.122937  3.459639
O    -1.335048  -0.006164  3.934777
O    -1.007278  -2.237475  4.056026
H    -0.427728  -2.261851  1.702024
H    -1.965771  -1.369801  1.522774
O    2.113543  0.415149  0.878748
H    3.013014  0.409660  1.267440
Hg    -1.266568  -1.277096  6.159516
