21
Energy: -33016.7154846 eV PBE+vdW (tier 2 basis)
N    0.648064  0.759101  0.596121
C    0.190279  0.190055  1.851551
C    1.339572  0.161138  2.858069
O    1.601856  -0.767842  3.622150
H    -0.129021  1.080554  0.020183
H    1.284321  1.543127  0.731010
H    -0.593474  0.798075  2.363179
C    -0.397762  -1.208240  1.557353
C    -1.333912  -1.815868  2.644426
C    -0.825924  -3.056672  3.318301
O    -1.608907  -4.108625  3.417060
N    0.377702  -3.080998  3.809549
H    0.420689  -1.892405  1.297737
H    -0.990698  -1.099818  0.641445
H    -2.317699  -2.045713  2.221002
H    -1.513841  -1.074532  3.443018
H    0.961093  -2.185009  3.735237
H    0.746349  -3.904463  4.280143
O    2.032636  1.291754  2.861676
H    2.747797  1.237949  3.529815
Ca    -2.903666  -5.614559  3.511692
