21
Energy: -33017.7389101 eV PBE+vdW (tier 2 basis)
N    -0.137658  0.232005  0.075379
C    -0.062662  -0.122860  1.469846
C    1.394506  -0.356686  1.852521
O    2.283078  -0.633184  0.987953
H    -0.061501  -0.561230  -0.559830
H    -0.977693  0.761323  -0.148285
H    -0.366652  0.764992  2.048917
C    -0.978729  -1.321124  1.890624
C    -0.956736  -1.841160  3.355829
C    -1.208490  -0.797312  4.399721
O    -0.299500  0.079507  4.711462
N    -2.349340  -0.714056  5.040252
H    -0.743448  -2.182117  1.248860
H    -2.000600  -1.012367  1.632013
H    0.013408  -2.304278  3.590922
H    -1.707546  -2.636428  3.446713
H    -3.103424  -1.373372  4.870192
H    -2.494525  0.003540  5.750814
O    1.773858  -0.241948  3.102310
H    0.540402  -0.036395  4.155574
Ca    3.894372  -0.360171  2.383927
