21
Energy: -33017.4517182 eV PBE+vdW (tier 2 basis)
N    -0.218571  -0.766550  0.202703
C    0.366521  -0.808050  1.577680
C    1.540221  -1.792154  1.538398
O    2.144096  -1.960540  0.453982
H    -0.870674  -1.561834  0.135718
H    -0.904483  0.078083  0.283548
H    0.870382  0.166606  1.732754
C    -0.687171  -0.965340  2.692184
C    -1.404868  0.334786  3.111832
C    -2.228743  1.064294  2.050984
O    -1.909929  1.085514  0.840408
N    -3.288597  1.746273  2.493282
H    -0.210573  -1.339746  3.613160
H    -1.412910  -1.739640  2.399332
H    -0.659303  1.064172  3.471042
H    -2.036344  0.104249  3.980152
H    -3.569958  1.755108  3.466990
H    -3.821895  2.312556  1.838512
O    1.990805  -2.413995  2.587890
H    1.458604  -2.249532  3.393879
Ca    1.465446  -1.078736  -1.402176
