21
Energy: -33017.1444255 eV PBE+vdW (tier 2 basis)
N    0.176892  -0.567747  0.153570
C    -0.006060  -0.241353  1.615969
C    1.344281  -0.299954  2.345658
O    1.466499  -0.607653  3.504071
H    -0.574256  -0.163243  -0.415830
H    1.076494  -0.203524  -0.186354
H    -0.320940  0.812302  1.674427
C    -1.106188  -1.104898  2.253206
C    -0.785587  -2.547343  2.682405
C    -0.389378  -3.550055  1.629526
O    -0.422348  -4.831270  2.036763
N    -0.026597  -3.202168  0.447617
H    -1.980314  -1.093586  1.584698
H    -1.424392  -0.576446  3.161132
H    -1.673427  -2.944134  3.196800
H    0.012378  -2.538068  3.442724
H    0.230362  -3.985183  -0.159592
H    0.138475  -1.678723  0.086220
O    2.345043  0.088481  1.522593
H    3.181358  0.126236  2.031048
Ca    -0.498985  -6.653414  2.750257
