21
Energy: -33018.3381081 eV PBE+vdW (tier 2 basis)
N    0.063597  -0.595651  -0.247737
C    0.166572  -0.066559  1.151004
C    1.618673  -0.268542  1.595712
O    2.544641  -0.267618  0.704264
H    -0.838191  -0.374529  -0.682356
H    0.816725  -0.227362  -0.841470
H    0.039021  1.028688  1.123320
C    -0.901313  -0.660758  2.098073
C    -1.484088  -2.056119  1.770455
C    -0.474878  -3.146280  1.465923
O    0.441515  -2.949718  0.620538
N    -0.595171  -4.319258  2.083490
H    -1.747442  0.036055  2.139564
H    -0.463382  -0.665197  3.104204
H    -2.149087  -2.001546  0.892229
H    -2.136969  -2.343326  2.604079
H    -1.340615  -4.508616  2.744256
H    0.012176  -5.090516  1.817496
O    1.915992  -0.356050  2.833126
H    0.207902  -1.707918  -0.087019
Ca    4.041400  -0.401591  2.299878
