21
Energy: -33016.4025882 eV PBE+vdW (tier 2 basis)
N    -0.298815  -0.088119  0.264216
C    0.202209  -0.113662  1.632142
C    1.576710  -0.794660  1.754129
O    1.986426  -1.604298  0.958259
H    0.114108  0.678031  -0.267804
H    -0.021501  -0.951814  -0.214575
H    0.304570  0.922974  1.987778
C    -0.808516  -0.896249  2.518434
C    -2.244103  -0.439926  2.229737
C    -2.809023  0.671490  3.018742
O    -4.083007  0.956652  2.903291
N    -2.075079  1.417706  3.816134
H    -0.536990  -0.849698  3.583277
H    -0.745993  -1.959702  2.247702
H    -2.970462  -1.264793  2.247922
H    -2.190260  -0.096630  1.157103
H    -1.090095  1.205205  3.959120
H    -2.465339  2.204288  4.329264
O    2.218179  -0.391525  2.872234
H    3.074148  -0.865745  2.919743
Ca    -6.026003  1.106370  2.466104
