21
Energy: -33016.5699255 eV PBE+vdW (tier 2 basis)
N    -0.084033  0.329655  0.085126
C    -0.174135  -0.170413  1.449390
C    1.217644  -0.609890  1.891623
O    2.248319  -0.271288  1.371565
H    0.857532  0.679274  -0.105045
H    -0.747214  1.083951  -0.089007
H    -0.443509  0.610840  2.187815
C    -1.277697  -1.258010  1.538335
C    -1.201908  -2.248603  0.364434
C    -0.485411  -3.531799  0.541418
O    -0.651832  -4.474223  -0.359684
N    0.322986  -3.765986  1.546705
H    -2.241817  -0.739821  1.454179
H    -1.292640  -1.742454  2.523119
H    -0.686831  -1.671120  -0.449357
H    -2.196267  -2.492872  -0.034441
H    0.821023  -4.649793  1.622113
H    0.527601  -3.034731  2.248505
O    1.176218  -1.434099  3.000293
H    2.094782  -1.498717  3.335740
Ca    -1.047146  -5.658152  -1.911130
