21
Energy: -33017.0890898 eV PBE+vdW (tier 2 basis)
N    0.196222  0.237242  -0.151919
C    -0.021648  -0.171754  1.282126
C    1.212370  0.094497  2.163924
O    1.274668  -0.276377  3.305427
H    1.074753  -0.152841  -0.514103
H    0.263692  1.256440  -0.251858
H    -0.814054  0.485289  1.672788
C    -0.461995  -1.641582  1.378731
C    -1.950861  -1.955363  1.160505
C    -2.545375  -1.738839  -0.212162
O    -3.723247  -2.355490  -0.417638
N    -1.974408  -1.004007  -1.095849
H    -0.214468  -1.956192  2.401488
H    0.160513  -2.259802  0.713121
H    -2.567668  -1.380480  1.873158
H    -2.115349  -3.010028  1.425906
H    -0.658922  -0.177981  -0.715506
H    -2.489348  -0.933212  -1.977949
O    2.154015  0.795778  1.493188
H    2.904008  0.969902  2.099600
Ca    -5.435559  -3.274927  -0.665961
