21
Energy: -33018.5528966 eV PBE+vdW (tier 2 basis)
N    0.733463  1.108294  0.188374
C    0.205267  0.902823  1.547095
C    1.379145  1.312214  2.469185
O    1.259367  1.457842  3.714616
H    0.343686  1.924489  -0.284221
H    0.626475  0.299025  -0.424045
H    -0.628415  1.589156  1.764120
C    -0.261792  -0.564485  1.720774
C    -0.595587  -1.105313  3.130851
C    -1.677115  -0.373747  3.897132
O    -1.376655  0.471029  4.803070
N    -2.946912  -0.622421  3.622178
H    0.525050  -1.223031  1.322466
H    -1.134146  -0.690958  1.063728
H    0.302771  -1.122623  3.760140
H    -0.898694  -2.154933  3.005221
H    -3.222210  -1.327418  2.944202
H    -3.688174  -0.150475  4.137230
O    2.479326  1.516839  1.854058
H    2.145131  1.378688  0.841534
Ca    0.264113  1.592037  5.568903
