21
Energy: -33018.4796254 eV PBE+vdW (tier 2 basis)
N    -0.657799  -0.298938  0.253101
C    0.043383  0.519189  1.287171
C    1.218456  -0.269003  1.859788
O    1.830054  0.162340  2.896529
H    -1.646746  -0.765905  0.773220
H    -0.960798  0.279181  -0.536715
H    0.523342  1.382320  0.793875
C    -0.925551  1.090665  2.342091
C    -1.683447  0.098536  3.248036
C    -2.816198  -0.666208  2.585902
O    -2.715411  -1.121015  1.411243
N    -3.923293  -0.886332  3.285248
H    -1.639834  1.744138  1.820605
H    -0.334103  1.752547  2.987270
H    -2.069537  0.656513  4.110954
H    -0.997767  -0.655617  3.669723
H    -4.056871  -0.526345  4.223372
H    -4.677800  -1.427911  2.869015
O    1.639770  -1.322653  1.256621
H    -0.039828  -1.035122  -0.109643
Ca    3.360978  -1.374381  2.632594
