21
Energy: -33016.4332313 eV PBE+vdW (tier 2 basis)
N    -0.630076  -0.203350  0.557230
C    -0.039409  0.027222  1.865304
C    1.488189  -0.170083  1.838548
O    2.045583  -0.847900  1.006595
H    -0.761687  0.664365  0.039436
H    -0.000658  -0.792601  0.001939
H    -0.262288  1.046106  2.209650
C    -0.623615  -0.992938  2.884088
C    -2.173706  -0.955268  2.801938
C    -2.834485  -2.267719  2.959731
O    -3.659819  -2.508930  3.947039
N    -2.611572  -3.224105  2.079869
H    -0.271912  -0.779516  3.900851
H    -0.251564  -1.992608  2.613771
H    -2.370231  -0.622446  1.754674
H    -2.603024  -0.232186  3.503649
H    -2.010674  -3.044560  1.276099
H    -3.038345  -4.143660  2.153131
O    2.085031  0.464212  2.864239
H    3.049125  0.299606  2.805293
Ca    -4.911726  -2.601535  5.499222
