21
Energy: -33018.7071416 eV PBE+vdW (tier 2 basis)
N    0.793062  1.121419  0.155873
C    0.248395  0.917497  1.555803
C    1.493369  1.217747  2.454037
O    1.243890  1.436645  3.702296
H    0.533380  0.385482  -0.511700
H    1.846957  1.115169  0.347739
H    -0.533254  1.665299  1.737530
C    -0.307593  -0.519325  1.669874
C    -0.616302  -1.076836  3.079255
C    -1.661794  -0.345346  3.902756
O    -1.326280  0.430712  4.848658
N    -2.944149  -0.542910  3.628512
H    0.432325  -1.210523  1.236801
H    -1.209085  -0.586917  1.042353
H    0.302307  -1.124518  3.675502
H    -0.946488  -2.116740  2.940899
H    -3.249882  -1.212542  2.929013
H    -3.662953  -0.085839  4.186507
O    2.588772  1.225306  1.903996
H    0.537350  2.029854  -0.249375
Ca    0.385973  1.533365  5.567671
