21
Energy: -33016.4688136 eV PBE+vdW (tier 2 basis)
N    -0.322567  -0.253583  -0.058363
C    -0.251942  0.048581  1.365640
C    1.183918  0.374679  1.812316
O    2.158827  -0.008123  1.207773
H    -0.475920  0.589738  -0.610293
H    0.573550  -0.647841  -0.364803
H    -0.900846  0.904125  1.597878
C    -0.740861  -1.189991  2.171405
C    -2.057987  -1.666253  1.559141
C    -2.514504  -3.040566  1.829007
O    -3.713936  -3.410956  1.447384
N    -1.746980  -3.934697  2.415657
H    -0.832806  -0.948006  3.237907
H    0.038416  -1.963668  2.058880
H    -1.884471  -1.563335  0.450930
H    -2.890703  -0.980918  1.781702
H    -0.820669  -3.675507  2.748284
H    -2.045490  -4.897472  2.549900
O    1.195275  1.084215  2.956036
H    2.128443  1.249203  3.204426
Ca    -5.541277  -3.710841  0.706285
