21
Energy: -33017.6826698 eV PBE+vdW (tier 2 basis)
N    -0.267020  0.331792  0.096653
C    0.128575  -0.063107  1.418547
C    1.644649  -0.112179  1.511382
O    2.400491  0.070057  0.508428
H    -0.141971  -0.388613  -0.612525
H    -1.217540  0.691353  0.052952
H    -0.149429  0.764688  2.097171
C    -0.490106  -1.392116  2.016371
C    -1.282810  -1.246885  3.326564
C    -0.514952  -1.249304  4.619125
O    0.734007  -0.920287  4.728087
N    -1.121529  -1.575680  5.737551
H    0.259413  -2.192327  2.108137
H    -1.201826  -1.742992  1.259408
H    -2.030469  -2.050566  3.391009
H    -1.869373  -0.310307  3.317216
H    -2.099043  -1.851853  5.751802
H    -0.623797  -1.539947  6.626356
O    2.211142  -0.339434  2.671146
H    1.221564  -0.694389  3.862962
Ca    4.193520  -0.000271  1.689713
