21
Energy: -33016.4005467 eV PBE+vdW (tier 2 basis)
N    -0.379219  0.209347  0.080017
C    -0.573492  0.132558  1.509312
C    0.707307  0.391902  2.325267
O    1.825963  0.134318  1.982786
H    0.439819  -0.320575  -0.222789
H    -0.264893  1.168933  -0.243191
H    -1.309079  0.902957  1.787039
C    -1.144319  -1.273180  1.827690
C    -1.429250  -1.619495  3.316599
C    -2.497981  -0.774195  3.934651
O    -3.732298  -1.202190  3.977407
N    -2.202399  0.408430  4.411767
H    -0.428237  -2.027902  1.471597
H    -2.050208  -1.391053  1.217697
H    -0.511499  -1.517106  3.912246
H    -1.742211  -2.668962  3.379797
H    -1.228393  0.757847  4.319735
H    -2.910485  1.018449  4.815164
O    0.421610  0.970018  3.562003
H    1.278835  1.137222  4.007879
Ca    -5.519631  -2.108708  3.962112
