21
Energy: -33016.7970901 eV PBE+vdW (tier 2 basis)
N    -0.556624  0.434772  -0.075010
C    -0.254956  0.001870  1.302673
C    1.099673  -0.704277  1.352470
O    1.501097  -1.509430  0.514893
H    -1.113007  1.290048  -0.035482
H    0.298519  0.687714  -0.573711
H    -0.198340  0.841677  2.012263
C    -1.383796  -0.931650  1.799233
C    -1.447526  -2.336958  1.148256
C    -1.536999  -2.391171  -0.351949
O    -2.714672  -2.424350  -0.932038
N    -0.452545  -2.500767  -1.065808
H    -2.330840  -0.395958  1.640511
H    -1.293334  -1.089357  2.882765
H    -2.326840  -2.860749  1.546342
H    -0.568331  -2.922288  1.448731
H    -0.490125  -2.525013  -2.082011
H    0.454040  -2.260446  -0.587384
O    1.795647  -0.367826  2.432062
H    2.644764  -0.859762  2.438511
Ca    -4.543891  -2.492683  -1.694542
