21
Energy: -33018.5329003 eV PBE+vdW (tier 2 basis)
N    0.435684  1.193241  1.375519
C    0.071924  0.206196  2.410876
C    1.395491  -0.058417  3.152333
O    1.470931  -0.820184  4.152729
H    0.029006  2.113819  1.548208
H    0.186582  0.918955  0.425348
H    -0.613969  0.655373  3.145214
C    -0.605496  -1.087022  1.901374
C    0.116366  -1.939501  0.844784
C    1.175087  -2.925854  1.307952
O    1.317080  -3.259856  2.527207
N    1.935457  -3.480842  0.377091
H    -1.572064  -0.786087  1.475721
H    -0.863110  -1.707513  2.771025
H    0.549991  -1.327782  0.039011
H    -0.646939  -2.555831  0.339832
H    1.832233  -3.252129  -0.607892
H    2.606486  -4.206441  0.619112
O    2.402787  0.548276  2.650934
H    1.886696  1.083527  1.848112
Ca    1.649979  -2.869710  4.586926
