21
Energy: -33016.4667323 eV PBE+vdW (tier 2 basis)
N    -0.499275  -0.078645  0.345548
C    0.213887  -0.084423  1.627991
C    1.724703  -0.293611  1.420169
O    2.221901  -1.387775  1.259531
H    -0.433405  0.826928  -0.118436
H    -0.121842  -0.781110  -0.294469
H    0.047482  0.885954  2.114382
C    -0.327329  -1.230039  2.505110
C    -1.853465  -1.173638  2.534254
C    -2.583166  -2.381755  2.970153
O    -3.871342  -2.314940  3.203018
N    -1.982394  -3.543375  3.111466
H    0.105227  -1.177934  3.513394
H    0.039062  -2.160596  2.037885
H    -2.160042  -0.943069  1.482053
H    -2.224588  -0.324024  3.129197
H    -0.978634  -3.620147  2.956277
H    -2.488802  -4.387289  3.367629
O    2.380311  0.878415  1.378283
H    3.323699  0.697560  1.184455
Ca    -5.816462  -1.941660  3.453456
