21
Energy: -33018.9085518 eV PBE+vdW (tier 2 basis)
N    -0.744425  0.945824  0.639942
C    -0.311317  0.146776  1.825480
C    1.219406  0.156421  1.862620
O    1.876964  0.340680  0.829106
H    -0.819681  1.929010  0.925002
H    -1.703324  0.676032  0.398718
H    -0.693596  0.613824  2.747868
C    -0.849990  -1.313708  1.824812
C    -0.174498  -2.409737  0.964643
C    -0.409097  -2.350451  -0.528029
O    -0.004601  -1.358390  -1.210879
N    -1.022301  -3.361611  -1.120760
H    -1.928301  -1.265823  1.609224
H    -0.789523  -1.667620  2.863058
H    -0.518011  -3.376855  1.353489
H    0.918516  -2.406245  1.108525
H    -1.150441  -3.362326  -2.131299
H    -1.345068  -4.175782  -0.606159
O    1.861996  -0.091770  2.978009
H    1.285165  -0.161295  3.764940
Ca    0.915877  0.567554  -1.168134
