21
Energy: -33018.800581 eV PBE+vdW (tier 2 basis)
N    0.182488  0.886511  0.122557
C    0.010039  0.062249  1.353818
C    1.276183  -0.782662  1.539791
O    2.078714  -0.964568  0.615133
H    -0.735602  1.221998  -0.184936
H    0.687861  1.742838  0.377640
H    -0.057517  0.717558  2.238813
C    -1.296939  -0.794451  1.362981
C    -1.908721  -1.323965  0.042920
C    -1.094191  -2.309313  -0.762921
O    -0.041802  -1.928617  -1.361870
N    -1.507121  -3.562213  -0.859137
H    -2.077675  -0.168827  1.814846
H    -1.156402  -1.634499  2.058244
H    -2.151967  -0.495992  -0.640357
H    -2.876059  -1.767729  0.312814
H    -2.361388  -3.884468  -0.413999
H    -0.991130  -4.231906  -1.427421
O    1.527858  -1.339633  2.700866
H    0.898522  -1.095503  3.408692
Ca    1.538039  -0.501326  -1.479515
