21
Energy: -33017.2319947 eV PBE+vdW (tier 2 basis)
N    -0.845512  0.450797  0.076059
C    -0.287406  0.481760  1.470444
C    1.243249  0.500060  1.288487
O    1.754172  0.218955  0.225048
H    -0.094314  0.051149  -0.523462
H    -1.039596  1.393017  -0.279072
H    -0.611355  1.407039  1.964711
C    -0.709429  -0.753020  2.289981
C    -2.164303  -0.829587  2.789021
C    -3.230412  -1.199471  1.780744
O    -4.354288  -1.720412  2.307589
N    -3.059345  -1.010008  0.524943
H    -0.067562  -0.755819  3.181024
H    -0.453668  -1.664485  1.728261
H    -2.465911  0.122138  3.259575
H    -2.202897  -1.574809  3.595801
H    -1.758204  -0.152286  0.070200
H    -3.850512  -1.295507  -0.058421
O    1.869924  0.824951  2.417485
H    2.838463  0.805082  2.265895
Ca    -5.971814  -2.514487  3.074988
