21
Energy: -33016.5205112 eV PBE+vdW (tier 2 basis)
N    0.968868  0.279118  0.453245
C    1.102210  -0.486123  1.687241
C    2.243198  -1.496330  1.541079
O    2.705007  -1.838379  0.471131
H    1.792443  0.165827  -0.139541
H    0.810548  1.269989  0.623196
H    1.314540  0.139326  2.566369
C    -0.234291  -1.250189  1.959836
C    -0.617329  -1.977411  0.671013
C    -1.980066  -2.503687  0.501100
O    -2.241721  -3.273956  -0.527961
N    -2.964758  -2.208329  1.323017
H    -0.982817  -0.480891  2.208924
H    -0.134248  -1.924474  2.820476
H    0.088744  -2.788011  0.431402
H    -0.441674  -1.204404  -0.127503
H    -2.793357  -1.634727  2.145682
H    -3.914737  -2.535330  1.164010
O    2.625875  -1.977680  2.736054
H    3.363722  -2.605547  2.593718
Ca    -2.215621  -4.324673  -2.224566
