21
Energy: -33018.3908159 eV PBE+vdW (tier 2 basis)
N    -0.657349  0.213610  0.615711
C    0.006052  -0.265902  1.844280
C    1.511095  -0.483420  1.693974
O    2.107583  -0.171135  0.601741
H    -0.191870  1.039959  0.230631
H    -0.664782  -0.492231  -0.125698
H    -0.086320  0.550539  2.581268
C    -0.688584  -1.522443  2.433424
C    -2.227483  -1.624194  2.253866
C    -3.038587  -0.373525  2.495725
O    -2.819558  0.686575  1.811837
N    -4.016249  -0.367205  3.380688
H    -0.434427  -1.569936  3.498701
H    -0.267225  -2.428852  1.977206
H    -2.585086  -2.438054  2.896403
H    -2.467803  -1.932038  1.223558
H    -4.248110  -1.186949  3.931801
H    -4.595504  0.463907  3.491408
O    2.182783  -0.948268  2.682391
H    -1.923749  0.529578  1.135345
Ca    4.017805  -0.725800  1.530619
