21
Energy: -33017.7135649 eV PBE+vdW (tier 2 basis)
N    1.197356  0.752960  2.412006
C    0.700892  -0.579331  2.713853
C    1.358899  -1.415657  1.618296
O    2.530718  -1.883693  1.802505
H    0.592865  1.332778  1.837050
H    1.527496  1.269082  3.222647
H    1.198579  -0.915534  3.633562
C    -0.817566  -0.755716  2.958081
C    -1.826084  -0.053968  2.007172
C    -2.444961  -0.924344  0.957361
O    -1.735337  -1.622037  0.126387
N    -3.748206  -1.004526  0.826178
H    -0.991749  -0.326293  3.953005
H    -1.057544  -1.824889  3.058360
H    -1.359549  0.793816  1.476782
H    -2.630639  0.393302  2.602621
H    -4.377079  -0.493060  1.438140
H    -4.159980  -1.574190  0.087492
O    0.819862  -1.588399  0.438043
H    -0.729662  -1.528835  0.275422
Ca    2.788049  -2.432445  -0.244869
