21
Energy: -33019.1461586 eV PBE+vdW (tier 2 basis)
N    -0.435018  0.693144  -0.211805
C    -0.241081  0.371443  1.263665
C    1.260975  0.161851  1.461770
O    1.942277  -0.170237  0.430215
H    0.388372  0.284698  -0.705654
H    -1.310164  0.318223  -0.600713
H    -0.595837  1.229342  1.846597
C    -1.016686  -0.890984  1.699503
C    -0.579686  -2.265345  1.108818
C    0.384592  -3.065576  1.974103
O    1.612029  -2.771027  2.054394
N    -0.101415  -4.101379  2.644668
H    -2.078243  -0.730301  1.461643
H    -0.968550  -0.909725  2.796518
H    -0.098749  -2.159004  0.125206
H    -1.483097  -2.863864  0.940596
H    -1.074828  -4.382180  2.580566
H    0.513886  -4.669008  3.224192
O    1.721945  0.157754  2.633144
H    -0.427213  1.708316  -0.383122
Ca    3.242493  -1.344142  1.930696
