21
Energy: -33017.2510444 eV PBE+vdW (tier 2 basis)
N    -0.699364  0.487599  0.426631
C    -0.240508  -0.037547  1.758141
C    1.101787  -0.733252  1.482812
O    1.606349  -0.745311  0.379298
H    0.116837  0.432410  -0.213645
H    -1.036785  1.452823  0.481051
H    -0.026902  0.822567  2.408816
C    -1.296169  -0.909370  2.463155
C    -1.593635  -2.316003  1.910670
C    -2.392896  -2.411174  0.630357
O    -2.992345  -3.597760  0.421024
N    -2.469839  -1.427751  -0.187884
H    -2.229181  -0.332000  2.538334
H    -0.940577  -1.036625  3.493851
H    -2.145244  -2.868633  2.684436
H    -0.661579  -2.888204  1.762396
H    -1.488961  -0.179660  0.050042
H    -3.030906  -1.613650  -1.023601
O    1.608799  -1.279796  2.590082
H    2.495710  -1.643846  2.386149
Ca    -3.879029  -5.317660  0.120148
