21
Energy: -33017.7852546 eV PBE+vdW (tier 2 basis)
N    -0.891171  1.099455  0.037257
C    -0.724296  0.556686  1.368190
C    0.673518  1.032244  1.883942
O    1.329130  0.400652  2.748827
H    -1.847502  1.370036  -0.183028
H    -0.520092  0.520325  -0.716531
H    -1.466628  1.045833  2.021336
C    -0.705183  -0.947748  1.676417
C    -1.797090  -1.993451  1.521104
C    -1.294436  -3.226874  2.292485
O    -0.215441  -3.166710  2.972374
N    -1.996742  -4.342547  2.242177
H    -0.576763  -0.905447  2.768976
H    0.204270  -1.361622  1.199284
H    -1.994737  -2.265285  0.474960
H    -2.753830  -1.666936  1.956791
H    -2.858402  -4.413031  1.707425
H    -1.689107  -5.168013  2.753728
O    1.135773  2.094468  1.319955
H    0.466908  2.301932  0.587567
Ca    1.382315  -1.713816  3.446946
