21
Energy: -33017.811115 eV PBE+vdW (tier 2 basis)
N    -0.008707  -1.629601  0.700373
C    -0.134334  -0.357911  1.511050
C    1.253133  0.221377  1.875603
O    1.523433  0.666378  2.962304
H    0.714427  -2.212416  1.143034
H    0.426626  -1.366864  -0.193304
H    -0.599230  0.379854  0.838365
C    -1.029960  -0.469273  2.752732
C    -0.609317  -1.427430  3.883355
C    -1.187454  -2.818717  3.814309
O    -1.655248  -3.286703  2.716097
N    -1.199497  -3.568829  4.898823
H    -2.076046  -0.662968  2.453232
H    -1.061011  0.541680  3.178968
H    -0.882547  -0.985337  4.852055
H    0.489126  -1.519919  3.932409
H    -0.851308  -3.225683  5.790736
H    -1.561713  -4.520282  4.869978
O    2.075963  0.159515  0.810002
H    2.934248  0.572389  1.043343
Ca    -1.982486  -2.988201  0.680857
