21
Energy: -33018.5752585 eV PBE+vdW (tier 2 basis)
N    -0.372445  -0.596051  0.209993
C    0.266976  -0.317067  1.518363
C    1.721083  -0.786043  1.560446
O    2.199195  -1.506260  0.611628
H    -0.151893  0.120473  -0.486877
H    -0.041799  -1.489377  -0.171479
H    0.292664  0.774012  1.663659
C    -0.538513  -0.945476  2.681878
C    -1.915198  -0.304855  2.958240
C    -3.023799  -0.640677  1.982654
O    -2.807855  -0.801813  0.739104
N    -4.263931  -0.737894  2.432946
H    0.060630  -0.830213  3.594129
H    -0.647158  -2.027582  2.510382
H    -1.830298  0.795048  2.973306
H    -2.231010  -0.589868  3.970445
H    -4.495441  -0.625165  3.413980
H    -5.025246  -0.907209  1.778277
O    2.461456  -0.457314  2.552297
H    -1.669611  -0.684530  0.430516
Ca    4.145902  -1.491189  1.637703
