21
Energy: -33016.4104144 eV PBE+vdW (tier 2 basis)
N    0.272377  -0.391759  0.144944
C    -0.141730  -0.201024  1.511415
C    0.968111  -0.268767  2.574812
O    2.106025  -0.601830  2.423068
H    0.795538  -1.261073  0.022637
H    0.871852  0.365452  -0.182527
H    -0.537712  0.827070  1.587604
C    -1.263974  -1.216180  1.882787
C    -2.678070  -0.653489  1.739674
C    -3.127441  0.325422  2.781527
O    -4.345655  0.801114  2.708261
N    -2.353345  0.710238  3.762452
H    -1.125068  -1.631952  2.890515
H    -1.175123  -2.066748  1.196010
H    -3.423555  -1.467585  1.751777
H    -2.798355  -0.162097  0.757614
H    -1.361298  0.405997  3.852805
H    -2.695981  1.374434  4.454363
O    0.447560  0.132842  3.805799
H    1.164999  0.075526  4.469581
Ca    -6.236144  1.350881  2.338881
