34
Energy: -246966.961554 eV PBE+vdW (tier 2 basis)
C    -0.159723  -1.801882  0.138924
C    -0.230200  -1.187151  1.497532
O    0.813114  -0.745295  2.070201
H    0.233996  -1.057057  -0.566794
H    -1.127627  -2.161092  -0.225365
H    0.553531  -2.636604  0.153153
N    -1.421048  -1.097822  2.110521
C    -1.614648  -0.382939  3.379301
C    -1.026438  -1.174726  4.569056
O    0.083006  -0.772183  5.050300
H    -2.244796  -1.410504  1.602056
H    -0.973977  0.508757  3.330801
C    -3.050945  0.136501  3.577376
C    -3.134910  0.952912  4.847563
C    -2.521952  2.215261  4.923707
C    -3.813179  0.480874  5.976976
C    -2.565188  2.970913  6.087039
C    -3.870114  1.226975  7.152177
C    -3.238732  2.476981  7.216833
O    -3.246070  3.265411  8.315869
H    -3.779470  -0.683705  3.598057
H    -3.293554  0.752485  2.697036
H    -2.039484  2.643373  4.040894
H    -4.343570  -0.472059  5.938817
H    -2.117753  3.962516  6.135812
H    -4.422973  0.846985  8.012420
H    -3.786236  2.869653  9.020532
N    -1.595337  -2.260241  5.071935
C    -2.817543  -2.961729  4.680008
H    -1.100559  -2.642247  5.878233
H    -3.681411  -2.593458  5.246614
H    -2.683183  -4.026035  4.898916
H    -3.007127  -2.858461  3.609037
Ba    2.146516  -0.039984  3.991838
