34
Energy: -246967.30328 eV PBE+vdW (tier 2 basis)
C    0.489616  -1.580474  0.954264
C    0.287590  -0.952321  2.294722
O    1.276575  -0.497837  2.954380
H    0.909041  -0.826560  0.273014
H    -0.434496  -1.976208  0.520712
H    1.229268  -2.387535  1.032361
N    -0.954575  -0.865976  2.778746
C    -1.339801  -0.179995  4.016538
C    -0.982643  -1.067349  5.225907
O    0.156813  -0.914750  5.776732
H    -1.722999  -1.279915  2.244653
H    -0.690707  0.702416  4.113954
C    -2.806055  0.328712  3.921020
C    -3.852154  -0.697387  3.553839
C    -4.040316  -1.099201  2.215835
C    -4.700469  -1.258990  4.524283
C    -4.983055  -2.057671  1.868296
C    -5.657558  -2.216504  4.190685
C    -5.794072  -2.637140  2.858702
O    -6.690404  -3.557831  2.449549
H    -2.797111  1.138457  3.176764
H    -3.049598  0.800722  4.882755
H    -3.495090  -0.597722  1.410839
H    -4.655782  -0.902996  5.556466
H    -5.138349  -2.345458  0.829596
H    -6.320379  -2.613073  4.961157
H    -7.247909  -3.857576  3.187770
N    -1.848666  -1.974434  5.631556
C    -1.645807  -2.891318  6.750852
H    -2.746073  -2.013660  5.131162
H    -2.613561  -3.085095  7.223761
H    -0.966161  -2.442676  7.480591
H    -1.227757  -3.843473  6.398171
Ba    2.396647  -0.247183  5.082371
