34
Energy: -246966.95889 eV PBE+vdW (tier 2 basis)
C    0.218625  1.912770  0.414282
C    -0.060252  0.546473  0.951135
O    0.470053  -0.482401  0.394709
H    -0.253043  2.704380  1.004620
H    -0.154491  1.968381  -0.618211
H    1.301912  2.085558  0.374762
N    -0.861457  0.422340  1.992091
C    -1.420694  -0.793606  2.569749
C    -2.782585  -0.284080  3.161196
O    -2.898576  0.925669  3.364641
H    -1.369846  1.240297  2.385461
H    -1.584543  -1.538406  1.775850
C    -0.559828  -1.384936  3.717239
C    0.759984  -2.023909  3.347406
C    1.963078  -1.292099  3.356484
C    0.855685  -3.410498  3.104330
C    3.206814  -1.908271  3.159808
C    2.088014  -4.049670  2.915107
C    3.285129  -3.306207  2.976988
O    4.438333  -3.986902  2.819714
H    -1.172706  -2.135313  4.235700
H    -0.383182  -0.582449  4.447328
H    1.939165  -0.220713  3.560082
H    -0.046899  -4.024523  3.122322
H    4.119765  -1.312496  3.222685
H    2.145945  -5.132591  2.799785
H    5.215412  -3.451117  3.060980
N    -3.709553  -1.213188  3.437741
C    -5.007615  -0.895125  4.035554
H    -3.535585  -2.176783  3.173088
H    -5.815534  -1.079530  3.317125
H    -5.007745  0.161915  4.313706
H    -5.168834  -1.508333  4.929511
Ba    1.853856  -2.380434  0.289496
