34
Energy: -246967.191546 eV PBE+vdW (tier 2 basis)
C    -3.078881  -1.174119  -0.362655
C    -2.104084  -1.130584  0.768730
O    -0.898606  -1.497735  0.597228
H    -4.082485  -0.842179  -0.078715
H    -3.135104  -2.195549  -0.761161
H    -2.704082  -0.532944  -1.172610
N    -2.530992  -0.690944  1.956152
C    -1.686014  -0.354513  3.111906
C    -1.179844  -1.623027  3.829694
O    -0.123952  -2.196479  3.413893
H    -3.457528  -0.255817  1.976177
H    -0.778225  0.139034  2.729824
C    -2.453578  0.654926  4.004152
C    -3.022303  1.796125  3.198121
C    -2.193666  2.807636  2.684082
C    -4.394368  1.850843  2.911431
C    -2.711868  3.832671  1.906855
C    -4.930245  2.875223  2.131539
C    -4.088343  3.873419  1.621397
O    -4.521343  4.904705  0.863500
H    -1.763077  1.008259  4.782915
H    -3.289176  0.152529  4.518882
H    -1.127160  2.814953  2.918986
H    -5.073889  1.109770  3.340601
H    -2.075343  4.630357  1.527008
H    -6.003924  2.911505  1.942220
H    -5.488265  4.881065  0.765131
N    -1.847024  -2.072454  4.878488
C    -1.488695  -3.247577  5.672156
H    -2.671583  -1.550346  5.164233
H    -0.424086  -3.459900  5.546699
H    -2.078007  -4.117749  5.354817
H    -1.698949  -3.040257  6.726297
Ba    1.144690  -2.507847  1.356025
