34
Energy: -246966.869911 eV PBE+vdW (tier 2 basis)
C    0.116989  -1.431509  0.399546
C    0.136849  -0.898049  1.795229
O    1.246909  -0.525756  2.325136
H    0.744376  -2.332729  0.355270
H    0.557516  -0.696005  -0.286161
H    -0.891377  -1.683797  0.057355
N    -0.995191  -0.827274  2.465873
C    -1.211243  -0.463821  3.860300
C    -2.603051  -1.113196  4.159646
O    -3.310211  -1.423038  3.199700
H    -1.891825  -1.172796  2.066932
H    -0.424493  -0.911258  4.485230
C    -1.296547  1.071903  4.085890
C    -0.003914  1.823185  4.310890
C    0.400394  2.858184  3.447661
C    0.771431  1.619850  5.473472
C    1.502649  3.678914  3.735122
C    1.872888  2.426370  5.781135
C    2.229321  3.495098  4.929736
O    3.277520  4.253230  5.307744
H    -1.933317  1.250742  4.964596
H    -1.840031  1.505097  3.236212
H    -0.179093  3.062850  2.546086
H    0.481370  0.848820  6.189757
H    1.750838  4.502650  3.062629
H    2.420857  2.293914  6.714717
H    3.350144  5.067793  4.778253
N    -2.974196  -1.276278  5.443067
C    -2.203337  -1.026343  6.653795
H    -3.911113  -1.659891  5.549410
H    -2.674666  -1.566740  7.480148
H    -2.178882  0.040076  6.924053
H    -1.177480  -1.407283  6.562718
Ba    2.903918  0.839084  3.276856
