34
Energy: -246966.949492 eV PBE+vdW (tier 2 basis)
C    0.575058  -3.358582  2.085843
C    0.090523  -3.060543  3.465276
O    0.845629  -3.227319  4.476951
H    0.933955  -4.395197  2.040223
H    1.435774  -2.712315  1.863633
H    -0.191499  -3.206091  1.319335
N    -1.155435  -2.602854  3.634300
C    -1.666841  -2.208512  4.945133
C    -1.818873  -3.432258  5.867365
O    -1.074360  -3.454822  6.909058
H    -1.767353  -2.478877  2.826120
H    -0.862813  -1.637514  5.432153
C    -2.863900  -1.216863  4.856915
C    -4.068521  -1.638776  4.065088
C    -4.067559  -1.588469  2.657921
C    -5.234024  -2.080377  4.705537
C    -5.159982  -2.019803  1.915344
C    -6.343953  -2.499889  3.978313
C    -6.309167  -2.487793  2.574002
O    -7.339721  -2.881613  1.795900
H    -2.437682  -0.290881  4.440891
H    -3.147379  -0.981522  5.892242
H    -3.225659  -1.138278  2.122629
H    -5.284448  -2.086854  5.795794
H    -5.164957  -1.960814  0.828124
H    -7.248522  -2.817752  4.499259
H    -8.112341  -3.121009  2.335527
N    -2.621493  -4.459498  5.627902
C    -3.457568  -4.806726  4.476754
H    -2.592912  -5.162001  6.368398
H    -3.104660  -5.759586  4.062103
H    -3.424966  -4.029594  3.713139
H    -4.498436  -4.918662  4.798867
Ba    1.369084  -3.436352  6.853960
