34
Energy: -246967.145835 eV PBE+vdW (tier 2 basis)
C    -3.211224  -0.972189  1.482723
C    -2.230095  0.154473  1.526999
O    -1.211484  0.084521  2.280032
H    -3.746376  -0.993198  2.443893
H    -2.679447  -1.925909  1.384843
H    -3.947896  -0.878647  0.678198
N    -2.473643  1.225908  0.760739
C    -1.836467  2.557715  0.790637
C    -0.412346  2.550558  0.220071
O    0.554175  2.041629  0.865535
H    -3.341529  1.186356  0.234246
H    -2.461326  3.161573  0.119617
C    -1.899854  3.250428  2.182730
C    -3.300951  3.305856  2.729561
C    -4.199249  4.293929  2.301584
C    -3.754535  2.352428  3.654367
C    -5.508557  4.327485  2.770457
C    -5.057460  2.372401  4.134460
C    -5.948909  3.361918  3.689909
O    -7.200845  3.327975  4.196434
H    -1.480513  4.259560  2.053052
H    -1.244224  2.728943  2.896741
H    -3.872453  5.069333  1.605447
H    -3.068670  1.591294  4.033807
H    -6.186231  5.114445  2.436573
H    -5.403001  1.646961  4.869304
H    -7.732195  4.068014  3.856944
N    -0.226435  3.160380  -0.943242
C    1.061862  3.326223  -1.615649
H    -1.045230  3.533484  -1.416330
H    1.105539  4.326150  -2.059751
H    1.177341  2.576417  -2.408985
H    1.867759  3.213527  -0.886459
Ba    1.083468  0.606061  2.759516
