34
Energy: -246967.123013 eV PBE+vdW (tier 2 basis)
C    -0.266983  1.930255  0.385974
C    -0.476625  1.189470  1.667461
O    0.103953  1.573457  2.728309
H    -0.931145  1.604198  -0.420991
H    0.773882  1.770950  0.067770
H    -0.394515  3.006398  0.553346
N    -1.282053  0.119583  1.646150
C    -1.471991  -0.923691  2.673496
C    -2.273067  -0.430228  3.884890
O    -1.763370  0.363787  4.733551
H    -1.655860  -0.116958  0.731618
H    -2.075377  -1.686184  2.163736
C    -0.150929  -1.627891  3.096978
C    0.600764  -2.179884  1.915484
C    0.200201  -3.385501  1.315109
C    1.692562  -1.496339  1.365725
C    0.858706  -3.888481  0.202746
C    2.369333  -1.990284  0.252815
C    1.951858  -3.191976  -0.339555
O    2.551822  -3.743923  -1.416863
H    -0.429271  -2.426298  3.801617
H    0.492677  -0.929227  3.652630
H    -0.628000  -3.959423  1.736718
H    2.047058  -0.571199  1.826355
H    0.558768  -4.831071  -0.252246
H    3.232313  -1.454830  -0.145657
H    3.317576  -3.215194  -1.697697
N    -3.493897  -0.924595  4.041208
C    -4.386184  -0.639656  5.164525
H    -3.847897  -1.544135  3.316997
H    -4.891746  -1.564464  5.461723
H    -5.140062  0.102963  4.872933
H    -3.800580  -0.255998  6.003300
Ba    0.126787  1.846065  5.116346
