34
Energy: -246967.813604 eV PBE+vdW (tier 2 basis)
C    1.069938  2.623130  3.181176
C    0.433319  1.327309  3.583861
O    1.035627  0.238014  3.417493
H    1.996394  2.753568  3.757352
H    0.430395  3.498534  3.334239
H    1.359148  2.567895  2.123772
N    -0.799131  1.389725  4.131229
C    -1.644001  0.299418  4.660368
C    -0.871555  -0.611326  5.634986
O    -0.304616  -1.667769  5.246252
H    -1.199326  2.320241  4.207630
H    -2.392062  0.828264  5.264756
C    -2.488933  -0.465772  3.605490
C    -1.839238  -1.364950  2.577220
C    -1.217798  -0.853001  1.423501
C    -1.939825  -2.767635  2.685378
C    -0.685150  -1.690883  0.437439
C    -1.421727  -3.623358  1.710526
C    -0.802457  -3.090881  0.560025
O    -0.352686  -3.970701  -0.353494
H    -3.077590  0.301185  3.080276
H    -3.219185  -1.057263  4.175937
H    -1.159552  0.224888  1.271570
H    -2.446545  -3.203932  3.547151
H    -0.233565  -1.255796  -0.455742
H    -1.543771  -4.703597  1.789997
H    -0.068037  -3.529701  -1.173715
N    -0.845454  -0.268331  6.922267
C    -1.443524  0.900204  7.574521
H    -0.348610  -0.928521  7.519258
H    -1.133508  0.895302  8.623135
H    -2.540251  0.859553  7.547213
H    -1.088441  1.834506  7.123640
Ba    1.054091  -2.239089  3.232466
