34
Energy: -246966.587649 eV PBE+vdW (tier 2 basis)
C    0.758183  0.816586  1.205024
C    -0.144256  -0.074031  1.998100
O    0.329675  -0.870689  2.869259
H    0.973556  1.743292  1.760204
H    0.336954  1.089174  0.231753
H    1.713744  0.298981  1.062365
N    -1.481378  -0.011499  1.834031
C    -2.221825  1.206369  1.563213
C    -1.931134  2.211253  2.697140
O    -1.453248  1.814482  3.808524
H    -2.041536  -0.817202  2.130310
H    -1.923799  1.633826  0.594517
C    -3.754260  0.871370  1.526258
C    -4.034264  -0.399795  0.775915
C    -3.902460  -0.465093  -0.622893
C    -4.410259  -1.564383  1.463086
C    -4.134606  -1.645254  -1.309690
C    -4.648979  -2.759365  0.786170
C    -4.509867  -2.806454  -0.608749
O    -4.726350  -3.915189  -1.346524
H    -4.270057  1.732666  1.079488
H    -4.121119  0.786223  2.560440
H    -3.635421  0.428058  -1.191224
H    -4.578323  -1.529068  2.542743
H    -4.050612  -1.693303  -2.394245
H    -4.968305  -3.645740  1.335868
H    -5.021966  -4.654322  -0.788335
N    -2.250203  3.478647  2.492577
C    -2.135302  4.538972  3.498061
H    -2.620700  3.733520  1.580545
H    -2.480733  5.475384  3.052974
H    -1.091654  4.655930  3.812773
H    -2.754769  4.305875  4.371979
Ba    -0.358577  -0.017956  5.076519
