34
Energy: -246967.13417 eV PBE+vdW (tier 2 basis)
C    -2.853012  -1.379657  1.201082
C    -1.618534  -0.983585  1.945567
O    -0.468752  -1.325313  1.517177
H    -2.818709  -0.921467  0.202330
H    -3.775354  -1.070080  1.702856
H    -2.865849  -2.466932  1.053364
N    -1.759798  -0.258425  3.055428
C    -0.708523  0.406431  3.831146
C    -0.006812  -0.582383  4.790847
O    0.737348  -1.486552  4.294209
H    -2.705991  0.002994  3.354989
H    0.088652  0.692155  3.126514
C    -1.299661  1.703690  4.449343
C    -2.767679  1.671859  4.834259
C    -3.358641  0.664361  5.623645
C    -3.591790  2.728190  4.413591
C    -4.700778  0.712726  5.982515
C    -4.933391  2.797297  4.772715
C    -5.500502  1.788353  5.565835
O    -6.792119  1.777151  5.957089
H    -1.169681  2.494029  3.698722
H    -0.657018  2.018665  5.287972
H    -2.784036  -0.195672  5.974548
H    -3.171809  3.527799  3.801604
H    -5.147757  -0.068652  6.594946
H    -5.541481  3.638436  4.436840
H    -7.256919  2.571263  5.642509
N    -0.160548  -0.441443  6.095221
C    0.460308  -1.271059  7.125876
H    -0.762460  0.315182  6.413511
H    -0.318289  -1.771332  7.714711
H    1.060066  -0.639852  7.792421
H    1.099089  -2.018847  6.652045
Ba    1.578430  -2.387331  2.184571
