34
Energy: -246966.937456 eV PBE+vdW (tier 2 basis)
C    -0.850410  0.947300  0.216309
C    -0.749109  0.377020  1.601783
O    0.215822  0.512600  2.337982
H    -1.692157  0.551299  -0.363332
H    0.086694  0.754887  -0.318596
H    -0.955201  2.038666  0.293077
N    -1.860489  -0.373616  2.043021
C    -1.896727  -0.735530  3.443073
C    -1.713265  -2.233056  3.672188
O    -1.650369  -2.681049  4.869306
H    -2.737930  -0.253620  1.543078
H    -0.971210  -0.276087  3.846298
C    -3.135924  -0.161900  4.179970
C    -3.030139  -0.041929  5.683251
C    -1.987736  0.691518  6.294293
C    -4.021017  -0.573660  6.529626
C    -1.937769  0.888919  7.677171
C    -3.992482  -0.382525  7.920146
C    -2.962168  0.380864  8.507992
O    -2.867674  0.648254  9.822247
H    -4.035758  -0.736344  3.918285
H    -3.285949  0.850958  3.776292
H    -1.210923  1.149174  5.678172
H    -4.854980  -1.129386  6.097636
H    -1.150889  1.495342  8.126817
H    -4.803850  -0.776306  8.535560
H    -3.678457  0.407506  10.305815
N    -1.587757  -3.008825  2.616800
C    -1.348511  -4.447439  2.615794
H    -1.608016  -2.506843  1.725891
H    -0.345068  -4.658048  2.225103
H    -2.089264  -4.940559  1.975960
H    -1.433371  -4.831710  3.634829
Ba    -1.472947  -2.228874  7.206162
