34
Energy: -246967.02254 eV PBE+vdW (tier 2 basis)
C    0.138982  -1.665009  0.473829
C    -0.071275  -1.045810  1.815523
O    0.885887  -0.468669  2.426877
H    0.513058  -0.898934  -0.218881
H    -0.772039  -2.109763  0.061165
H    0.916493  -2.437492  0.547068
N    -1.286391  -1.104330  2.368464
C    -1.647405  -0.381188  3.589880
C    -0.890043  -0.925461  4.810744
O    0.013749  -0.188507  5.330336
H    -2.080950  -1.390183  1.782868
H    -1.281908  0.651767  3.481577
C    -3.198255  -0.306694  3.750657
C    -3.874445  -0.028031  2.433862
C    -4.386290  -1.088515  1.662143
C    -3.971087  1.272295  1.918142
C    -4.966624  -0.865387  0.418159
C    -4.556002  1.512087  0.679218
C    -5.054106  0.442179  -0.083897
O    -5.636307  0.595306  -1.292807
H    -3.404243  0.481293  4.487151
H    -3.587083  -1.239714  4.172993
H    -4.383369  -2.105811  2.062958
H    -3.612370  2.120825  2.503971
H    -5.387173  -1.683432  -0.164519
H    -4.645364  2.534145  0.307954
H    -5.701965  1.535722  -1.530518
N    -1.139003  -2.117384  5.338974
C    -2.058747  -3.175526  4.913651
H    -0.599087  -2.310390  6.182861
H    -2.254246  -3.115853  3.840743
H    -3.002926  -3.121255  5.470156
H    -1.586054  -4.141184  5.122918
Ba    2.020697  0.669188  4.240651
