34
Energy: -246966.725013 eV PBE+vdW (tier 2 basis)
C    -1.962245  -1.731601  0.656096
C    -0.921655  -1.084113  1.513221
O    0.299767  -1.417734  1.412681
H    -2.038843  -1.213274  -0.312701
H    -2.953354  -1.737261  1.121389
H    -1.647343  -2.760716  0.449941
N    -1.269765  -0.123667  2.396815
C    -2.229902  0.932063  2.085384
C    -1.548770  1.894522  1.069041
O    -0.405900  1.608903  0.569230
H    -0.517782  0.151200  3.030198
H    -3.089310  0.476163  1.573187
C    -2.739597  1.613478  3.382988
C    -3.874574  2.588798  3.173371
C    -3.699731  3.964708  3.411184
C    -5.144647  2.146268  2.765662
C    -4.740880  4.868938  3.235766
C    -6.195745  3.038552  2.585673
C    -6.000865  4.410999  2.819487
O    -6.970588  5.337669  2.671282
H    -1.898429  2.122423  3.878224
H    -3.052424  0.795363  4.048837
H    -2.734694  4.334523  3.763273
H    -5.333576  1.082039  2.609087
H    -4.606415  5.930174  3.438837
H    -7.176478  2.669651  2.282116
H    -7.815594  4.922433  2.428330
N    -2.197697  2.991445  0.741507
C    -1.709123  4.005285  -0.192178
H    -3.059405  3.183639  1.270006
H    -1.548820  3.566120  -1.183788
H    -0.770057  4.445384  0.165720
H    -2.465071  4.790926  -0.267733
Ba    1.654509  0.307699  0.291871
