34
Energy: -246967.904443 eV PBE+vdW (tier 2 basis)
C    -3.154418  0.692271  -0.239604
C    -2.305313  0.233368  0.907750
O    -1.144393  0.686354  1.060455
H    -2.611912  0.515563  -1.177513
H    -3.302323  1.777652  -0.156844
H    -4.132546  0.203305  -0.292861
N    -2.849773  -0.672035  1.747572
C    -2.313495  -1.310087  2.970780
C    -1.867083  -0.288287  4.034580
O    -0.763663  0.312618  3.970179
H    -3.795982  -0.955930  1.511863
H    -3.193355  -1.821554  3.383516
C    -1.292821  -2.461413  2.738115
C    0.126066  -2.178096  2.296298
C    0.462673  -2.013251  0.937645
C    1.184736  -2.191943  3.223796
C    1.783653  -1.838589  0.522191
C    2.518803  -2.030301  2.829090
C    2.834308  -1.873148  1.464024
O    4.085645  -1.741801  0.986022
H    -1.762483  -3.138642  2.009860
H    -1.256248  -3.022044  3.683329
H    -0.319613  -2.039980  0.179023
H    0.971735  -2.349126  4.281907
H    2.030966  -1.745951  -0.535154
H    3.314237  -2.085324  3.574470
H    4.756212  -1.924531  1.668169
N    -2.698331  -0.096900  5.056654
C    -2.422026  0.819142  6.164631
H    -3.580416  -0.599153  5.068642
H    -2.461855  1.861070  5.823097
H    -1.429185  0.616649  6.581474
H    -3.177986  0.665418  6.938929
Ba    1.002190  0.803676  2.267915
