34
Energy: -246967.053123 eV PBE+vdW (tier 2 basis)
C    0.196250  3.393418  2.359779
C    0.002033  2.029110  2.939444
O    0.172485  0.999629  2.219197
H    0.223651  4.188067  3.112594
H    -0.643401  3.591998  1.676545
H    1.115739  3.419096  1.763846
N    -0.367439  1.946174  4.225408
C    -0.886573  0.787207  4.977134
C    0.194683  -0.246824  5.299636
O    0.689443  -0.980072  4.385798
H    -0.516178  2.841077  4.682368
H    -1.232595  1.222875  5.920332
C    -2.134141  0.118952  4.324876
C    -3.221742  1.115257  4.028201
C    -3.374669  1.655874  2.741805
C    -4.089939  1.553748  5.038446
C    -4.351653  2.603419  2.466006
C    -5.072629  2.503919  4.780518
C    -5.208442  3.039311  3.489425
O    -6.138897  3.960106  3.156076
H    -2.480654  -0.655038  5.026385
H    -1.845470  -0.404632  3.401166
H    -2.736755  1.309094  1.925593
H    -4.019273  1.133842  6.044142
H    -4.486093  3.004850  1.462780
H    -5.748148  2.818669  5.577160
H    -6.704349  4.173209  3.917739
N    0.567534  -0.428527  6.560304
C    0.137945  0.293482  7.764223
H    1.238597  -1.184794  6.694491
H    -0.909507  0.076115  8.007433
H    0.284825  1.373802  7.652939
H    0.759179  -0.046870  8.597214
Ba    0.861188  -1.292545  1.983992
