34
Energy: -246967.057928 eV PBE+vdW (tier 2 basis)
C    2.602909  1.848598  2.061279
C    1.328772  1.258900  2.579692
O    0.950274  0.116438  2.181501
H    2.505483  1.982517  0.974374
H    3.427085  1.142215  2.222810
H    2.859461  2.811675  2.514376
N    0.620427  1.980427  3.461567
C    -0.742294  1.764344  3.993026
C    -0.804123  0.633657  5.028074
O    -0.500752  -0.558099  4.698992
H    1.030025  2.877918  3.704913
H    -0.978976  2.704787  4.502103
C    -1.842530  1.569869  2.915025
C    -3.216536  1.662096  3.529781
C    -3.805566  2.917174  3.761718
C    -3.921063  0.520617  3.930324
C    -5.044225  3.030032  4.377140
C    -5.166217  0.612876  4.548356
C    -5.736529  1.874814  4.778061
O    -6.939687  2.057929  5.363940
H    -1.713439  0.607752  2.397602
H    -1.694433  2.350795  2.155795
H    -3.296887  3.826805  3.435745
H    -3.503653  -0.473047  3.744971
H    -5.507721  4.002214  4.537510
H    -5.705521  -0.291232  4.834132
H    -7.364854  1.206821  5.563184
N    -1.221045  0.891546  6.256757
C    -1.706077  2.155229  6.825910
H    -1.284196  0.068325  6.855547
H    -2.664993  2.440945  6.376196
H    -0.971100  2.957361  6.693962
H    -1.846945  2.003899  7.899481
Ba    0.088927  -2.025202  2.861155
