34
Energy: -246966.597745 eV PBE+vdW (tier 2 basis)
C    0.061641  -2.367116  1.147156
C    0.085937  -1.395488  2.281559
O    1.191360  -0.923163  2.710995
H    0.648844  -3.253907  1.423239
H    0.546279  -1.920083  0.269161
H    -0.950361  -2.682191  0.872418
N    -1.061421  -1.033704  2.850380
C    -1.177243  -0.119288  3.991889
C    -2.530790  -0.385302  4.737018
O    -3.334510  0.526774  4.872296
H    -1.922086  -1.416222  2.463420
H    -0.352292  -0.369373  4.677994
C    -1.097197  1.366993  3.575050
C    0.188827  2.086287  3.877257
C    0.834987  2.869731  2.895938
C    0.748467  2.103610  5.173251
C    1.970772  3.636568  3.183669
C    1.887791  2.860186  5.481578
C    2.496978  3.663375  4.492922
O    3.571688  4.445146  4.705038
H    -1.930272  1.862025  4.106617
H    -1.336077  1.457456  2.508255
H    0.419518  2.912090  1.887354
H    0.264631  1.552608  5.981735
H    2.423833  4.272651  2.422402
H    2.261319  2.877595  6.507431
H    3.771879  4.545073  5.653183
N    -2.747947  -1.641825  5.201010
C    -1.848922  -2.788713  5.251319
H    -3.658293  -1.745831  5.644923
H    -2.098581  -3.390432  6.131547
H    -0.803982  -2.472879  5.359828
H    -1.938068  -3.433387  4.364840
Ba    2.885293  0.637734  3.385329
