34
Energy: -246967.025064 eV PBE+vdW (tier 2 basis)
C    -0.616718  2.655601  4.336289
C    -0.292787  1.204834  4.202518
O    0.915735  0.807353  4.145331
H    -1.692810  2.850764  4.379974
H    -0.183959  3.205570  3.489736
H    -0.142012  3.044482  5.247515
N    -1.295541  0.322514  4.146636
C    -1.089494  -1.126453  4.205761
C    -0.368637  -1.646006  2.952323
O    0.837029  -2.045483  3.080476
H    -2.240356  0.635691  4.398586
H    -0.381598  -1.324478  5.025510
C    -2.420695  -1.855622  4.562520
C    -3.163759  -1.127329  5.652477
C    -2.763182  -1.217024  6.996707
C    -4.254395  -0.299987  5.339055
C    -3.422345  -0.510509  7.991352
C    -4.927550  0.416586  6.328374
C    -4.512219  0.316130  7.663988
O    -5.108951  0.967249  8.685759
H    -2.153756  -2.877225  4.865325
H    -3.061656  -1.947539  3.678902
H    -1.940406  -1.877578  7.278143
H    -4.624868  -0.249373  4.312058
H    -3.129587  -0.599634  9.036417
H    -5.790165  1.030446  6.065565
H    -5.882873  1.467098  8.375131
N    -0.945923  -1.695688  1.758356
C    -2.272274  -1.251746  1.322668
H    -0.360672  -2.121714  1.039418
H    -2.183488  -0.868608  0.300472
H    -2.643123  -0.445151  1.959063
H    -2.984516  -2.086495  1.321922
Ba    2.746550  -0.762680  3.894669
