34
Energy: -246966.723819 eV PBE+vdW (tier 2 basis)
C    -1.843935  -1.597751  0.762131
C    -0.849766  -0.950411  1.672692
O    0.377106  -1.275823  1.629731
H    -1.888664  -1.062345  -0.199442
H    -2.853239  -1.624684  1.186004
H    -1.506216  -2.618473  0.551188
N    -1.245505  0.003938  2.542693
C    -2.200404  1.051937  2.194779
C    -1.496628  2.015232  1.192653
O    -0.318155  1.754714  0.766283
H    -0.527405  0.280444  3.213462
H    -3.044048  0.588540  1.663730
C    -2.745485  1.739445  3.475477
C    -3.865436  2.723711  3.231934
C    -3.684351  4.098167  3.472518
C    -5.127309  2.292374  2.787875
C    -4.711125  5.011616  3.266624
C    -6.164474  3.194544  2.576267
C    -5.963324  4.565091  2.814934
O    -6.919363  5.500968  2.638744
H    -1.915451  2.243401  3.994248
H    -3.083529  0.924493  4.132918
H    -2.725425  4.459104  3.849429
H    -5.321460  1.229744  2.626858
H    -4.572759  6.071911  3.472064
H    -7.139477  2.834566  2.244863
H    -7.761360  5.093789  2.372767
N    -2.175581  3.077666  0.814383
C    -1.718788  4.120892  -0.098622
H    -3.072113  3.226969  1.297695
H    -1.818272  5.096052  0.392244
H    -2.337427  4.117511  -1.004629
H    -0.674375  3.949524  -0.367550
Ba    1.767742  0.478146  0.599050
