34
Energy: -246967.814459 eV PBE+vdW (tier 2 basis)
C    0.485493  2.872561  3.000704
C    0.105129  1.498447  3.461976
O    0.829259  0.507854  3.193718
H    0.615806  2.861867  1.910697
H    1.461090  3.131838  3.434444
H    -0.240266  3.647384  3.268540
N    -1.035896  1.379217  4.173218
C    -1.629999  0.175236  4.789391
C    -0.601490  -0.618485  5.619489
O    0.038939  -1.587281  5.129917
H    -1.554110  2.240180  4.322012
H    -2.350027  0.586807  5.508377
C    -2.501237  -0.700428  3.848005
C    -1.886561  -1.504130  2.723551
C    -1.475564  -0.908852  1.513676
C    -1.812198  -2.907585  2.806176
C    -0.977216  -1.665976  0.451991
C    -1.330303  -3.688668  1.748640
C    -0.923420  -3.072944  0.547138
O    -0.473146  -3.739948  -0.531295
H    -3.256606  -0.022690  3.422424
H    -3.057280  -1.385328  4.503804
H    -1.564518  0.169526  1.382096
H    -2.147773  -3.410276  3.714047
H    -0.692258  -1.193880  -0.487980
H    -1.323290  -4.776432  1.838942
H    -0.603744  -4.701133  -0.444805
N    -0.428456  -0.272447  6.894613
C    -1.076725  0.802867  7.650836
H    0.239094  -0.855726  7.397776
H    -0.614369  0.843720  8.640926
H    -2.148799  0.609765  7.787312
H    -0.926335  1.776418  7.169332
Ba    1.160774  -1.937478  2.925312
