34
Energy: -246967.187612 eV PBE+vdW (tier 2 basis)
C    0.998291  -0.796092  2.317011
C    -0.041584  0.002319  1.600273
O    -0.039462  0.074052  0.330215
H    0.951049  -1.834512  1.961177
H    0.875965  -0.784046  3.404680
H    1.995658  -0.414140  2.061801
N    -0.969568  0.629592  2.328293
C    -2.194531  1.265557  1.820014
C    -1.888627  2.613141  1.133755
O    -1.552725  2.629393  -0.092503
H    -1.008249  0.387480  3.323045
H    -2.600535  0.622783  1.022598
C    -3.231023  1.329130  2.973317
C    -3.368103  0.005956  3.683366
C    -2.704758  -0.216215  4.903220
C    -4.116874  -1.044034  3.134043
C    -2.770902  -1.445237  5.550134
C    -4.198880  -2.276666  3.773298
C    -3.520676  -2.488164  4.985809
O    -3.554777  -3.655169  5.665743
H    -4.186534  1.665672  2.547960
H    -2.926685  2.083330  3.717729
H    -2.165817  0.602071  5.389472
H    -4.671556  -0.895475  2.205393
H    -2.277548  -1.607624  6.507067
H    -4.806151  -3.073982  3.342113
H    -4.141678  -4.294723  5.228100
N    -2.005695  3.728479  1.833296
C    -1.767357  5.077129  1.319231
H    -2.295202  3.642301  2.804214
H    -1.947416  5.093643  0.241153
H    -0.735167  5.389736  1.524548
H    -2.454315  5.769592  1.815353
Ba    -0.412571  1.238724  -1.735919
