34
Energy: -246966.600208 eV PBE+vdW (tier 2 basis)
C    -0.758590  -0.277670  2.179856
C    -1.877404  0.044903  3.117587
O    -2.037774  -0.632647  4.180348
H    -1.141284  -0.757351  1.265593
H    -0.070278  -0.970497  2.671991
H    -0.217355  0.624957  1.874657
N    -2.745113  1.051890  2.859987
C    -3.359676  1.334291  1.554106
C    -4.129938  0.061629  1.104370
O    -4.266860  -0.931061  1.900123
H    -3.346788  1.257963  3.656308
H    -4.129126  2.091011  1.769606
C    -2.423857  1.963171  0.485615
C    -3.176218  2.600628  -0.662724
C    -4.049727  3.684431  -0.452745
C    -2.990896  2.148521  -1.979438
C    -4.722118  4.282358  -1.507317
C    -3.657276  2.742203  -3.051004
C    -4.530554  3.815181  -2.820486
O    -5.213076  4.450320  -3.795941
H    -1.730025  1.212838  0.087559
H    -1.818960  2.714435  1.015386
H    -4.189302  4.095359  0.549752
H    -2.291554  1.334459  -2.180990
H    -5.385678  5.130181  -1.344617
H    -3.481742  2.384278  -4.066384
H    -4.982006  4.095696  -4.671331
N    -4.658110  0.063929  -0.101067
C    -5.453277  -1.024634  -0.666715
H    -4.457584  0.888392  -0.686412
H    -5.716754  -0.756203  -1.692863
H    -6.373916  -1.168944  -0.088215
H    -4.881239  -1.960212  -0.676148
Ba    -3.952179  -2.173571  3.990799
