34
Energy: -246966.699061 eV PBE+vdW (tier 2 basis)
C    -0.741303  -0.878943  -0.584887
C    -0.955157  0.201208  0.423299
O    -0.168165  1.219675  0.438732
H    -0.983429  -0.466032  -1.576017
H    -1.366988  -1.760454  -0.420960
H    0.314013  -1.173542  -0.612328
N    -1.957944  0.165130  1.282106
C    -2.741403  -0.953693  1.798887
C    -3.784956  -0.243725  2.708224
O    -3.504578  0.877133  3.155553
H    -2.125671  0.982894  1.899536
H    -3.242758  -1.498385  0.988762
C    -1.848360  -1.951362  2.639536
C    -0.620029  -1.271731  3.198182
C    -0.707602  -0.325280  4.233798
C    0.625509  -1.472943  2.590579
C    0.375630  0.489951  4.565116
C    1.732476  -0.683526  2.920725
C    1.582134  0.323642  3.878882
O    2.636845  1.245446  3.983726
H    -1.543300  -2.783249  1.992789
H    -2.468760  -2.381387  3.437135
H    -1.650034  -0.173509  4.757953
H    0.741225  -2.253321  1.838092
H    0.275720  1.244297  5.347363
H    2.713772  -0.873812  2.481165
H    2.778564  1.530080  4.904887
N    -4.901727  -0.930839  2.978050
C    -5.963289  -0.441384  3.856671
H    -5.047409  -1.822124  2.513716
H    -6.115874  -1.136287  4.691099
H    -6.900059  -0.340852  3.295815
H    -5.667914  0.537061  4.243899
Ba    1.614806  2.265518  1.614985
