34
Energy: -246967.187468 eV PBE+vdW (tier 2 basis)
C    -2.350708  0.630046  -0.904718
C    -2.240495  -0.140248  0.372569
O    -1.649384  -1.263596  0.399843
H    -1.336837  0.907335  -1.228232
H    -2.952752  1.540170  -0.814856
H    -2.772469  -0.008345  -1.690876
N    -2.768244  0.395011  1.480924
C    -2.590269  -0.063037  2.869751
C    -3.589419  -1.195876  3.194724
O    -3.513084  -2.284339  2.533658
H    -3.225966  1.297890  1.375349
H    -1.597573  -0.537820  2.925539
C    -2.607676  1.192321  3.772450
C    -2.537112  0.934311  5.259535
C    -1.482595  0.204854  5.834609
C    -3.533441  1.438232  6.109556
C    -1.432065  -0.029541  7.201026
C    -3.494982  1.212942  7.485713
C    -2.442853  0.471434  8.040642
O    -2.324417  0.205585  9.359575
H    -3.517323  1.774999  3.552690
H    -1.759196  1.815347  3.447051
H    -0.663007  -0.163030  5.213563
H    -4.339706  2.052612  5.701079
H    -0.605368  -0.578462  7.649428
H    -4.271285  1.632354  8.127083
H    -3.034111  0.635913  9.866028
N    -4.478939  -1.023015  4.149270
C    -5.454705  -2.025380  4.570780
H    -4.360089  -0.195983  4.747411
H    -6.317857  -1.509609  5.002069
H    -5.020037  -2.688384  5.331025
H    -5.775355  -2.618732  3.710397
Ba    -2.120747  -3.555572  1.010834
