34
Energy: -246966.742915 eV PBE+vdW (tier 2 basis)
C    -0.187568  2.305469  0.311132
C    -0.175202  0.945548  0.928529
O    0.569024  0.023716  0.457907
H    -0.865553  3.001608  0.815837
H    -0.485251  2.217543  -0.742968
H    0.827810  2.723469  0.324097
N    -0.963691  0.698901  1.976783
C    -1.042193  -0.591333  2.664353
C    -2.439126  -0.857078  3.316007
O    -2.492913  -1.594447  4.291118
H    -1.490551  1.477654  2.368662
H    -0.946879  -1.358985  1.879474
C    0.076845  -0.782604  3.719129
C    1.187150  -1.723188  3.333833
C    2.543425  -1.338820  3.392729
C    0.916137  -3.066758  2.993961
C    3.582459  -2.241405  3.131896
C    1.940975  -3.984905  2.727494
C    3.292918  -3.588036  2.823377
O    4.340785  -4.406800  2.615785
H    -0.429677  -1.196202  4.607901
H    0.486933  0.195109  4.000459
H    2.799785  -0.318496  3.683941
H    -0.116504  -3.422239  2.985704
H    4.625371  -1.938151  3.230613
H    1.689833  -5.025546  2.512349
H    4.072999  -5.342737  2.577672
N    -3.507867  -0.275269  2.727067
C    -4.872469  -0.514663  3.201703
H    -3.396418  0.185567  1.830690
H    -4.851203  -0.636687  4.288565
H    -5.296194  -1.423656  2.754572
H    -5.497773  0.344954  2.941809
Ba    2.147585  -1.793531  0.380819
