34
Energy: -246967.301273 eV PBE+vdW (tier 2 basis)
C    -2.456442  -1.301337  0.851043
C    -1.353660  -0.881086  1.767378
O    -0.161674  -1.282663  1.574441
H    -3.437872  -0.926175  1.158502
H    -2.488698  -2.396744  0.790761
H    -2.233506  -0.931465  -0.159777
N    -1.643890  -0.064869  2.784459
C    -0.666728  0.528777  3.702836
C    -0.223853  -0.529155  4.733769
O    0.809996  -1.230326  4.478677
H    -2.618131  0.206732  2.940112
H    0.238684  0.745471  3.117439
C    -1.198086  1.881741  4.255249
C    -2.563007  1.854492  4.901308
C    -2.708671  1.826481  6.302411
C    -3.737206  1.892217  4.127866
C    -3.960895  1.780046  6.904243
C    -4.999332  1.845149  4.715400
C    -5.120875  1.772345  6.112239
O    -6.302064  1.725212  6.761211
H    -1.198874  2.576247  3.402557
H    -0.446086  2.263371  4.959483
H    -1.824909  1.902287  6.940833
H    -3.677257  2.038169  3.045531
H    -4.065423  1.785820  7.988211
H    -5.892156  1.901152  4.091013
H    -7.047272  1.782378  6.139180
N    -0.939997  -0.701862  5.826379
C    -0.645357  -1.672616  6.878541
H    -1.749835  -0.081814  5.954415
H    -1.120342  -2.637702  6.658014
H    -1.043678  -1.291774  7.823678
H    0.436121  -1.811260  6.966989
Ba    1.917973  -2.109240  2.494605
