34
Energy: -246966.994653 eV PBE+vdW (tier 2 basis)
C    0.433206  -1.166506  1.128083
C    -0.320614  0.120614  0.967108
O    0.214959  1.155238  0.540434
H    -0.195781  -2.021758  1.397730
H    1.193158  -1.025605  1.909391
H    0.970710  -1.383684  0.197439
N    -1.651359  0.103639  1.307469
C    -2.516243  1.268208  1.481962
C    -2.794301  2.113265  0.230596
O    -3.961752  2.645711  0.134282
H    -2.035481  -0.781500  1.620361
H    -3.498935  0.859412  1.753496
C    -2.031629  2.182624  2.656850
C    -2.974956  3.294427  3.050703
C    -4.052281  3.064280  3.929913
C    -2.771974  4.622395  2.619780
C    -4.875889  4.104637  4.385526
C    -3.583619  5.675182  3.057842
C    -4.626114  5.432656  3.978954
O    -5.338516  6.499610  4.389743
H    -1.051238  2.598927  2.392505
H    -1.875092  1.521055  3.519512
H    -4.232588  2.057195  4.310827
H    -1.934460  4.849382  1.958118
H    -5.664906  3.891401  5.109500
H    -3.375310  6.703594  2.760692
H    -5.913742  6.286979  5.146695
N    -1.840698  2.312180  -0.643309
C    -1.970356  3.083796  -1.873201
H    -0.902281  1.919317  -0.350134
H    -1.381122  2.595103  -2.656057
H    -1.579577  4.100946  -1.732847
H    -3.018237  3.131498  -2.182952
Ba    -5.544701  4.004986  1.249747
