24
Energy: -178490.8296520  eV PBE+vdW (tier 2 basis)
C    -3.068117  0.404991  -0.957533
C    -2.071566  1.139370  -0.145785
O    -2.106475  2.366144  0.020908
H    -3.440253  -0.486820  -0.433365
H    -2.565982  0.037731  -1.871154
H    -3.897648  1.059394  -1.239503
N    -0.926382  0.457179  0.436989
C    -1.123762  -0.525405  1.531146
C    -1.168333  0.161123  2.915046
O    -0.660020  1.316833  3.117896
H    -0.392723  -0.111544  -0.294614
H    -2.058780  -1.082669  1.374641
C    0.082794  -1.523635  1.502736
S    0.624895  -1.966635  -0.173753
H    -0.162450  -2.422295  2.078075
H    0.964055  -1.062567  1.969933
H    -0.408166  -2.793565  -0.477127
N    -1.681796  -0.486230  3.946060
C    -2.271182  -1.826480  4.024812
H    -1.609124  0.023004  4.830109
H    -2.628607  -2.165795  3.048379
H    -3.126604  -1.784621  4.707620
H    -1.538755  -2.542615  4.419040
Cd    -0.284181  2.521166  1.375565
