24
Energy: -178491.0356198  eV PBE+vdW (tier 2 basis)
C    -0.129631  0.227831  -0.149599
C    -0.065158  -0.051507  1.317265
O    0.953082  -0.686668  1.744321
H    -1.065400  0.702477  -0.463475
H    0.002142  -0.716536  -0.695767
H    0.718003  0.871112  -0.425843
N    -1.086013  0.377281  2.082587
C    -1.419634  0.153494  3.506561
C    -0.583408  1.025405  4.468538
O    0.648863  0.784811  4.724685
H    -1.804688  0.878061  1.565601
H    -2.460622  0.492278  3.590116
C    -1.440253  -1.330004  3.952818
S    -2.644227  -2.397814  3.141060
H    -1.712191  -1.358430  5.017618
H    -0.436716  -1.822131  3.884462
H    -2.158650  -2.282132  1.880065
N    -1.198348  2.026877  5.068486
C    -0.591986  2.944898  6.039994
H    -2.178701  2.185863  4.843175
H    0.419949  2.610775  6.276582
H    -1.205326  2.956146  6.948453
H    -0.561560  3.955242  5.613540
Cd    1.677466  -0.806326  3.746760
