24
Energy: -178491.7182581  eV PBE+vdW (tier 2 basis)
C    1.314353  -0.894841  0.518184
C    0.444433  -0.452764  1.644915
O    -0.045155  -1.303171  2.436462
H    1.704295  -0.067553  -0.084171
H    0.729940  -1.564444  -0.130129
H    2.147175  -1.491138  0.914575
N    0.183395  0.884109  1.766751
C    -0.647523  1.363831  2.854193
C    -1.493134  2.588236  2.570149
O    -2.252938  3.028429  3.540883
H    0.815127  1.513183  1.274761
H    -1.413400  0.579031  2.977577
C    0.105562  1.498695  4.222985
S    -0.828999  0.750054  5.620379
H    0.263913  2.549739  4.508101
H    1.103790  1.057301  4.125562
H    -2.195928  2.461972  4.350372
N    -1.537850  3.208597  1.425067
C    -2.374422  4.377895  1.099548
H    -0.978529  2.823520  0.665652
H    -1.724025  5.178846  0.729296
H    -2.909812  4.710678  1.990626
H    -3.086436  4.093679  0.315223
Cd    -0.781794  -1.402263  4.539169
