24
Energy: -178491.1221873  eV PBE+vdW (tier 2 basis)
C    -0.104898  0.297000  -0.060833
C    0.009201  0.219538  1.424745
O    1.085584  0.693015  1.946192
H    -0.087078  1.358083  -0.353506
H    -1.025918  -0.161033  -0.437202
H    0.771625  -0.174166  -0.524099
N    -1.002168  -0.317237  2.113964
C    -1.359352  -0.198739  3.533462
C    -0.784199  -1.354606  4.383780
O    0.474204  -1.403989  4.654168
H    -1.807980  -0.674139  1.568329
H    -0.888153  0.713787  3.943842
C    -2.898860  0.035816  3.625388
S    -3.938081  -0.826847  2.398308
H    -3.082928  1.095794  3.406384
H    -3.256557  -0.124794  4.650242
H    -3.911877  -2.075171  2.927307
N    -1.570920  -2.285884  4.873076
C    -1.130354  -3.408545  5.713750
H    -2.561056  -2.234720  4.646867
H    -1.978602  -3.736092  6.321261
H    -0.310669  -3.083858  6.360982
H    -0.790125  -4.239335  5.082134
Cd    1.775817  0.037412  3.818436
