24
Energy: -178491.0759984  eV PBE+vdW (tier 2 basis)
C    -2.110064  0.083427  -0.378836
C    -1.467118  -0.403629  0.876925
O    -0.476494  -1.200633  0.760874
H    -1.355150  0.626342  -0.967093
H    -2.964028  0.744415  -0.195500
H    -2.425141  -0.776428  -0.984751
N    -1.946377  0.032180  2.056427
C    -1.295444  -0.086203  3.375613
C    -1.744820  -1.377783  4.093778
O    -1.144444  -2.489787  3.870462
H    -2.755341  0.648804  2.001623
H    -0.214325  -0.202278  3.197855
C    -1.442365  1.220868  4.180698
S    -0.340126  1.287541  5.627448
H    -2.483752  1.434610  4.466814
H    -1.120247  2.052751  3.539658
H    -1.092740  0.532084  6.463292
N    -2.765640  -1.356185  4.923950
C    -3.289277  -2.538837  5.625638
H    -3.226254  -0.465317  5.094430
H    -3.713830  -3.247766  4.904656
H    -4.068081  -2.209263  6.317500
H    -2.482593  -3.029302  6.182092
Cd    0.205650  -2.600610  2.220444
