24
Energy: -178490.5733368  eV PBE+vdW (tier 2 basis)
C    0.181349  0.095600  0.098254
C    -0.072082  0.302821  1.544179
O    0.812143  0.879875  2.265611
H    0.382414  1.051296  -0.404948
H    -0.615014  -0.459070  -0.406713
H    1.114688  -0.487966  0.017572
N    -1.212283  -0.135167  2.146103
C    -2.577037  0.062744  1.667725
C    -3.149564  1.314179  2.404769
O    -2.415696  2.133642  3.081258
H    -1.123759  -0.300255  3.151061
H    -2.514495  0.327015  0.599962
C    -3.408806  -1.233883  1.824212
S    -4.956475  -1.167325  0.833794
H    -3.654475  -1.421241  2.876940
H    -2.798250  -2.067477  1.455773
H    -5.725041  -1.866573  1.703665
N    -4.434291  1.544870  2.300846
C    -5.142986  2.692762  2.879740
H    -4.979307  0.827444  1.777710
H    -6.180814  2.654587  2.539537
H    -4.681641  3.628706  2.545118
H    -5.114995  2.646041  3.975121
Cd    -0.323567  2.236002  3.531806
