24
Energy: -178490.2780746  eV PBE+vdW (tier 2 basis)
C    -0.197012  -1.883791  -0.166605
C    0.001343  -1.451898  1.241123
O    0.927794  -2.020464  1.919230
H    -0.453008  -1.046541  -0.823742
H    0.723007  -2.373709  -0.507091
H    -0.993181  -2.644348  -0.221196
N    -0.698159  -0.449772  1.843941
C    -2.140231  -0.193162  1.937850
C    -2.713446  -1.106169  3.072724
O    -2.049963  -2.079628  3.569972
H    -0.186626  -0.058366  2.637065
H    -2.228346  0.847446  2.285255
C    -2.949638  -0.317592  0.626739
S    -2.410983  0.788008  -0.714152
H    -4.007698  -0.119196  0.840092
H    -2.907647  -1.333375  0.216026
H    -2.804685  1.952853  -0.140124
N    -3.936162  -0.852764  3.501519
C    -4.653450  -1.599101  4.542403
H    -4.447168  -0.088357  3.063829
H    -5.191733  -0.886140  5.175788
H    -3.940033  -2.168924  5.141363
H    -5.373482  -2.285813  4.078765
Cd    0.059108  -2.565224  3.830620
