24
Energy: -178490.7976237  eV PBE+vdW (tier 2 basis)
C    0.020913  1.444797  0.600813
C    -0.204514  0.742954  1.897628
O    0.698079  0.811570  2.809297
H    0.942894  1.077370  0.130148
H    0.185132  2.511269  0.817371
H    -0.813027  1.347384  -0.101780
N    -1.361265  0.094731  2.070222
C    -2.019405  -0.470304  3.249715
C    -1.133380  -1.228451  4.235746
O    -0.139738  -1.939389  3.846854
H    -2.030587  0.158497  1.290239
H    -2.507542  0.359306  3.789752
C    -3.131554  -1.456915  2.760507
S    -4.290429  -0.631148  1.611974
H    -3.694678  -1.804564  3.635645
H    -2.678189  -2.327633  2.272748
H    -4.236230  -1.567814  0.634700
N    -1.529675  -1.227396  5.498285
C    -0.932343  -2.017871  6.576668
H    -2.328890  -0.645416  5.747284
H    -1.736552  -2.445818  7.185853
H    -0.315354  -1.373828  7.218436
H    -0.329182  -2.822986  6.150541
Cd    1.713519  -0.922345  3.506360
