24
Energy: -178491.9895570  eV PBE+vdW (tier 2 basis)
C    -1.164777  -0.420505  -0.050642
C    -0.814095  -0.399164  1.402952
O    0.395024  -0.538943  1.734626
H    -2.240804  -0.369132  -0.247490
H    -0.748953  -1.327617  -0.508006
H    -0.670172  0.432333  -0.538427
N    -1.834444  -0.219883  2.279668
C    -1.835179  -0.017994  3.740973
C    -0.866227  1.095497  4.210434
O    0.330822  0.855193  4.568528
H    -2.749519  -0.138724  1.844030
H    -2.843010  0.372112  3.946225
C    -1.814034  -1.299472  4.613953
S    -0.438616  -2.546023  4.589518
H    -2.712931  -1.892328  4.401494
H    -1.861218  -1.005728  5.671905
H    -0.708304  -3.104061  3.378636
N    -1.324271  2.335604  4.285435
C    -2.672219  2.848781  4.007761
H    -0.629511  3.011974  4.609239
H    -3.406416  2.450766  4.720464
H    -2.976154  2.630302  2.977152
H    -2.645237  3.935532  4.126622
Cd    1.272242  -0.887519  3.691951
