24
Energy: -178491.2212226  eV PBE+vdW (tier 2 basis)
C    0.066710  0.437193  -0.143797
C    0.062729  0.314445  1.342494
O    1.141833  0.633197  1.955839
H    0.891210  -0.157407  -0.559042
H    0.270852  1.487008  -0.403772
H    -0.881866  0.134372  -0.599919
N    -1.058958  -0.101138  1.949157
C    -1.436408  0.006303  3.372719
C    -1.015379  -1.231839  4.206526
O    0.188455  -1.326661  4.669382
H    -1.836915  -0.336882  1.327634
H    -0.873216  0.852118  3.805877
C    -2.920006  0.403995  3.475768
S    -3.987759  -0.812227  2.591833
H    -3.045625  1.396667  3.026070
H    -3.204272  0.465244  4.533545
H    -5.166516  -0.232778  2.922163
N    -1.890743  -2.167801  4.475961
C    -1.638317  -3.377242  5.266520
H    -2.844095  -2.030250  4.093208
H    -0.570142  -3.605989  5.273077
H    -2.200876  -4.203367  4.819601
H    -1.986825  -3.222402  6.296200
Cd    1.678131  -0.066558  3.874957
