24
Energy: -178491.0605333  eV PBE+vdW (tier 2 basis)
C    -0.440641  1.347688  -0.265683
C    -0.321305  0.174761  0.648334
O    0.852111  -0.190861  0.990934
H    -0.035801  2.229828  0.253782
H    -1.473855  1.556481  -0.563582
H    0.183203  1.187844  -1.154336
N    -1.449824  -0.417713  1.078101
C    -1.607922  -1.349115  2.209751
C    -1.467993  -2.821902  1.756367
O    -0.305781  -3.341286  1.602118
H    -2.313317  -0.018309  0.713106
H    -0.766642  -1.172263  2.903098
C    -2.895874  -1.030537  2.981021
S    -2.779328  0.676422  3.637142
H    -3.000978  -1.737413  3.814447
H    -3.784668  -1.109217  2.333814
H    -3.954628  0.639926  4.310824
N    -2.542448  -3.547213  1.530315
C    -2.544820  -4.949893  1.093322
H    -3.449011  -3.120326  1.710295
H    -3.391339  -5.100742  0.416054
H    -2.654852  -5.609405  1.963966
H    -1.607695  -5.175956  0.579416
Cd    1.461469  -2.135101  1.619104
