24
Energy: -178490.3187242  eV PBE+vdW (tier 2 basis)
C    0.282866  0.170556  0.102521
C    0.092036  0.150262  1.574402
O    1.114675  0.152795  2.340905
H    0.833475  1.070410  -0.205533
H    -0.651856  0.069934  -0.456090
H    0.936365  -0.680599  -0.151349
N    -1.144908  0.091908  2.136355
C    -2.269795  0.986844  1.827348
C    -1.902214  2.385306  2.382361
O    -1.177195  2.485949  3.445201
H    -1.141801  -0.232601  3.105857
H    -2.410771  1.025949  0.740651
C    -3.529967  0.391999  2.512089
S    -5.097478  1.276622  2.277725
H    -3.378113  0.375702  3.601598
H    -3.639590  -0.646952  2.174316
H    -5.371558  0.792376  1.040488
N    -2.345386  3.497029  1.829245
C    -3.198463  3.720049  0.658246
H    -2.048070  4.344247  2.321381
H    -2.708130  4.459089  0.012813
H    -4.171072  4.110913  0.979117
H    -3.354956  2.795039  0.099758
Cd    0.720895  1.565863  3.957910
