24
Energy: -178490.0376097  eV PBE+vdW (tier 2 basis)
C    -0.737227  0.607700  -0.080667
C    -0.414276  0.556084  1.380580
O    0.290954  1.534199  1.820924
H    -0.919893  1.646422  -0.376532
H    -1.602550  -0.008259  -0.347269
H    0.139328  0.257473  -0.646537
N    -0.811827  -0.440707  2.158675
C    -1.641007  -1.605183  1.842306
C    -2.184626  -2.058545  3.223788
O    -1.570147  -1.739408  4.240805
H    -0.576983  -0.450609  3.164686
H    -2.463244  -1.317820  1.172643
C    -0.785179  -2.731814  1.197590
S    -1.737305  -4.259167  0.891346
H    0.082049  -2.963177  1.826043
H    -0.423063  -2.403447  0.214462
H    -1.279231  -4.965419  1.955064
N    -3.290088  -2.845421  3.219712
C    -3.848441  -3.444881  4.422959
H    -3.818525  -2.937997  2.354316
H    -4.725155  -2.866903  4.756617
H    -3.094210  -3.444822  5.213730
H    -4.179865  -4.467303  4.203460
Cd    1.125989  2.275191  3.667246
