24
Energy: -178490.9613014  eV PBE+vdW (tier 2 basis)
C    1.748998  0.493693  0.557231
C    0.651235  0.158500  1.515211
O    0.714152  -0.982801  2.085019
H    1.776707  -0.280262  -0.223528
H    2.712524  0.446714  1.082779
H    1.632442  1.475249  0.085963
N    -0.322194  1.066078  1.700313
C    -1.659078  0.990766  2.354625
C    -1.583230  1.122827  3.891131
O    -1.216607  0.150140  4.649220
H    -0.183706  1.920095  1.164924
H    -2.174237  1.884747  1.987154
C    -2.525618  -0.205964  1.916209
S    -4.199510  -0.078979  2.630274
H    -2.121081  -1.180920  2.248344
H    -2.567194  -0.253600  0.822305
H    -4.790980  0.452626  1.533404
N    -1.919691  2.257433  4.469506
C    -2.480294  3.473424  3.861658
H    -1.847294  2.245929  5.489350
H    -2.628491  4.203562  4.661953
H    -3.453350  3.262921  3.400193
H    -1.788294  3.907940  3.130875
Cd    -0.196208  -1.553119  3.908884
