24
Energy: -178490.9254828  eV PBE+vdW (tier 2 basis)
C    0.017015  0.018327  -0.011991
C    0.007859  -0.193212  1.467662
O    1.030221  -0.752807  1.981078
H    -0.925786  0.415544  -0.402954
H    0.244117  -0.936913  -0.505089
H    0.836707  0.705672  -0.266243
N    -1.078548  0.212509  2.151752
C    -1.487461  0.031791  3.561170
C    -0.757519  0.984021  4.527882
O    0.471057  0.818090  4.862032
H    -1.792270  0.642503  1.568663
H    -2.545669  0.316322  3.567165
C    -1.456945  -1.428748  4.078350
S    -2.569042  -2.587328  3.258923
H    -1.782093  -1.422796  5.128594
H    -0.429935  -1.871783  4.082536
H    -2.015054  -2.515943  2.023087
N    -1.417863  1.985745  5.078343
C    -2.817337  2.399096  4.886505
H    -0.863534  2.538082  5.736711
H    -3.041838  2.562585  3.826263
H    -2.953655  3.350189  5.408793
H    -3.509803  1.667195  5.320509
Cd    1.651067  -0.741103  4.021132
