24
Energy: -178490.9045146  eV PBE+vdW (tier 2 basis)
C    -0.178700  -0.535432  0.236426
C    -0.186302  0.061404  1.604512
O    0.940447  0.336002  2.133747
H    0.437023  -1.444786  0.240585
H    0.305805  0.173177  -0.451403
H    -1.182467  -0.768155  -0.135267
N    -1.372807  0.290169  2.200380
C    -1.583199  1.080658  3.421850
C    -1.395415  0.231609  4.706291
O    -0.284557  0.322006  5.350365
H    -2.196607  0.038977  1.657573
H    -0.767383  1.819580  3.468124
C    -2.864821  1.935655  3.356033
S    -2.987040  3.058736  4.785216
H    -3.780532  1.343740  3.250922
H    -2.792816  2.586840  2.474509
H    -3.543251  2.178036  5.651870
N    -2.307823  -0.597334  5.176915
C    -3.650515  -0.921573  4.682992
H    -2.020168  -1.073202  6.035399
H    -4.397951  -0.213869  5.064717
H    -3.905456  -1.920274  5.051259
H    -3.676888  -0.950012  3.590137
Cd    1.435423  0.776046  4.172850
