24
Energy: -178490.4378853  eV PBE+vdW (tier 2 basis)
C    -2.650872  0.844571  -0.871406
C    -1.457471  1.151464  -0.043426
O    -1.110444  2.368554  0.138512
H    -3.559700  1.261679  -0.414548
H    -2.772004  -0.223382  -1.076073
H    -2.527307  1.374116  -1.829930
N    -0.693980  0.170446  0.502328
C    -1.205305  -0.960306  1.277012
C    -1.563621  -0.434386  2.692801
O    -1.083516  0.676421  3.121092
H    0.233767  0.483944  0.796333
H    -2.113127  -1.337064  0.784469
C    -0.148064  -2.073606  1.354862
S    0.316568  -2.543680  -0.347189
H    -0.547495  -2.945524  1.886908
H    0.739621  -1.723421  1.903928
H    1.253294  -3.455501  0.016419
N    -2.334486  -1.143849  3.496170
C    -2.951461  -2.458152  3.288803
H    -2.483543  -0.718756  4.414603
H    -3.964433  -2.432261  3.705219
H    -2.376284  -3.234624  3.809555
H    -3.019218  -2.701070  2.224573
Cd    -0.720006  2.657530  2.265606
