24
Energy: -178490.4944320  eV PBE+vdW (tier 2 basis)
C    0.846983  -0.849974  1.725035
C    0.300138  0.526932  1.815224
O    1.099965  1.518361  1.923185
H    1.471116  -0.963363  0.827230
H    0.075469  -1.624877  1.765823
H    1.526766  -0.986591  2.581932
N    -1.036942  0.765892  1.825465
C    -1.997279  0.220313  0.868834
C    -1.903645  1.069045  -0.435204
O    -1.308820  2.201036  -0.457596
H    -1.291024  1.687984  2.187243
H    -1.707034  -0.815849  0.640461
C    -3.420514  0.248307  1.450863
S    -3.415484  -0.652413  3.039412
H    -4.126643  -0.227900  0.758008
H    -3.754600  1.285492  1.608461
H    -4.732638  -0.462502  3.304259
N    -2.495655  0.597482  -1.516573
C    -2.546978  1.261409  -2.824435
H    -2.995456  -0.286797  -1.438107
H    -1.753575  2.009362  -2.886119
H    -3.520734  1.751085  -2.955339
H    -2.414993  0.506188  -3.606216
Cd    0.453674  3.060034  0.522229
