24
Energy: -178491.0598720  eV PBE+vdW (tier 2 basis)
C    -0.066326  -0.078166  -0.078723
C    0.059476  -0.110256  1.410413
O    1.199855  -0.418076  1.890824
H    -1.073844  0.172462  -0.426843
H    0.216908  -1.065049  -0.472491
H    0.656124  0.643113  -0.484544
N    -1.035329  0.168346  2.139727
C    -1.335185  0.039946  3.591164
C    -0.804218  1.236527  4.407779
O    0.444025  1.417485  4.625521
H    -1.851127  0.404222  1.579109
H    -2.431310  0.072768  3.633348
C    -0.941802  -1.322182  4.210199
S    -1.897838  -1.779943  5.672393
H    0.146057  -1.393692  4.459645
H    -1.130004  -2.117555  3.477027
H    -1.486471  -0.764806  6.473681
N    -1.690890  2.072789  4.911712
C    -1.380622  3.254979  5.724630
H    -2.673675  1.899195  4.707989
H    -0.373155  3.162446  6.136695
H    -2.114475  3.324729  6.534320
H    -1.443058  4.157670  5.103172
Cd    1.913884  0.076047  3.829254
