24
Energy: -178490.8668136  eV PBE+vdW (tier 2 basis)
C    -0.675890  1.118365  0.447093
C    -0.359856  0.738059  1.854969
O    0.751832  1.128089  2.337614
H    -1.617466  0.688714  0.088170
H    0.149145  0.810683  -0.208416
H    -0.737716  2.215393  0.389391
N    -1.266211  0.015908  2.541092
C    -1.267687  -0.236441  3.986493
C    -0.351358  -1.423838  4.384596
O    0.819570  -1.161688  4.846077
H    -2.125714  -0.200990  2.039709
H    -0.790126  0.634715  4.469612
C    -2.696072  -0.284724  4.546930
S    -3.412762  1.396399  4.410375
H    -2.653735  -0.584347  5.603036
H    -3.327669  -1.002219  4.009370
H    -4.578968  1.098237  5.033133
N    -0.703032  -2.691983  4.297150
C    -1.953145  -3.316035  3.848227
H    0.022696  -3.335211  4.622924
H    -1.715099  -4.335201  3.528137
H    -2.375502  -2.782439  2.991759
H    -2.682437  -3.369640  4.666139
Cd    1.816202  0.595195  4.122420
