24
Energy: -178491.2217079  eV PBE+vdW (tier 2 basis)
C    0.883261  1.527343  0.838225
C    0.577525  0.148667  1.318510
O    1.519370  -0.715644  1.254488
H    1.690991  1.940223  1.461392
H    0.019080  2.198818  0.885469
H    1.267720  1.481469  -0.189064
N    -0.647579  -0.105968  1.806868
C    -1.089203  -1.284867  2.564927
C    -1.608018  -2.406681  1.632460
O    -0.798704  -3.316082  1.197256
H    -1.320728  0.656231  1.738248
H    -0.195797  -1.705076  3.060865
C    -2.015659  -0.879666  3.740413
S    -3.663993  -0.195984  3.351092
H    -1.471202  -0.185880  4.392749
H    -2.222504  -1.779931  4.334691
H    -3.286838  1.070090  3.045225
N    -2.871047  -2.434317  1.289576
C    -3.498399  -3.427637  0.411343
H    -3.464942  -1.695429  1.711157
H    -4.359558  -2.959150  -0.074293
H    -3.841472  -4.286006  1.004021
H    -2.780938  -3.771584  -0.338847
Cd    1.257630  -2.820939  1.188229
