24
Energy: -178490.9502067  eV PBE+vdW (tier 2 basis)
C    -0.165840  0.852981  0.279773
C    -0.242461  0.248245  1.644837
O    0.749466  0.444650  2.421451
H    -1.038657  0.634631  -0.344439
H    0.738318  0.473673  -0.218033
H    -0.041506  1.940302  0.375401
N    -1.337126  -0.469600  1.953067
C    -1.662113  -1.368950  3.093540
C    -2.123048  -0.584789  4.338798
O    -1.295965  0.043015  5.093031
H    -2.023168  -0.507200  1.202688
H    -2.522909  -1.941241  2.731586
C    -0.579179  -2.418686  3.421463
S    -1.211955  -3.850931  4.328431
H    0.297285  -2.002210  3.971541
H    -0.176406  -2.819582  2.481868
H    -1.517003  -3.203100  5.481292
N    -3.400219  -0.570038  4.667671
C    -4.536522  -1.238645  4.011981
H    -3.612005  -0.019694  5.503116
H    -5.413022  -1.097627  4.650436
H    -4.357158  -2.315584  3.912707
H    -4.748853  -0.787787  3.034897
Cd    0.751046  0.304168  4.538900
