24
Energy: -178491.5311285  eV PBE+vdW (tier 2 basis)
C    -0.289702  0.353376  -0.126500
C    -0.298611  0.088970  1.341096
O    0.791912  0.049629  1.977760
H    -1.289938  0.379437  -0.571683
H    0.303233  -0.430770  -0.619270
H    0.224354  1.304665  -0.319541
N    -1.499100  -0.122378  1.945641
C    -1.561235  -0.412514  3.364328
C    -2.665443  -1.293047  3.912313
O    -2.505857  -1.662881  5.161561
H    -2.333228  0.069280  1.400664
H    -0.671972  -1.039192  3.546987
C    -1.418256  0.858818  4.283622
S    -0.214500  0.601966  5.650534
H    -2.366570  1.120127  4.776639
H    -1.148635  1.718242  3.659716
H    -1.687807  -1.271454  5.574629
N    -3.750053  -1.735907  3.334906
C    -4.270994  -1.516689  1.975773
H    -4.322618  -2.327433  3.945724
H    -5.227816  -2.041099  1.905206
H    -3.593978  -1.938900  1.224732
H    -4.464120  -0.451288  1.798759
Cd    1.552489  0.245082  4.048927
