24
Energy: -178490.2624162  eV PBE+vdW (tier 2 basis)
C    -0.205923  0.882293  0.178056
C    0.025546  -0.002975  1.340969
O    1.233767  -0.198992  1.707822
H    -1.268364  0.968019  -0.093609
H    0.428872  0.600201  -0.670697
H    0.125485  1.889126  0.492613
N    -0.978003  -0.523492  2.115350
C    -2.134805  -1.365463  1.777264
C    -1.734461  -2.845956  2.047886
O    -0.514909  -3.242498  2.052799
H    -0.695859  -0.627724  3.091804
H    -2.934827  -1.102468  2.485728
C    -2.678251  -1.216393  0.345815
S    -3.621341  0.347800  0.188835
H    -3.360412  -2.047948  0.135764
H    -1.867040  -1.269835  -0.393027
H    -4.140912  0.067678  -1.032182
N    -2.677257  -3.744594  2.266684
C    -4.136670  -3.597244  2.274190
H    -2.322675  -4.693121  2.410420
H    -4.537965  -4.227243  3.075469
H    -4.560005  -3.934846  1.318743
H    -4.434806  -2.561964  2.463361
Cd    1.377805  -2.249772  2.407959
