24
Energy: -178491.1139896  eV PBE+vdW (tier 2 basis)
C    -0.335629  -1.134816  0.282533
C    -0.274852  -0.783057  1.731086
O    -0.043828  -1.764880  2.541796
H    0.575303  -1.674192  -0.007287
H    -0.478573  -0.256902  -0.355739
H    -1.176950  -1.828829  0.131722
N    -0.461386  0.483341  2.087743
C    -0.859983  1.116372  3.345166
C    -1.771261  2.325142  2.808150
O    -1.637752  2.630376  1.627291
H    -0.691347  1.174803  1.333299
H    -1.483546  0.442296  3.954770
C    0.295423  1.743033  4.156078
S    1.199277  0.742803  5.456746
H    -0.051156  2.613873  4.730052
H    1.102502  2.081237  3.492498
H    0.205898  0.679368  6.387524
N    -2.562527  2.925505  3.700942
C    -3.433628  4.056631  3.347286
H    -2.693230  2.505533  4.616188
H    -3.545364  4.703119  4.223072
H    -4.419878  3.698143  3.026677
H    -2.971859  4.617600  2.530129
Cd    0.715359  -1.479931  4.444461
