24
Energy: -178491.1213556  eV PBE+vdW (tier 2 basis)
C    -0.844331  1.417161  0.921647
C    -0.317963  0.792596  2.170213
O    0.957144  0.821214  2.335985
H    -0.348905  0.972152  0.048975
H    -0.575802  2.484640  0.929428
H    -1.931718  1.323459  0.829655
N    -1.189349  0.259922  3.032285
C    -1.039205  -0.075212  4.453855
C    -0.624429  -1.549596  4.668416
O    0.594452  -1.917835  4.471493
H    -2.191691  0.289079  2.770682
H    -0.205209  0.517178  4.872767
C    -2.321015  0.405563  5.204123
S    -3.901640  0.281413  4.300748
H    -2.214170  1.485065  5.373033
H    -2.383045  -0.050304  6.200153
H    -4.141847  -1.043968  4.455803
N    -1.501641  -2.437556  5.077547
C    -1.229412  -3.859020  5.330595
H    -2.445337  -2.108981  5.268730
H    -2.094356  -4.442544  4.998893
H    -1.074762  -4.019607  6.405503
H    -0.336948  -4.166053  4.781005
Cd    1.943178  -0.559764  3.574464
