24
Energy: -178490.3919970  eV PBE+vdW (tier 2 basis)
C    -0.128013  -0.040329  -0.129877
C    -0.097054  0.024516  1.352738
O    1.008141  -0.143881  1.969155
H    0.460869  0.780984  -0.563917
H    -1.143613  -0.051588  -0.536668
H    0.387957  -0.966469  -0.429946
N    -1.228501  0.222579  2.081179
C    -2.204397  1.285442  1.859624
C    -1.644380  2.573515  2.528506
O    -0.697110  2.519102  3.395302
H    -1.135947  -0.042682  3.064043
H    -2.296435  1.456121  0.778631
C    -3.584817  0.889190  2.437245
S    -4.413208  -0.434095  1.504488
H    -4.273126  1.740860  2.386618
H    -3.499293  0.613873  3.498217
H    -3.676446  -1.467357  1.982014
N    -2.167106  3.752560  2.245887
C    -3.280492  4.097570  1.356075
H    -1.745878  4.530410  2.759649
H    -3.027212  5.029230  0.838280
H    -4.198881  4.258259  1.936113
H    -3.446901  3.318733  0.606439
Cd    1.126457  1.334132  3.577701
