24
Energy: -178490.8479869  eV PBE+vdW (tier 2 basis)
C    0.522004  1.376182  0.600328
C    0.343410  0.628076  1.878693
O    1.292767  -0.136520  2.287990
H    1.427226  1.995072  0.693146
H    -0.326933  2.019300  0.346516
H    0.708862  0.672875  -0.222526
N    -0.788900  0.815894  2.562657
C    -1.225774  0.462083  3.914075
C    -0.771326  -0.884210  4.464127
O    -0.730820  -1.937285  3.730863
H    -1.459202  1.480372  2.146150
H    -0.872554  1.254993  4.594311
C    -2.798142  0.475037  3.935554
S    -3.545354  1.940817  3.170038
H    -3.142114  0.370824  4.971386
H    -3.181386  -0.378743  3.361141
H    -3.204059  2.831451  4.135994
N    -0.573214  -0.949506  5.771075
C    -0.313789  -2.174273  6.530665
H    -0.624122  -0.082693  6.304912
H    0.750604  -2.234199  6.796753
H    -0.608573  -3.043182  5.937627
H    -0.901247  -2.145402  7.455314
Cd    1.018636  -2.225965  2.541212
