24
Energy: -178491.0100263  eV PBE+vdW (tier 2 basis)
C    0.822901  0.970741  0.334861
C    0.307930  -0.215262  1.079548
O    0.871150  -1.345562  0.796656
H    0.346166  1.903344  0.653558
H    0.628817  0.815938  -0.737641
H    1.912031  1.038696  0.453320
N    -0.671137  -0.038305  1.959506
C    -1.644936  -0.949582  2.558921
C    -2.927320  0.001459  2.682677
O    -2.725787  1.206988  2.567370
H    -1.082242  0.923237  2.052337
H    -1.882984  -1.782751  1.878621
C    -1.287848  -1.439694  3.981842
S    -0.420227  -3.077879  4.217007
H    -2.184034  -1.560444  4.605113
H    -0.628381  -0.723174  4.489165
H    -1.425660  -3.895148  3.794084
N    -4.119143  -0.559845  2.921507
C    -4.485703  -1.969755  3.009981
H    -4.872213  0.121282  3.021711
H    -3.831968  -2.592117  2.386448
H    -5.502915  -2.092552  2.623234
H    -4.473644  -2.334186  4.047702
Cd    0.771362  -3.001972  2.030148
