24
Energy: -178490.2138116  eV PBE+vdW (tier 2 basis)
C    -0.017808  -0.001800  -0.083545
C    0.051776  -0.029981  1.402394
O    1.191803  0.108691  1.959293
H    -0.934262  0.459149  -0.463259
H    0.055204  -1.030789  -0.475224
H    0.860164  0.535711  -0.462031
N    -1.041285  -0.184335  2.200293
C    -2.123003  -1.175412  2.090131
C    -1.506628  -2.592448  2.319555
O    -0.344053  -2.754048  2.828626
H    -0.884190  0.142005  3.154246
H    -2.756549  -0.989160  2.972076
C    -3.035730  -1.028892  0.855743
S    -3.956287  0.543554  0.809710
H    -3.842347  -1.772543  0.907732
H    -2.506776  -1.201130  -0.088780
H    -2.897110  1.360762  0.587678
N    -2.230202  -3.657933  2.039057
C    -1.805182  -5.041447  2.301820
H    -3.153651  -3.525303  1.636165
H    -2.624229  -5.707994  2.021129
H    -1.576787  -5.168808  3.366169
H    -0.917068  -5.283826  1.706698
Cd    1.355223  -1.516308  3.411104
