24
Energy: -178490.2893429  eV PBE+vdW (tier 2 basis)
C    -0.153869  -0.182700  -0.202849
C    -0.173061  0.168000  1.239007
O    0.568375  1.117124  1.665896
H    -0.422283  0.686045  -0.819436
H    -0.776417  -1.048515  -0.445532
H    0.891200  -0.422717  -0.462102
N    -0.930574  -0.521180  2.134331
C    -2.368289  -0.797854  2.010465
C    -3.106310  0.548623  2.203565
O    -2.614270  1.449786  2.985407
H    -0.622187  -0.414457  3.103223
H    -2.572021  -1.205200  1.013111
C    -2.728120  -1.852494  3.092506
S    -4.430031  -2.487656  3.090381
H    -2.489285  -1.468082  4.093593
H    -2.088631  -2.726632  2.908236
H    -4.954303  -1.566299  3.935606
N    -4.261606  0.800189  1.618660
C    -5.079435  -0.005127  0.704997
H    -4.642487  1.722454  1.848443
H    -5.275958  0.589518  -0.195913
H    -6.033857  -0.250584  1.185346
H    -4.577134  -0.935234  0.434052
Cd    -0.615311  2.300125  3.068603
