24
Energy: -178491.0768179  eV PBE+vdW (tier 2 basis)
C    -0.152539  0.075103  -0.181377
C    -0.037746  0.011797  1.307777
O    1.091832  -0.322771  1.790747
H    -1.153556  0.347775  -0.531895
H    0.119304  -0.907473  -0.593219
H    0.583205  0.794077  -0.566898
N    -1.136388  0.296203  2.031870
C    -1.454019  0.165870  3.475923
C    -0.895621  1.334497  4.320622
O    0.354696  1.485387  4.540237
H    -1.940078  0.559481  1.466444
H    -2.549145  0.236217  3.507452
C    -1.115660  -1.211406  4.087257
S    -2.013496  -1.417644  5.648686
H    -0.017101  -1.336742  4.283672
H    -1.381863  -2.001821  3.375675
H    -2.109491  -2.767585  5.580433
N    -1.767178  2.173824  4.845146
C    -1.435996  3.316667  5.703943
H    -2.753151  2.025514  4.637634
H    -2.159132  3.356434  6.525502
H    -1.497670  4.245868  5.122766
H    -0.424624  3.196298  6.098995
Cd    1.781418  0.086428  3.763611
