24
Energy: -178490.9172981  eV PBE+vdW (tier 2 basis)
C    1.196323  0.626725  1.275140
C    0.137096  -0.357997  1.663137
O    0.327863  -1.358011  2.338137
H    1.539723  1.145721  2.181320
H    0.859297  1.367688  0.541679
H    2.060489  0.079798  0.878399
N    -1.171583  -0.102164  1.187997
C    -2.223632  -0.953660  1.690274
C    -2.952231  -1.728030  0.581473
O    -4.005328  -2.440897  0.807380
H    -1.389309  0.829897  0.841188
H    -1.632457  -1.715541  2.257752
C    -3.169827  -0.199544  2.660478
S    -3.598113  -1.230389  4.165218
H    -4.096254  0.153448  2.193385
H    -2.635275  0.655925  3.092792
H    -4.701637  -0.542206  4.577415
N    -2.448078  -1.678259  -0.628580
C    -2.923976  -2.411619  -1.802670
H    -1.635839  -1.064785  -0.729160
H    -2.060660  -2.851511  -2.314083
H    -3.432583  -1.721223  -2.487715
H    -3.617595  -3.196066  -1.492274
Cd    -4.691436  -3.002357  2.731552
