21
Energy: -611971.2933557  eV PBE+vdW (tier 2 basis)
N    -1.257139  0.046861  0.541970
C    -0.411839  -0.201170  1.697056
C    1.060384  -0.113682  1.349299
O    1.439253  0.645602  0.382583
H    -2.114615  0.531592  0.805304
H    -0.788872  0.618889  -0.160765
H    -0.491153  0.594474  2.473050
C    -0.822933  -1.514331  2.419726
C    -0.834705  -2.699073  1.459026
S    -1.725517  -4.201706  1.996892
C    -3.460695  -3.724906  2.188549
H    -1.829542  -1.330713  2.819830
H    -0.160553  -1.701275  3.274820
H    0.171351  -3.081997  1.236118
H    -1.317384  -2.428129  0.506131
H    -3.846389  -3.557876  1.176221
H    -3.575562  -2.839258  2.818784
H    -3.963442  -4.592517  2.633948
O    1.948807  -0.725345  2.052356
H    -1.364374  -4.220420  3.310436
Pb    3.654240  0.328538  0.898077
