21
Energy: -611970.9867994  eV PBE+vdW (tier 2 basis)
N    0.022691  0.717358  0.555107
C    0.078869  -0.158732  1.765439
C    1.516798  -0.431807  2.117150
O    2.461715  0.276465  1.659676
H    -0.781439  1.351456  0.638818
H    -0.158601  0.145377  -0.280243
H    -0.353489  0.462733  2.601118
C    -0.865441  -1.370240  1.697264
C    -2.345815  -0.926821  1.685396
S    -2.740749  0.400335  2.862155
C    -2.839748  -0.474994  4.446338
H    -0.705585  -2.000921  2.587110
H    -0.644280  -2.006282  0.825592
H    -2.993441  -1.792503  1.875373
H    -2.638660  -0.534436  0.701121
H    -3.641414  -1.221766  4.401499
H    -3.100816  0.286250  5.190482
H    -1.891706  -0.943651  4.733261
O    1.866029  -1.350387  2.972566
H    1.122333  -1.907980  3.279097
Pb    2.176331  1.953873  0.216594
