21
Energy: -611969.7352113  eV PBE+vdW (tier 2 basis)
N    -0.296812  0.507327  0.353941
C    -0.010386  0.187297  1.715265
C    1.383856  -0.444951  1.966629
O    2.420618  -0.119951  1.494194
H    -0.110719  1.475970  0.105566
H    0.121185  -0.109201  -0.340642
H    -0.020157  1.115400  2.310846
C    -1.067731  -0.775564  2.318648
C    -2.572436  -0.572654  2.229488
S    -3.269993  -2.163733  2.848489
C    -4.477380  -1.724432  4.136360
H    -0.817885  -0.808481  3.404122
H    -0.853465  -1.750825  1.812751
H    -2.914846  -0.428471  1.197286
H    -2.936106  0.250157  2.856953
H    -5.309695  -1.219308  3.630921
H    -4.036726  -1.088035  4.909438
H    -4.835024  -2.671047  4.559029
O    1.326737  -1.586252  2.870569
H    2.262791  -1.870893  2.965880
Pb    -0.723075  -3.142652  3.761829
