21
Energy: -611970.7957698  eV PBE+vdW (tier 2 basis)
N    0.467579  -0.009319  0.150024
C    0.122081  -0.065706  1.603974
C    1.396009  -0.256106  2.415658
O    2.459620  -0.675871  1.898042
H    0.452095  0.963860  -0.175720
H    -0.260411  -0.485712  -0.393817
H    -0.340637  0.890587  1.899790
C    -0.870859  -1.221615  1.932107
C    -2.282364  -0.993552  1.357350
S    -3.488504  -2.182810  2.011365
C    -3.249084  -3.629514  0.960306
H    -0.950474  -1.305757  3.025018
H    -0.445799  -2.176841  1.584803
H    -2.312353  -1.034024  0.257323
H    -2.664615  -0.008466  1.662330
H    -3.448317  -3.384161  -0.090621
H    -3.990990  -4.361882  1.300867
H    -2.249759  -4.066666  1.079949
O    1.417913  -0.038121  3.701167
H    0.584679  0.318042  4.071631
Pb    2.788436  -0.926176  -0.324923
