21
Energy: -611969.8478676  eV PBE+vdW (tier 2 basis)
N    -2.438349  -0.207921  1.323255
C    -1.092616  -0.304787  1.775514
C    -0.080601  -0.894101  0.741564
O    1.117173  -0.880557  0.952132
H    -2.949887  -1.069907  1.147265
H    -2.660004  0.527954  0.658007
H    -0.716175  0.716173  1.953012
C    -1.043657  -1.106588  3.105901
C    0.313312  -1.339832  3.767211
S    1.176310  0.254376  4.206058
C    2.864302  0.062917  3.530753
H    -1.465251  -2.112558  2.939742
H    -1.734163  -0.604865  3.797591
H    1.033388  -1.849142  3.115275
H    0.189845  -1.937929  4.679130
H    2.731712  -0.049527  2.447323
H    3.376225  -0.806003  3.955040
H    3.403495  0.992690  3.747014
O    -0.673465  -1.385638  -0.340146
H    0.004150  -1.729809  -0.961591
Pb    1.538736  0.348072  6.896124
