21
Energy: -611972.3358850  eV PBE+vdW (tier 2 basis)
N    -0.252888  -0.469222  -0.005982
C    -0.612193  0.050001  1.375357
C    0.550520  0.883176  1.897218
O    0.284333  1.842861  2.678769
H    -0.360274  0.259491  -0.728161
H    -0.838662  -1.270422  -0.285612
H    -1.520958  0.655860  1.283363
C    -0.803585  -1.138620  2.346886
C    -0.889760  -0.771714  3.840043
S    0.634652  -0.516906  4.850341
C    1.520624  -2.096419  4.722729
H    -0.002817  -1.875764  2.183425
H    -1.752344  -1.635929  2.092927
H    -1.399139  -1.585991  4.373273
H    -1.479742  0.138024  4.013910
H    1.859644  -2.309031  3.704143
H    0.859169  -2.888564  5.093287
H    2.382970  -2.021217  5.396381
O    1.726467  0.444515  1.689060
H    0.740324  -0.763802  -0.005986
Pb    2.345657  1.509669  3.784632
