21
Energy: -611969.8307593  eV PBE+vdW (tier 2 basis)
N    -1.084346  -1.431134  0.221752
C    -0.486852  -0.677249  1.285350
C    0.908849  -0.153139  0.883525
O    1.871995  -0.203476  1.621652
H    -0.966890  -1.042603  -0.712487
H    -2.033575  -1.761463  0.385383
H    -1.058898  0.255400  1.506546
C    -0.438889  -1.442796  2.623459
C    0.402681  -2.730203  2.540062
S    1.103641  -3.126052  4.201992
C    2.523646  -1.994697  4.373346
H    -1.460329  -1.683723  2.945954
H    -0.029716  -0.750358  3.369463
H    1.248487  -2.638068  1.849821
H    -0.203311  -3.600874  2.255331
H    2.944539  -2.158701  5.372114
H    3.262410  -2.155704  3.583517
H    2.123165  -0.975864  4.305987
O    0.890719  0.370772  -0.342887
H    1.774090  0.734630  -0.562047
Pb    2.031152  -5.661604  4.199938
