21
Energy: -611971.3237377  eV PBE+vdW (tier 2 basis)
N    -0.203216  -0.023455  0.056881
C    0.104938  -0.075290  1.550181
C    1.627385  0.039471  1.695103
O    2.320477  0.326539  0.659646
H    -1.126326  0.392501  -0.129187
H    -0.197572  -0.967480  -0.357720
H    -0.326841  0.842096  1.981616
C    -0.541736  -1.321222  2.182343
C    -0.717740  -1.228921  3.703580
S    -1.513430  -2.765822  4.273649
C    -1.737374  -2.414986  6.026826
H    0.046065  -2.214764  1.918775
H    -1.538401  -1.447204  1.728486
H    -1.359564  -0.375225  3.970528
H    0.246033  -1.110800  4.216923
H    -2.213515  -3.306968  6.449759
H    -2.396278  -1.549430  6.170823
H    -0.771420  -2.250871  6.520690
O    2.161462  -0.117733  2.834657
H    0.530298  0.525410  -0.426908
Pb    4.322830  0.362053  1.997965
