21
Energy: -611970.4830038  eV PBE+vdW (tier 2 basis)
N    0.320474  -0.119805  -0.290331
C    -0.171985  -0.074264  1.081521
C    1.029138  -0.572805  1.898366
O    1.764872  0.430456  2.450713
H    0.336385  -1.042567  -0.718642
H    -0.166671  0.528821  -0.905618
H    -0.309087  0.987180  1.321250
C    -1.528279  -0.763748  1.407069
C    -1.615230  -2.262432  1.709182
S    -0.925299  -3.357385  0.401976
C    -1.268683  -5.024327  1.023228
H    -2.207106  -0.509943  0.580286
H    -1.955691  -0.283796  2.302183
H    -2.670596  -2.562276  1.770956
H    -1.112611  -2.546940  2.640772
H    -0.972955  -5.117703  2.072583
H    -0.707946  -5.717748  0.385355
H    -2.343707  -5.190950  0.890306
O    1.360378  -1.739150  2.002679
H    0.374703  -3.219103  0.807783
Pb    3.701136  0.813198  3.124562
