21
Energy: -611971.0072707  eV PBE+vdW (tier 2 basis)
N    0.539577  1.477160  0.935404
C    0.662329  0.623935  2.098677
C    2.106530  0.139162  1.989839
O    3.011873  0.773121  2.649333
H    0.057963  2.357749  1.088998
H    0.263054  1.038444  0.063279
H    0.672767  1.279730  2.979515
C    -0.441267  -0.429736  2.378460
C    -1.013883  -1.247786  1.218077
S    -0.082030  -2.786587  0.849101
C    -0.913482  -3.463989  -0.610234
H    -1.297647  0.144253  2.763517
H    -0.139038  -1.084994  3.210119
H    -1.122147  -0.679753  0.284592
H    -2.005421  -1.635346  1.490446
H    -0.305277  -4.309344  -0.953736
H    -1.024471  -2.705720  -1.391082
H    -1.887441  -3.832022  -0.266503
O    2.474594  -0.814053  1.196925
H    1.015917  -2.215975  0.276969
Pb    4.732312  -0.318229  1.686170
