21
Energy: -611971.1521203  eV PBE+vdW (tier 2 basis)
N    0.359395  -0.113888  0.070180
C    -0.165696  -0.041399  1.424596
C    0.964299  0.094403  2.425238
O    0.989333  -0.419541  3.578454
H    1.047614  0.612662  -0.128639
H    -0.394031  -0.002138  -0.609965
H    -0.771542  0.873775  1.637134
C    -1.065596  -1.256226  1.692608
C    -0.332656  -2.599478  1.502859
S    -0.623904  -3.659974  2.968383
C    0.446342  -5.110886  2.724356
H    -1.915841  -1.198441  1.000724
H    -1.535693  -1.167493  2.687836
H    0.745873  -2.472963  1.343580
H    -0.723976  -3.173817  0.654185
H    1.489327  -4.824857  2.558292
H    0.046170  -5.648988  1.855688
H    0.341963  -5.744093  3.613284
O    1.937684  0.862933  2.026252
H    2.625806  0.992039  2.716019
Pb    0.288339  -2.046660  5.008385
