21
Energy: -611970.3523093  eV PBE+vdW (tier 2 basis)
N    0.691974  1.067710  1.046961
C    0.088338  0.042726  1.859260
C    1.000298  -1.184349  2.159432
O    0.748285  -2.357443  1.778874
H    1.292548  0.727391  0.296748
H    1.201419  1.763941  1.588282
H    -0.187523  0.477861  2.832743
C    -1.141878  -0.583297  1.198436
C    -2.408295  0.080969  0.690621
S    -3.218458  -1.288532  -0.252178
C    -4.905383  -1.419800  0.409907
H    -1.495994  -1.350959  1.919651
H    -0.701540  -1.057760  0.282855
H    -2.208604  0.907615  -0.002336
H    -3.078300  0.418576  1.490132
H    -5.442244  -0.508079  0.121783
H    -4.907080  -1.556122  1.495574
H    -5.365053  -2.279458  -0.092257
O    2.098992  -0.883104  2.794767
H    2.674378  -1.668775  2.931178
Pb    -1.182347  -3.323221  0.586190
