21
Energy: -611971.4192390  eV PBE+vdW (tier 2 basis)
N    0.219434  -0.695116  -0.279302
C    -0.054490  -0.192066  1.066814
C    1.033059  0.740812  1.561438
O    1.115561  1.034321  2.812115
H    0.854662  -0.075639  -0.786237
H    -0.640529  -0.746256  -0.827058
H    -0.939391  0.479906  1.090444
C    -0.372381  -1.353968  2.031264
C    0.596251  -2.533184  1.966842
S    0.471474  -3.482473  0.388338
C    1.119273  -5.114404  0.851858
H    -1.391756  -1.705764  1.819230
H    -0.387915  -0.989896  3.068228
H    0.325708  -3.276350  2.729011
H    1.649598  -2.264509  2.112283
H    2.063375  -5.028894  1.398754
H    1.253939  -5.672344  -0.082965
H    0.347276  -5.602553  1.457797
O    1.825680  1.314527  0.727698
H    1.547094  -2.996891  -0.274373
Pb    2.669306  2.677936  2.398650
