21
Energy: -611970.9849326  eV PBE+vdW (tier 2 basis)
N    -0.174599  0.852499  0.880509
C    0.229715  -0.129219  1.936199
C    1.730930  -0.381999  1.847252
O    2.498787  0.430912  1.275748
H    -1.055743  1.288996  1.254936
H    -0.473033  0.344283  0.036945
H    0.106992  0.407430  2.896825
C    -0.660214  -1.392646  1.998135
C    -2.169083  -1.085330  1.928469
S    -2.577556  0.441422  2.846925
C    -4.357404  0.579838  2.548290
H    -0.452602  -1.902310  2.952884
H    -0.401816  -2.090331  1.186990
H    -2.729363  -1.927634  2.354228
H    -2.501081  -0.972077  0.886022
H    -4.576330  0.642652  1.476425
H    -4.675840  1.501814  3.047528
H    -4.872406  -0.274300  3.002799
O    2.284302  -1.411515  2.412832
H    1.648500  -2.029992  2.829951
Pb    1.713916  2.296317  0.232086
