21
Energy: -611970.6861496  eV PBE+vdW (tier 2 basis)
N    0.776153  0.708404  0.206641
C    0.313462  0.156967  1.378709
C    1.471839  -0.327133  2.271347
O    2.505613  -0.796566  1.933829
H    0.178379  0.761832  -0.611628
H    1.634181  1.249722  0.171704
H    -0.243555  0.976505  2.078594
C    -0.739671  -0.952174  1.121904
C    -1.346010  -1.669387  2.324420
S    -2.473729  -0.604116  3.316059
C    -2.983397  -1.706515  4.672042
H    -0.238752  -1.717738  0.509083
H    -1.533975  -0.520541  0.494515
H    -0.596621  -2.114299  2.991317
H    -1.993440  -2.479990  1.961261
H    -3.570264  -2.515271  4.218996
H    -3.632346  -1.118788  5.331602
H    -2.123254  -2.106071  5.217916
O    1.132191  -0.171619  3.647137
H    1.884412  -0.509130  4.183599
Pb    -0.756765  1.337787  4.217573
