21
Energy: -611971.7801580  eV PBE+vdW (tier 2 basis)
N    -0.493748  -0.471858  -0.051518
C    -0.260836  0.021550  1.355519
C    1.212576  0.364682  1.534807
O    1.987558  0.435460  0.516499
H    -1.439026  -0.239424  -0.378542
H    -0.386769  -1.579521  -0.012675
H    -0.786602  0.984194  1.471801
C    -0.825659  -0.976186  2.386718
C    -0.150600  -2.352050  2.427624
S    -0.178074  -3.321192  0.866725
C    -1.869144  -3.987159  0.853302
H    -1.905281  -1.074206  2.198782
H    -0.740209  -0.505131  3.376484
H    -0.611039  -2.964544  3.213720
H    0.914662  -2.268420  2.686635
H    -1.991134  -4.668170  1.702899
H    -1.960342  -4.557733  -0.078093
H    -2.633237  -3.202567  0.875949
O    1.649924  0.639801  2.703980
H    0.192054  -0.081754  -0.713298
Pb    3.746595  1.193576  1.890396
