21
Energy: -611972.4259260  eV PBE+vdW (tier 2 basis)
N    -0.328682  -0.308544  0.169830
C    -0.074377  -0.122669  1.628943
C    0.800586  -1.272776  2.111842
O    0.791885  -2.397856  1.574620
H    -1.122004  0.275466  -0.112953
H    0.471018  0.040724  -0.371724
H    0.468623  0.817961  1.799665
C    -1.387899  -0.068530  2.453127
C    -2.081431  -1.380882  2.827831
S    -2.726209  -2.503239  1.525727
C    -4.005366  -1.525393  0.680933
H    -2.079879  0.614870  1.938479
H    -1.149079  0.431566  3.403791
H    -2.957524  -1.160713  3.454564
H    -1.439060  -2.037998  3.431645
H    -4.782357  -1.296643  1.420700
H    -4.436231  -2.174347  -0.090974
H    -3.622332  -0.603674  0.231972
O    1.511941  -0.985265  3.166225
H    2.038925  -1.755558  3.479259
Pb    -0.621545  -2.748499  -0.296502
