21
Energy: -611971.7916050  eV PBE+vdW (tier 2 basis)
N    -0.552275  1.803869  1.306841
C    -0.434429  1.121596  2.644515
C    0.869651  1.502784  3.330064
O    1.053380  1.155648  4.547228
H    -0.924514  2.758303  1.378423
H    -1.234004  1.166839  0.675861
H    -1.259684  1.485950  3.274353
C    -0.555876  -0.415750  2.497688
C    -1.904611  -0.886901  1.937262
S    -2.045894  -0.495582  0.144702
C    -3.840950  -0.386386  -0.092711
H    -0.426374  -0.841768  3.502185
H    0.274388  -0.799695  1.883238
H    -2.744461  -0.421092  2.472300
H    -1.987351  -1.973551  2.063390
H    -4.288257  -1.366847  0.103684
H    -3.989195  -0.130808  -1.148083
H    -4.288819  0.383414  0.544430
O    1.777971  2.137009  2.687881
H    0.361900  1.862322  0.836935
Pb    3.158715  2.109416  4.602117
