21
Energy: -611971.3140801  eV PBE+vdW (tier 2 basis)
N    0.161404  -0.627568  0.119565
C    -0.159926  0.097136  1.421549
C    1.151046  0.636620  1.989880
O    1.148144  1.191564  3.133690
H    0.342903  -1.628427  0.287547
H    -0.613722  -0.559601  -0.554476
H    -0.749275  0.983644  1.138198
C    -1.014432  -0.771358  2.362736
C    -0.314773  -2.015195  2.929260
S    -1.455348  -3.150049  3.775131
C    -1.823355  -2.275471  5.311168
H    -1.931910  -1.058103  1.825796
H    -1.337129  -0.112668  3.180018
H    0.500403  -1.738547  3.614663
H    0.123818  -2.652316  2.143111
H    -2.458964  -2.960189  5.885448
H    -2.380871  -1.347347  5.136504
H    -0.905844  -2.080617  5.880216
O    2.211042  0.583096  1.273711
H    1.019538  -0.227065  -0.298774
Pb    3.390383  1.860432  2.924230
