21
Energy: -611971.3055236  eV PBE+vdW (tier 2 basis)
N    0.123262  -0.304037  0.012448
C    0.038901  -0.173938  1.531376
C    1.431103  -0.472958  2.085272
O    2.407620  -0.598330  1.266882
H    -0.537253  0.327427  -0.461785
H    -0.091810  -1.265069  -0.292182
H    -0.165512  0.890286  1.733629
C    -1.116943  -1.039278  2.082439
C    -1.600470  -0.609740  3.479698
S    -3.187135  -1.378822  3.918727
C    -2.687575  -2.991246  4.556133
H    -0.820728  -2.099147  2.080002
H    -1.964582  -0.938892  1.385444
H    -1.803581  0.471146  3.496775
H    -0.857739  -0.823225  4.257897
H    -2.032846  -2.876078  5.429108
H    -2.204524  -3.606641  3.786891
H    -3.615365  -3.485402  4.867598
O    1.602184  -0.553503  3.341144
H    1.088779  -0.094583  -0.299242
Pb    3.933666  -0.822523  3.105298
