21
Energy: -611971.3092381  eV PBE+vdW (tier 2 basis)
N    0.549491  0.516753  0.255443
C    0.467674  0.061532  1.707871
C    1.854198  -0.438564  2.114413
O    1.997792  -1.003201  3.243610
H    -0.111144  1.280670  0.056793
H    0.335216  -0.260884  -0.386764
H    0.294815  0.972708  2.302683
C    -0.698152  -0.911719  1.956574
C    -0.621395  -2.237003  1.183998
S    -1.853153  -3.451995  1.746768
C    -3.347547  -2.940147  0.872044
H    -1.640302  -0.384392  1.746242
H    -0.699919  -1.114326  3.036351
H    0.345638  -2.734070  1.353248
H    -0.745828  -2.112248  0.095109
H    -3.686409  -1.944413  1.182610
H    -4.113206  -3.672427  1.155079
H    -3.199800  -2.984422  -0.214463
O    2.850236  -0.218249  1.341770
H    1.513505  0.831087  0.045407
Pb    4.328564  -1.126506  3.006113
