21
Energy: -611971.3111290  eV PBE+vdW (tier 2 basis)
N    -0.856476  -0.041771  0.086709
C    -0.048360  0.149090  1.340904
C    1.377463  0.520678  0.861936
O    1.572033  0.801241  -0.302433
H    -0.316004  0.482743  -0.640392
H    -0.780873  -1.021747  -0.220430
H    -0.423540  1.055685  1.848942
C    -0.119475  -1.039289  2.305875
C    -1.520294  -1.613713  2.564070
S    -2.773803  -0.297410  2.884350
C    -4.256072  -1.239814  3.371192
H    0.336971  -0.721003  3.251760
H    0.500206  -1.869921  1.932701
H    -1.513177  -2.226582  3.475755
H    -1.885415  -2.250334  1.747233
H    -4.036508  -1.679485  4.351908
H    -4.503840  -2.018570  2.643242
H    -5.074561  -0.518120  3.476426
O    2.253494  0.518435  1.855603
H    3.136338  0.795372  1.526573
Pb    -3.159565  0.643534  0.321068
