21
Energy: -611971.3634773  eV PBE+vdW (tier 2 basis)
N    0.183199  -0.242562  0.212812
C    0.044634  -0.256666  1.732388
C    1.461408  -0.259084  2.316420
O    1.608234  -0.392527  3.569420
H    -0.564535  0.298132  -0.241591
H    0.158310  -1.198290  -0.172277
H    -0.406462  0.710542  2.007899
C    -0.833254  -1.410837  2.226028
C    -2.306225  -1.298768  1.812991
S    -3.219869  -2.672396  2.585648
C    -4.866320  -2.442044  1.888383
H    -0.756910  -1.406532  3.323044
H    -0.405986  -2.371585  1.893417
H    -2.444864  -1.367960  0.720995
H    -2.736375  -0.343091  2.152693
H    -5.278503  -1.465813  2.172598
H    -5.484417  -3.235539  2.324154
H    -4.852636  -2.554934  0.796958
O    2.456285  -0.090143  1.532039
H    1.104714  0.164559  -0.033654
Pb    3.942816  -0.148182  3.437987
