21
Energy: -611972.1647509  eV PBE+vdW (tier 2 basis)
N    0.013536  0.809221  0.549810
C    0.153922  0.370815  1.964149
C    1.197084  -0.753841  2.015160
O    1.444492  -1.466674  1.026899
H    0.788448  1.432945  0.295023
H    -0.835837  1.372375  0.437269
H    0.531178  1.203378  2.579631
C    -1.205686  -0.086664  2.577359
C    -2.253000  -0.713191  1.647386
S    -1.723375  -2.271896  0.826106
C    -3.209707  -2.720309  -0.120976
H    -1.684006  0.802392  3.013507
H    -1.004988  -0.759815  3.422736
H    -2.613253  -0.015142  0.879647
H    -3.124051  -0.989892  2.257471
H    -3.535208  -1.912730  -0.784584
H    -3.995415  -2.970178  0.602144
H    -2.954566  -3.618355  -0.695797
O    1.832922  -1.013334  3.125831
H    1.651595  -0.388737  3.857403
Pb    0.190788  -1.245323  -0.931034
