21
Energy: -611970.9997252  eV PBE+vdW (tier 2 basis)
N    0.296627  1.032325  1.273049
C    0.280637  0.032307  2.390668
C    1.728143  -0.372038  2.695585
O    2.685208  0.378542  2.388242
H    -0.646825  1.501997  1.293665
H    0.271170  0.518630  0.379968
H    -0.025987  0.587514  3.297761
C    -0.734716  -1.106987  2.161776
C    -2.194877  -0.679841  2.370966
S    -2.719080  0.614046  1.187614
C    -4.271163  1.179420  1.925150
H    -0.553476  -1.926928  2.877223
H    -0.585159  -1.543726  1.161273
H    -2.343145  -0.304882  3.394571
H    -2.845080  -1.554914  2.237410
H    -4.986047  0.348632  1.952312
H    -4.653943  1.961642  1.260006
H    -4.109243  1.589204  2.928347
O    2.020647  -1.455841  3.346828
H    1.246551  -2.023148  3.545506
Pb    2.383496  2.332157  1.242862
