21
Energy: -611969.8512396  eV PBE+vdW (tier 2 basis)
N    -0.700794  0.454955  0.408500
C    -0.378326  0.076318  1.726421
C    1.084014  -0.408060  1.784629
O    1.762211  -0.566146  0.800725
H    -1.287580  1.268920  0.256606
H    0.028526  0.296462  -0.287969
H    -0.531057  0.880479  2.460800
C    -1.333789  -1.130707  2.200041
C    -1.310973  -2.294864  1.201848
S    -2.684358  -3.446469  1.581314
C    -2.223771  -5.053262  0.860695
H    -2.344247  -0.702843  2.300597
H    -0.944355  -1.415072  3.204798
H    -0.365790  -2.852403  1.220170
H    -1.493340  -1.925566  0.182900
H    -1.251526  -5.395864  1.226590
H    -2.211155  -4.908794  -0.227247
H    -3.022684  -5.756589  1.124233
O    1.457112  -0.652385  3.056658
H    2.408506  -0.889574  3.058943
Pb    -2.559887  -3.246985  4.268136
