21
Energy: -611971.0304540  eV PBE+vdW (tier 2 basis)
N    0.130945  0.559678  0.516757
C    0.416559  -0.589979  1.340784
C    1.666774  -1.293359  0.851428
O    2.446913  -0.716580  0.013133
H    0.951278  1.133747  0.326246
H    -0.591248  1.153836  0.921884
H    0.685160  -0.343779  2.400888
C    -0.821129  -1.541841  1.365797
C    -1.382838  -1.912687  2.736052
S    -0.449546  -3.252858  3.586621
C    -1.314732  -3.433808  5.169255
H    -0.645839  -2.443513  0.764575
H    -1.624192  -1.000997  0.844786
H    -2.382071  -2.358893  2.627883
H    -1.452726  -1.063438  3.428542
H    -2.272283  -3.916804  4.941153
H    -1.459547  -2.462929  5.652907
H    -0.704036  -4.103661  5.786511
O    1.977777  -2.465007  1.297422
H    0.623754  -2.532828  4.010280
Pb    3.854003  -2.506940  -0.090638
