21
Energy: -611971.5426167  eV PBE+vdW (tier 2 basis)
N    0.685811  -0.412192  0.237172
C    0.076434  -0.270223  1.597929
C    1.121536  0.095012  2.685579
O    2.401637  0.039725  2.367795
H    0.270766  0.261146  -0.414219
H    0.478088  -1.335340  -0.159201
H    -0.596752  0.598735  1.559117
C    -0.749496  -1.541272  1.942342
C    -1.225299  -1.755722  3.387338
S    -2.182391  -0.342247  4.069069
C    -2.474573  -0.832392  5.788834
H    -0.138624  -2.431171  1.714950
H    -1.612680  -1.570772  1.262282
H    -0.397285  -1.936577  4.082548
H    -1.907121  -2.615396  3.415790
H    -2.898000  0.048903  6.285819
H    -1.541516  -1.145643  6.267140
H    -3.217182  -1.637959  5.772768
O    0.735952  0.428249  3.796292
H    -1.023095  0.415318  4.211682
Pb    3.189552  -0.102118  0.378024
