21
Energy: -611971.6153870  eV PBE+vdW (tier 2 basis)
N    0.255760  -0.271450  -0.120267
C    0.134999  -0.198288  1.378056
C    1.422830  0.283786  2.018357
O    2.438675  0.575046  1.294881
H    -0.769958  -0.447755  -0.425525
H    0.860268  -1.039182  -0.440290
H    -0.630446  0.573275  1.560348
C    -0.358724  -1.539092  1.971435
C    -1.430337  -2.283600  1.135993
S    -2.590191  -1.289178  0.143229
C    -3.597645  -0.437216  1.391229
H    -0.744186  -1.306768  2.971850
H    0.493217  -2.220110  2.118153
H    -2.003437  -2.941004  1.802740
H    -0.959000  -2.943949  0.393937
H    -4.297037  0.193348  0.830338
H    -3.009572  0.190171  2.069370
H    -4.167342  -1.183538  1.956655
O    1.471662  0.400339  3.291065
H    0.605043  0.600307  -0.539110
Pb    3.649738  1.183282  3.227590
