21
Energy: -611972.5272800  eV PBE+vdW (tier 2 basis)
N    -0.001792  -0.391147  0.282175
C    0.224661  -0.166192  1.740797
C    0.894929  -1.405443  2.320105
O    0.716620  -2.547459  1.851952
H    -0.706546  0.270303  -0.061629
H    0.854396  -0.175672  -0.242122
H    0.892951  0.693570  1.892569
C    -1.092776  0.117116  2.508073
C    -2.038824  -1.055806  2.783805
S    -2.815203  -1.756491  1.270381
C    -3.808914  -3.127619  1.932053
H    -1.618778  0.932835  1.988865
H    -0.810560  0.529854  3.487915
H    -2.882136  -0.696082  3.389236
H    -1.555972  -1.870234  3.340730
H    -4.594174  -2.688027  2.558854
H    -3.199292  -3.831837  2.506920
H    -4.274197  -3.623755  1.072234
O    1.618610  -1.166736  3.378566
H    2.006407  -1.989047  3.755365
Pb    -0.619411  -2.790132  -0.094845
