21
Energy: -611970.6493426  eV PBE+vdW (tier 2 basis)
N    0.484749  0.453151  0.152623
C    -0.015691  -0.019713  1.346272
C    1.110216  -0.287569  2.364755
O    2.194183  -0.717016  2.160472
H    1.256716  1.111137  0.120845
H    -0.035746  0.334305  -0.709974
H    -0.704937  0.798660  1.905044
C    -0.934614  -1.251295  1.145207
C    -1.467249  -1.981240  2.372571
S    -2.622858  -1.128218  3.524310
C    -4.080096  -0.742542  2.501834
H    -0.339420  -1.990115  0.584654
H    -1.756173  -0.950647  0.478995
H    -0.671078  -2.351589  3.033078
H    -2.032047  -2.867778  2.049439
H    -4.494983  -1.700225  2.163535
H    -3.846780  -0.098726  1.648208
H    -4.808146  -0.259049  3.164316
O    0.664670  0.024090  3.685407
H    1.394396  -0.180149  4.312907
Pb    -1.418470  1.311050  3.950200
