21
Energy: -611971.4028296  eV PBE+vdW (tier 2 basis)
N    0.451646  -0.435895  -0.220196
C    0.031495  -0.037021  1.188917
C    1.282912  0.398846  1.933020
O    2.433572  0.091623  1.460394
H    0.492372  0.369703  -0.860314
H    -0.200319  -1.123963  -0.623850
H    -0.659373  0.812988  1.101731
C    -0.663214  -1.216960  1.911349
C    -2.031144  -1.592892  1.305065
S    -2.773573  -3.027564  2.128672
C    -3.523933  -2.288078  3.595392
H    -0.797713  -0.900226  2.954264
H    0.006447  -2.090858  1.926709
H    -1.950187  -1.911920  0.253065
H    -2.727202  -0.741900  1.338048
H    -4.270399  -1.535990  3.311891
H    -2.774526  -1.858512  4.271587
H    -4.025826  -3.115131  4.111690
O    1.162695  1.022607  3.036263
H    1.402729  -0.844369  -0.181097
Pb    3.476246  1.155175  3.336277
