21
Energy: -611971.8618177  eV PBE+vdW (tier 2 basis)
N    0.157631  -2.132650  0.038700
C    -0.218118  -0.964384  0.930526
C    0.600856  -1.214475  2.225365
O    0.827746  -0.166217  2.980700
H    -0.617858  -2.488531  -0.535223
H    0.943956  -1.914179  -0.588022
H    0.099001  -0.039239  0.434579
C    -1.745466  -0.985254  1.170732
C    -2.283890  -0.229109  2.389711
S    -1.949171  1.586924  2.365981
C    -3.336186  2.264358  3.333491
H    -2.056531  -2.031466  1.329456
H    -2.249786  -0.629210  0.260945
H    -1.926193  -0.661091  3.332397
H    -3.379257  -0.307266  2.386573
H    -4.250559  2.119155  2.746604
H    -3.147957  3.339077  3.441274
H    -3.420063  1.784885  4.313759
O    0.972918  -2.349167  2.460164
H    0.485436  -2.865794  0.722826
Pb    0.391485  1.720634  3.919463
