21
Energy: -611971.6986242  eV PBE+vdW (tier 2 basis)
N    0.101237  -0.151636  0.168606
C    0.070261  -0.094964  1.685577
C    1.564031  -0.248868  2.081801
O    1.917775  0.265211  3.233510
H    -0.718710  -0.607964  -0.252273
H    0.206070  0.777595  -0.261315
H    -0.318805  0.886007  1.981420
C    -0.813813  -1.251863  2.207276
C    -0.545144  -1.825850  3.601222
S    -0.774535  -0.815529  5.119530
C    -2.301068  0.134883  4.859872
H    -0.667190  -2.118419  1.540140
H    -1.870386  -0.964413  2.109932
H    0.477676  -2.217432  3.696580
H    -1.218039  -2.681613  3.752061
H    -2.232102  0.832930  4.020160
H    -2.485470  0.680578  5.792932
H    -3.115806  -0.583996  4.709662
O    2.301661  -0.827747  1.305599
H    0.980083  -0.698813  -0.034244
Pb    1.507773  0.831808  5.272554
