21
Energy: -611971.6863175  eV PBE+vdW (tier 2 basis)
N    -1.226745  0.141952  0.569352
C    -1.604055  -0.384677  1.935319
C    -0.446789  -0.159035  2.901126
O    -0.523158  -0.643667  4.080801
H    -2.023015  0.599599  0.108682
H    -0.448785  0.814948  0.630038
H    -2.418777  0.246501  2.327611
C    -2.109349  -1.841781  1.874598
C    -1.143820  -2.862952  1.261423
S    -1.046833  -2.630923  -0.560104
C    0.501000  -3.469524  -0.985881
H    -3.067928  -1.849372  1.334081
H    -2.348634  -2.136852  2.905496
H    -1.510412  -3.877163  1.464071
H    -0.131964  -2.785848  1.687844
H    1.360988  -3.021044  -0.476892
H    0.614149  -3.359749  -2.070472
H    0.412939  -4.534414  -0.743057
O    0.558313  0.555227  2.553362
H    -0.934729  -0.720265  -0.058675
Pb    1.432599  0.400040  4.747278
