21
Energy: -611971.2990223  eV PBE+vdW (tier 2 basis)
N    0.029869  0.002232  -0.120315
C    0.054333  0.009534  1.404938
C    1.492773  0.287551  1.826755
O    1.739149  0.595976  3.035265
H    -0.749210  -0.568964  -0.478542
H    -0.068700  0.949457  -0.513400
H    -0.585669  0.839483  1.736173
C    -0.512265  -1.331414  1.944650
C    -0.873356  -1.291595  3.438698
S    -1.928800  -2.694332  3.911343
C    -0.739220  -4.028614  4.160268
H    0.191352  -2.149530  1.729708
H    -1.436126  -1.541863  1.380332
H    -1.478866  -0.402129  3.664705
H    0.013476  -1.261364  4.083953
H    -1.331514  -4.893535  4.481611
H    -0.027271  -3.769355  4.953929
H    -0.212319  -4.291464  3.234556
O    2.426220  0.188394  0.956509
H    0.925462  -0.379458  -0.473073
Pb    4.038731  0.842868  2.611822
