21
Energy: -611969.8413925  eV PBE+vdW (tier 2 basis)
N    -0.247357  -0.128858  0.212336
C    0.099925  -0.111398  1.614381
C    1.597013  -0.404343  1.944309
O    1.950510  -0.728155  3.053054
H    0.093489  -0.948928  -0.291374
H    0.018977  0.710788  -0.301072
H    -0.056472  0.914130  1.989927
C    -0.786652  -1.082183  2.406951
C    -2.237308  -0.639953  2.559908
S    -3.102674  -0.332892  0.943249
C    -3.260533  -1.976491  0.177584
H    -0.383383  -1.167816  3.429797
H    -0.725840  -2.092819  1.976130
H    -2.314157  0.324295  3.082857
H    -2.824288  -1.390027  3.102152
H    -3.679883  -2.704215  0.879136
H    -2.256355  -2.273852  -0.143317
H    -3.893328  -1.873052  -0.711923
O    2.387052  -0.223426  0.882345
H    3.320571  -0.376292  1.144385
Pb    -5.652883  0.502951  1.334674
