21
Energy: -611972.3414787  eV PBE+vdW (tier 2 basis)
N    -0.245197  0.013950  0.444767
C    -0.034794  -0.441253  1.847708
C    0.520967  -1.861034  1.814399
O    0.311342  -2.662366  0.882852
H    -0.856203  0.836979  0.429103
H    0.644823  0.333047  0.044200
H    0.725133  0.181073  2.341987
C    -1.330188  -0.374325  2.715051
C    -2.695434  -0.448796  2.022323
S    -3.151202  -1.875114  0.964264
C    -2.984175  -3.328241  2.040720
H    -1.319395  0.590114  3.243954
H    -1.259406  -1.132240  3.506270
H    -2.891871  0.414927  1.370383
H    -3.477458  -0.410761  2.794466
H    -3.681264  -3.195160  2.877158
H    -1.963322  -3.479247  2.402448
H    -3.307239  -4.191126  1.446124
O    1.218514  -2.165859  2.874587
H    1.554131  -3.090292  2.844114
Pb    -1.065762  -1.947274  -0.900878
