21
Energy: -611971.0108207  eV PBE+vdW (tier 2 basis)
N    -0.291341  0.786556  0.010768
C    0.171345  0.215111  1.317263
C    1.700320  0.260142  1.356427
O    2.330888  1.111945  0.680815
H    -0.263486  0.035797  -0.694091
H    -1.346956  0.935586  0.158067
H    -0.117875  0.951906  2.093107
C    -0.535067  -1.112992  1.649717
C    -1.979291  -0.900668  2.144459
S    -3.076053  0.108917  1.083431
C    -3.594804  -1.087410  -0.181110
H    -0.003749  -1.646823  2.457407
H    -0.500250  -1.781492  0.775664
H    -1.973909  -0.377719  3.111562
H    -2.462073  -1.872230  2.311072
H    -2.752405  -1.508363  -0.742512
H    -4.252854  -0.540535  -0.866179
H    -4.169147  -1.889383  0.296679
O    2.399776  -0.506064  2.133814
H    1.865824  -1.167634  2.623023
Pb    1.252517  2.510816  -0.766262
