21
Energy: -611972.3893512  eV PBE+vdW (tier 2 basis)
N    -0.981493  1.669721  0.156510
C    -0.816870  0.717549  1.327180
C    0.659172  0.649253  1.693695
O    1.501886  0.645918  0.740194
H    -0.204436  1.514670  -0.511495
H    -0.941796  2.656056  0.455369
H    -1.410729  1.102043  2.164243
C    -1.266761  -0.707482  0.905730
C    -0.774360  -1.849604  1.811758
S    0.873942  -2.539809  1.321183
C    0.995830  -3.967543  2.441573
H    -0.945856  -0.900142  -0.130484
H    -2.366174  -0.732390  0.912758
H    -1.448964  -2.707326  1.690075
H    -0.757895  -1.573098  2.873206
H    0.918338  -3.669901  3.492276
H    1.963978  -4.442186  2.243043
H    0.197725  -4.671167  2.177275
O    0.958119  0.390405  2.896723
H    -1.876991  1.531072  -0.335442
Pb    2.914335  -0.722040  2.166631
