21
Energy: -611970.8381017  eV PBE+vdW (tier 2 basis)
N    0.284536  0.255054  0.286990
C    0.012227  0.128946  1.750280
C    1.340517  0.168592  2.504105
O    2.416625  -0.155128  1.954931
H    0.232438  1.239079  -0.001510
H    -0.458705  -0.221664  -0.237090
H    -0.615171  0.971744  2.083335
C    -0.694909  -1.213999  2.072972
C    -2.161501  -1.262693  1.625655
S    -2.748458  -2.978491  1.792342
C    -4.535440  -2.766403  1.682102
H    -0.644913  -1.398163  3.155368
H    -0.116165  -2.029531  1.604135
H    -2.302160  -0.942782  0.578571
H    -2.779861  -0.605250  2.254204
H    -4.908759  -2.159184  2.516258
H    -4.955105  -3.776723  1.753620
H    -4.819918  -2.322098  0.720135
O    1.389366  0.481575  3.768019
H    0.533351  0.757242  4.155077
Pb    2.601311  -0.598441  -0.278731
