21
Energy: -611970.7514540  eV PBE+vdW (tier 2 basis)
N    0.295562  0.096487  0.048196
C    -0.131405  0.037646  1.481786
C    1.086490  0.241900  2.382124
O    2.219300  0.524152  1.930792
H    -0.404531  0.613091  -0.494358
H    0.296285  -0.852372  -0.345819
H    -0.771097  0.918143  1.664322
C    -0.969222  -1.226295  1.823065
C    -0.202131  -2.556730  1.767652
S    -1.282171  -4.015415  1.897351
C    -1.678540  -4.068430  3.656606
H    -1.824500  -1.247196  1.131602
H    -1.421712  -1.087198  2.817913
H    0.578376  -2.616298  2.542215
H    0.295664  -2.703583  0.795884
H    -2.288674  -3.212191  3.970565
H    -0.765716  -4.145839  4.261002
H    -2.270972  -4.981778  3.790281
O    0.972252  0.169105  3.679816
H    0.068553  -0.043995  3.989472
Pb    2.633247  1.019385  -0.253993
