21
Energy: -611969.9610375  eV PBE+vdW (tier 2 basis)
N    -0.107377  -1.048523  0.282190
C    0.035594  -0.064315  1.391529
C    1.328056  -0.380484  2.171457
O    1.894940  -1.441766  2.034614
H    -0.100905  -0.597529  -0.636821
H    0.707996  -1.682577  0.327898
H    0.035805  0.972084  1.031344
C    -1.218504  -0.396333  2.227888
C    -1.885611  0.087384  3.507636
S    -3.435129  -0.930146  3.497705
C    -3.347932  -1.905040  5.027621
H    -1.041077  -1.478796  2.450231
H    -2.019746  -0.254125  1.458221
H    -2.165684  1.147787  3.478142
H    -1.306444  -0.119491  4.414643
H    -3.471050  -1.215467  5.871289
H    -2.411515  -2.465979  5.109253
H    -4.204880  -2.588978  4.997186
O    1.648378  0.618718  2.987511
H    2.479199  0.406361  3.466238
Pb    -2.385559  -2.447081  0.891079
