21
Energy: -611970.9298290  eV PBE+vdW (tier 2 basis)
N    0.154957  0.043553  0.189918
C    -0.533781  0.049792  1.512360
C    0.530281  0.182798  2.603319
O    1.687898  -0.255856  2.442811
H    0.419687  0.998945  -0.079480
H    -0.489139  -0.278910  -0.540992
H    -1.220486  0.908583  1.576569
C    -1.360926  -1.252394  1.738918
C    -0.731251  -2.562448  1.232751
S    -1.464289  -4.092132  1.798296
C    -1.355047  -4.001998  3.599187
H    -2.330650  -1.126317  1.237936
H    -1.581948  -1.327901  2.812034
H    0.387240  -2.611150  1.488183
H    -0.802822  -2.643081  0.137689
H    -1.739004  -4.970224  3.944985
H    -1.985003  -3.210851  4.021702
H    -0.312963  -3.905988  3.930040
O    0.239443  0.702026  3.763040
H    -0.658279  1.088536  3.825028
Pb    2.214270  -1.359875  0.479177
