21
Energy: -611969.8367708  eV PBE+vdW (tier 2 basis)
N    -0.130322  0.439214  1.022954
C    -0.174351  -0.824274  1.676998
C    1.236687  -1.422313  2.078633
O    1.372495  -2.574705  2.407953
H    0.400771  0.489476  0.155163
H    0.039496  1.250638  1.612733
H    -0.665662  -0.689665  2.655797
C    -0.924112  -1.907450  0.864340
C    -2.432313  -1.655678  0.867146
S    -3.326863  -3.031830  0.005135
C    -2.960633  -2.794422  -1.764732
H    -0.690553  -2.881032  1.316363
H    -0.529991  -1.915699  -0.162415
H    -2.712883  -0.709023  0.388933
H    -2.837753  -1.679535  1.888476
H    -1.896546  -3.014888  -1.906625
H    -3.201471  -1.776939  -2.087430
H    -3.548109  -3.534672  -2.319718
O    2.185651  -0.487525  2.037985
H    3.034480  -0.875759  2.342218
Pb    -6.011006  -2.899084  0.375927
