21
Energy: -611971.6488154  eV PBE+vdW (tier 2 basis)
N    -0.605128  -1.516550  0.480200
C    0.153700  -0.751968  1.530280
C    1.573684  -1.261788  1.686403
O    2.017554  -2.198016  0.933908
H    -0.805827  -2.486657  0.753294
H    -0.123385  -1.536513  -0.427643
H    0.226871  0.276138  1.137487
C    -0.628207  -0.712025  2.869230
C    -2.157305  -0.577391  2.720550
S    -2.629585  0.520058  1.328115
C    -4.402668  0.166251  1.177229
H    -0.219051  0.130818  3.439703
H    -0.419236  -1.619893  3.453548
H    -2.568712  -0.175772  3.654926
H    -2.626821  -1.558538  2.557438
H    -4.916893  0.507309  2.082291
H    -4.588959  -0.898004  0.997666
H    -4.752700  0.754231  0.321291
O    2.322644  -0.726608  2.574356
H    -1.535578  -0.935653  0.397921
Pb    4.131601  -2.034430  1.970805
