21
Energy: -611972.3511823  eV PBE+vdW (tier 2 basis)
N    -0.622340  0.950484  0.144579
C    -0.067948  0.484914  1.483086
C    1.285169  -0.162680  1.218669
O    1.474078  -0.678749  0.066450
H    -0.262414  1.883478  -0.106484
H    -1.650822  1.004343  0.138820
H    0.017987  1.364360  2.131271
C    -0.963363  -0.583897  2.157661
C    -0.917224  -2.015484  1.591868
S    0.436153  -3.074443  2.287337
C    -0.001631  -4.696650  1.594413
H    -2.008133  -0.235976  2.126111
H    -0.695671  -0.587820  3.223482
H    -0.874635  -2.058702  0.495303
H    -1.827272  -2.542794  1.908446
H    0.763901  -5.401202  1.940661
H    -0.041646  -4.679864  0.500576
H    -0.968919  -4.994322  2.016168
O    2.056584  -0.346691  2.201365
H    -0.299454  0.293093  -0.590080
Pb    2.936600  -2.281399  1.154293
