21
Energy: -611971.3648265  eV PBE+vdW (tier 2 basis)
N    1.335678  0.067302  0.294131
C    0.159628  -0.019194  1.034371
C    0.335333  0.322944  2.521031
O    -0.580064  0.881192  3.165874
H    1.391545  -0.437399  -0.585798
H    1.889442  0.918463  0.316794
H    -0.656590  0.761242  0.713577
C    -0.487977  -1.424644  0.880464
C    -1.698102  -1.762347  1.748914
S    -3.199338  -0.791980  1.313371
C    -4.431194  -1.403860  2.506862
H    0.293877  -2.162887  1.115204
H    -0.735011  -1.553972  -0.183782
H    -1.506804  -1.655925  2.824853
H    -1.984314  -2.807169  1.564224
H    -5.350488  -0.832295  2.334282
H    -4.087084  -1.294265  3.539912
H    -4.613682  -2.457983  2.264285
O    1.458347  -0.055080  3.055078
H    1.504479  0.166432  4.013410
Pb    -2.422249  1.768935  1.986754
