24
Energy: -249510.6141424  eV PBE+vdW (tier 2 basis)
C    0.429048  0.571793  -0.134936
C    -0.098965  -0.322404  0.935804
O    0.684982  -0.999540  1.672948
H    1.093688  1.318665  0.321338
H    -0.359018  1.086383  -0.693653
H    1.040550  -0.016650  -0.832341
N    -1.425150  -0.402061  1.114699
C    -2.037249  -1.099142  2.249405
C    -1.824599  -2.627658  2.161679
O    -0.992367  -3.150917  2.970485
H    -2.017450  0.303373  0.667366
H    -1.482330  -0.812444  3.157726
C    -3.499427  -0.664824  2.448087
S    -3.550563  1.164644  2.598923
H    -3.881329  -1.139544  3.360380
H    -4.135649  -0.966614  1.611308
H    -4.799778  1.312554  2.103224
N    -2.459484  -3.392908  1.284597
C    -3.404466  -3.044453  0.219082
H    -2.249834  -4.386652  1.385192
H    -3.283368  -3.772623  -0.589502
H    -3.191579  -2.051458  -0.185126
H    -4.439771  -3.095041  0.579121
Ba    1.376146  -2.626669  3.339027
