24
Energy: -249510.6222154  eV PBE+vdW (tier 2 basis)
C    -0.371128  -0.665064  0.191063
C    -0.306332  -0.023488  1.537574
O    0.800656  0.138718  2.132666
H    -1.391251  -0.774892  -0.190948
H    0.108249  -1.651913  0.232366
H    0.210943  -0.056461  -0.515638
N    -1.450967  0.392207  2.107813
C    -1.511308  1.158947  3.357706
C    -1.283618  0.228250  4.579673
O    -0.093131  0.162007  5.029604
H    -2.314853  0.261170  1.586817
H    -0.625505  1.810285  3.371685
C    -2.735360  2.078659  3.376214
S    -2.738648  2.958190  4.981905
H    -3.670550  1.523506  3.234904
H    -2.629803  2.796433  2.552654
H    -3.780739  3.770722  4.693282
N    -2.231741  -0.515971  5.125354
C    -3.662917  -0.603217  4.823293
H    -1.909228  -1.058260  5.927341
H    -3.834865  -0.705536  3.746928
H    -4.193864  0.273781  5.216914
H    -4.052598  -1.500459  5.311958
Ba    2.180557  0.233391  4.144875
