24
Energy: -249509.5941240  eV PBE+vdW (tier 2 basis)
C    0.054933  -0.995792  0.924806
C    -1.067024  -1.334139  1.843713
O    -1.313215  -2.600401  2.075438
H    0.954040  -1.538356  1.246528
H    0.274938  0.073879  0.884858
H    -0.194771  -1.328261  -0.091973
N    -1.809984  -0.451447  2.457114
C    -1.802034  1.012175  2.465160
C    -2.354351  1.319099  3.898811
O    -2.942448  0.404799  4.494552
H    -2.477051  -0.745244  3.210592
H    -0.780111  1.395539  2.339061
C    -2.758083  1.610999  1.416366
S    -2.200176  1.237461  -0.287500
H    -2.789557  2.697959  1.562080
H    -3.768354  1.213393  1.577886
H    -3.340554  1.631995  -0.897267
N    -2.176541  2.560653  4.358435
C    -2.685615  3.030331  5.647047
H    -1.660135  3.222279  3.786631
H    -3.401199  3.847333  5.495296
H    -1.857194  3.386640  6.270396
H    -3.186307  2.197115  6.146340
Ba    -1.740773  -4.809582  2.403571
