24
Energy: -249510.1398284  eV PBE+vdW (tier 2 basis)
C    0.058479  1.434037  0.138166
C    -0.387217  0.677044  1.345308
O    -0.016870  1.062233  2.519805
H    -0.247043  2.485280  0.224731
H    -0.343372  1.019204  -0.791300
H    1.156414  1.415997  0.090614
N    -1.154788  -0.379730  1.188702
C    -1.653324  -1.322527  2.179904
C    -2.283766  -2.449373  1.270133
O    -2.389238  -2.217918  0.065654
H    -1.467612  -0.708662  0.246039
H    -0.810391  -1.756536  2.741729
C    -2.701825  -0.720551  3.143630
S    -1.969083  -0.427590  4.814465
H    -3.524609  -1.425607  3.307771
H    -3.117429  0.206624  2.736013
H    -3.097725  -0.069279  5.474307
N    -2.669180  -3.572108  1.889357
C    -3.271695  -4.705509  1.181193
H    -2.444724  -3.698368  2.871440
H    -4.111485  -5.096075  1.765541
H    -2.532420  -5.501569  1.027473
H    -3.630963  -4.357921  0.209137
Ba    0.175164  1.925297  4.673124
