24
Energy: -249511.1738216  eV PBE+vdW (tier 2 basis)
C    -0.867387  0.486677  -0.344324
C    -0.515648  0.613757  1.105546
O    0.686224  0.668883  1.472955
H    -0.472278  1.361632  -0.879344
H    -1.942608  0.408908  -0.535483
H    -0.362066  -0.394355  -0.761163
N    -1.538465  0.678499  1.985165
C    -1.509383  0.847928  3.450074
C    -0.569009  1.976111  3.930629
O    0.637371  1.756637  4.223090
H    -2.468247  0.626163  1.577985
H    -2.529243  1.180761  3.696830
C    -1.353800  -0.461543  4.252217
S    0.109298  -1.541063  4.039578
H    -2.228501  -1.097362  4.068334
H    -1.360104  -0.220680  5.323983
H    -0.222471  -2.067118  2.836078
N    -1.119836  3.176703  4.071204
C    -0.412381  4.364965  4.551771
H    -2.100935  3.288155  3.829331
H    0.404411  4.058651  5.210802
H    -1.115714  4.991392  5.108874
H    -0.009841  4.941589  3.708680
Ba    2.461615  0.472712  3.163185
