24
Energy: -249510.5856536  eV PBE+vdW (tier 2 basis)
C    -0.087095  1.484498  0.579333
C    -0.216733  0.697465  1.847719
O    0.790620  0.569207  2.616268
H    0.771865  1.125688  -0.001259
H    0.124746  2.529933  0.847627
H    -0.985625  1.457768  -0.045355
N    -1.408044  0.154594  2.104613
C    -2.021681  -0.459329  3.280443
C    -1.122191  -1.199773  4.267599
O    -0.080997  -1.836762  3.929922
H    -2.149975  0.314850  1.402627
H    -2.529494  0.348551  3.835222
C    -3.120234  -1.462353  2.786967
S    -4.233259  -0.725617  1.536201
H    -3.731783  -1.759298  3.646698
H    -2.652038  -2.362548  2.374155
H    -3.829462  -1.490139  0.495950
N    -1.575426  -1.218169  5.518775
C    -1.005899  -2.012940  6.605995
H    -2.397004  -0.659185  5.736315
H    -1.814467  -2.327857  7.273213
H    -0.286123  -1.421534  7.187818
H    -0.515803  -2.899760  6.193905
Ba    2.224104  -1.181292  3.414251
