24
Energy: -249510.7122955  eV PBE+vdW (tier 2 basis)
C    -0.161886  0.866036  0.293577
C    -0.390267  0.312238  1.664439
O    0.432325  0.554859  2.596002
H    -0.032434  1.954188  0.356147
H    -0.965867  0.638930  -0.413992
H    0.780459  0.454269  -0.095458
N    -1.485059  -0.444743  1.857366
C    -1.874406  -1.246000  3.040790
C    -2.273579  -0.361451  4.238813
O    -1.389209  0.282324  4.886373
H    -2.069295  -0.576751  1.036219
H    -2.766793  -1.792030  2.716141
C    -0.826050  -2.297145  3.444881
S    -1.332467  -3.219921  4.935053
H    0.138010  -1.833057  3.684550
H    -0.642488  -2.980460  2.607778
H    -2.115768  -4.125781  4.304397
N    -3.548245  -0.264276  4.581426
C    -4.708414  -0.972702  4.028443
H    -3.717721  0.320798  5.399667
H    -4.823578  -0.776183  2.956324
H    -5.601698  -0.598003  4.535432
H    -4.631166  -2.051312  4.214921
Ba    0.876600  1.142171  4.905714
