24
Energy: -249510.0508485  eV PBE+vdW (tier 2 basis)
C    0.275309  -0.350259  0.044455
C    0.136413  -0.575201  1.513850
O    1.040809  -1.238757  2.152268
H    1.231140  0.146992  -0.167605
H    -0.540999  0.250342  -0.368418
H    0.293467  -1.323812  -0.465491
N    -0.915431  -0.090272  2.136834
C    -1.320565  -0.238962  3.528190
C    -2.771280  0.378114  3.509181
O    -3.114331  0.982968  2.491795
H    -1.657892  0.457619  1.642581
H    -1.384874  -1.307863  3.784803
C    -0.405786  0.512354  4.524233
S    0.670781  -0.669222  5.448891
H    -0.997596  1.025318  5.290039
H    0.200646  1.258757  4.001512
H    1.224569  0.201286  6.328000
N    -3.552533  0.220456  4.588067
C    -3.300158  -0.521148  5.818337
H    -4.459531  0.676157  4.497597
H    -4.227866  -1.010443  6.134159
H    -2.965274  0.138227  6.631781
H    -2.553274  -1.307506  5.662218
Ba    2.817457  -1.958767  3.471343
