24
Energy: -249511.0468514  eV PBE+vdW (tier 2 basis)
C    0.219890  0.837610  0.495353
C    -0.201071  0.146478  1.754452
O    0.577847  0.077527  2.742216
H    0.536184  1.861856  0.731119
H    -0.557619  0.868991  -0.274807
H    1.100403  0.317666  0.091765
N    -1.430783  -0.404545  1.776438
C    -2.077391  -1.241182  2.802169
C    -2.542708  -0.423515  4.019390
O    -1.728416  0.284840  4.672655
H    -1.974522  -0.283026  0.926929
H    -2.974774  -1.609009  2.289638
C    -1.307029  -2.540234  3.171909
S    -0.097979  -2.615809  4.551314
H    -0.739168  -2.862139  2.290116
H    -2.034917  -3.332717  3.380411
H    -0.969383  -2.900371  5.548528
N    -3.819099  -0.500676  4.385380
C    -4.923311  -1.235377  3.753907
H    -4.049946  0.059056  5.206306
H    -5.818292  -1.080723  4.362805
H    -4.723836  -2.313095  3.720025
H    -5.132031  -0.854922  2.746085
Ba    0.704957  0.433317  5.157899
