24
Energy: -249510.2096573  eV PBE+vdW (tier 2 basis)
C    -1.152319  1.205999  -0.273949
C    -0.142891  1.005250  0.810740
O    1.028311  1.476313  0.696574
H    -2.110461  1.554852  0.128785
H    -1.341353  0.264892  -0.813707
H    -0.768942  1.940759  -0.987571
N    -0.452773  0.314749  1.937270
C    -1.195870  -0.950587  1.970238
C    -0.458301  -1.973497  1.045226
O    0.691347  -1.680880  0.570866
H    0.263591  0.396558  2.657160
H    -1.061373  -1.318493  3.000759
C    -2.716950  -0.809685  1.739616
S    -3.577795  -2.236694  2.519252
H    -2.971226  -0.774271  0.675271
H    -3.049843  0.119153  2.217816
H    -4.649052  -2.238750  1.692300
N    -1.059731  -3.121830  0.821741
C    -0.532350  -4.234229  0.035473
H    -1.985429  -3.237189  1.280144
H    -1.310963  -4.589271  -0.648854
H    -0.246921  -5.058509  0.701731
H    0.338148  -3.907716  -0.537629
Ba    2.680730  -0.285637  0.170660
