24
Energy: -249510.0744793  eV PBE+vdW (tier 2 basis)
C    0.065230  -0.214734  0.119874
C    -0.022104  -0.009291  1.593601
O    1.011458  0.280853  2.273500
H    -0.757547  0.303929  -0.392858
H    -0.006374  -1.284765  -0.132207
H    1.029431  0.157422  -0.237870
N    -1.204791  -0.116974  2.250821
C    -2.205446  -1.172589  2.057346
C    -1.529559  -2.537434  2.395880
O    -0.344125  -2.574724  2.853073
H    -1.157251  0.236016  3.205320
H    -2.957753  -0.988250  2.840276
C    -2.950898  -1.156900  0.711177
S    -3.480612  0.561469  0.374239
H    -3.843783  -1.790616  0.798125
H    -2.331603  -1.552966  -0.103239
H    -4.283443  0.241690  -0.667575
N    -2.239251  -3.638968  2.226243
C    -1.769862  -4.989843  2.549875
H    -3.183727  -3.545651  1.861161
H    -2.550125  -5.701877  2.269610
H    -1.573065  -5.078967  3.625017
H    -0.856432  -5.220146  1.989636
Ba    1.812578  -1.596742  3.633209
