24
Energy: -249510.1258749  eV PBE+vdW (tier 2 basis)
C    -0.125492  -1.151714  0.348650
C    -0.260168  -0.702461  1.765919
O    0.026980  -1.512838  2.726121
H    0.901955  -1.492098  0.163206
H    -0.378835  -0.365906  -0.369532
H    -0.787785  -2.013311  0.183707
N    -0.678058  0.522023  2.009812
C    -1.010257  1.166763  3.273788
C    -1.900365  2.381126  2.787952
O    -1.873776  2.662565  1.590047
H    -0.960362  1.166973  1.237296
H    -1.606569  0.490843  3.904242
C    0.217294  1.705445  4.036518
S    1.090868  0.607354  5.234988
H    -0.046875  2.595057  4.620170
H    0.997541  2.013288  3.328867
H    0.249517  0.748264  6.287336
N    -2.594934  3.034636  3.728495
C    -3.444714  4.191392  3.429431
H    -2.626041  2.660918  4.671358
H    -3.328178  4.941287  4.218752
H    -4.498098  3.891551  3.362961
H    -3.132431  4.615204  2.471432
Ba    0.969798  -2.539792  4.580666
