24
Energy: -249511.1409396  eV PBE+vdW (tier 2 basis)
C    -0.584648  0.849517  -0.559315
C    -1.135586  0.298641  0.718407
O    -0.388607  -0.301883  1.536241
H    0.254664  1.520035  -0.334013
H    -1.322008  1.386007  -1.165237
H    -0.176968  0.016396  -1.149452
N    -2.453766  0.459588  0.946117
C    -3.293601  -0.063178  2.040254
C    -3.065183  0.693046  3.364707
O    -1.943331  0.686170  3.937291
H    -2.961029  0.966601  0.226428
H    -4.311915  0.175579  1.703034
C    -3.309606  -1.613258  2.162895
S    -2.160025  -2.545265  3.248206
H    -3.142551  -2.034744  1.163746
H    -4.313388  -1.927715  2.470470
H    -2.885525  -2.477032  4.390126
N    -4.119271  1.329761  3.866531
C    -4.128689  2.090095  5.116667
H    -4.985052  1.316853  3.333539
H    -3.193646  1.912616  5.651998
H    -4.976441  1.768088  5.731877
H    -4.228726  3.161311  4.901243
Ba    0.231900  -0.522227  3.889244
