24
Energy: -249510.7921588  eV PBE+vdW (tier 2 basis)
C    -1.657976  -0.186307  -0.470322
C    -1.183507  -0.512015  0.907992
O    -0.334771  -1.434030  1.104383
H    -2.045410  -1.093875  -0.950876
H    -0.795972  0.147277  -1.065995
H    -2.427461  0.592210  -0.494107
N    -1.664940  0.201868  1.938329
C    -1.175458  0.116852  3.326733
C    -1.781110  -1.118772  4.031772
O    -1.206396  -2.241983  3.891837
H    -2.343567  0.929730  1.725203
H    -0.096900  -0.088428  3.273179
C    -1.364450  1.455179  4.053062
S    -0.667079  1.431584  5.740775
H    -2.427368  1.726194  4.151762
H    -0.900115  2.258765  3.468493
H    0.588810  1.788077  5.385492
N    -2.899549  -0.999811  4.723533
C    -3.554976  -2.106957  5.425805
H    -3.298967  -0.072754  4.837371
H    -2.893788  -2.503908  6.205786
H    -3.807750  -2.907756  4.721760
H    -4.471270  -1.729610  5.886371
Ba    0.367970  -3.367529  2.398661
