24
Energy: -249510.6678540  eV PBE+vdW (tier 2 basis)
C    -0.820441  -1.980829  0.268701
C    -0.857763  -1.316391  1.607029
O    -0.728691  -2.001119  2.666007
H    -0.799083  -1.277219  -0.569834
H    -1.718183  -2.610138  0.174824
H    0.048006  -2.647947  0.209231
N    -1.040980  0.013027  1.638191
C    -1.361380  0.882796  2.785100
C    -0.170750  1.070426  3.738298
O    0.217069  0.121127  4.489242
H    -1.185784  0.444759  0.730070
H    -1.586492  1.852848  2.329199
C    -2.626569  0.452301  3.568966
S    -4.087146  0.186767  2.518900
H    -2.838508  1.197665  4.345827
H    -2.462965  -0.505021  4.078736
H    -4.453054  1.486754  2.424308
N    0.414289  2.258058  3.817595
C    0.136857  3.482483  3.054412
H    1.152674  2.315168  4.519393
H    0.175542  3.295265  1.975339
H    0.915833  4.210331  3.297612
H    -0.832744  3.914212  3.331967
Ba    0.193304  -2.286263  4.874603
