24
Energy: -249510.6463846  eV PBE+vdW (tier 2 basis)
C    0.475289  1.433483  0.592700
C    0.317068  0.618050  1.839793
O    1.195870  -0.252952  2.141531
H    1.363175  2.071537  0.713474
H    -0.387984  2.070553  0.375205
H    0.670278  0.778104  -0.265085
N    -0.767550  0.851469  2.580696
C    -1.189923  0.466082  3.925630
C    -0.718892  -0.879411  4.474016
O    -0.524710  -1.902843  3.754159
H    -1.429409  1.560988  2.222062
H    -0.835142  1.250329  4.616300
C    -2.757435  0.474976  3.952108
S    -3.511704  1.920632  3.146660
H    -3.107571  0.388827  4.986724
H    -3.136526  -0.391815  3.394361
H    -3.196936  2.827099  4.104444
N    -0.628359  -0.933072  5.800850
C    -0.385705  -2.148132  6.577187
H    -0.763008  -0.070498  6.322676
H    0.684529  -2.267533  6.793233
H    -0.755379  -3.016342  6.024032
H    -0.924302  -2.072854  7.527117
Ba    1.310323  -2.645679  2.308123
