24
Energy: -249509.6371436  eV PBE+vdW (tier 2 basis)
C    -0.606600  0.602988  0.004148
C    -0.387187  0.478764  1.474028
O    0.321809  1.401395  2.078800
H    -0.907084  1.630116  -0.237665
H    -1.364240  -0.089057  -0.374177
H    0.338075  0.405983  -0.523780
N    -0.861202  -0.501483  2.192204
C    -1.712212  -1.643259  1.845790
C    -2.231907  -2.063917  3.260881
O    -1.689569  -1.540069  4.251972
H    -0.769106  -0.534800  3.247340
H    -2.550821  -1.318018  1.214481
C    -0.908660  -2.755964  1.125524
S    -1.951464  -4.098402  0.455517
H    -0.144245  -3.173206  1.790941
H    -0.389978  -2.320574  0.261692
H    -1.720600  -4.989439  1.446020
N    -3.223772  -2.950790  3.295974
C    -3.805491  -3.472236  4.531067
H    -3.524176  -3.348474  2.405355
H    -4.898199  -3.451444  4.456484
H    -3.481921  -2.845184  5.365763
H    -3.477200  -4.504452  4.708266
Ba    1.481226  3.007710  3.199319
