24
Energy: -249510.7880233  eV PBE+vdW (tier 2 basis)
C    -1.319747  -0.227255  -0.437349
C    -0.885816  -0.511765  0.964273
O    0.066210  -1.314974  1.199747
H    -1.524854  -1.168796  -0.962004
H    -0.484650  0.256620  -0.964893
H    -2.199447  0.421673  -0.499684
N    -1.522107  0.118034  1.964569
C    -1.125278  0.127290  3.382323
C    -1.672892  -1.136737  4.090792
O    -1.186425  -2.265580  3.762926
H    -2.286279  0.738187  1.705427
H    -0.028773  0.027628  3.414536
C    -1.511072  1.492033  3.966940
S    -1.000023  1.606762  5.726169
H    -2.593359  1.668606  3.864959
H    -0.986995  2.262835  3.388295
H    -1.298207  2.919623  5.860837
N    -2.619338  -1.006882  4.999694
C    -3.227322  -2.101005  5.755418
H    -2.833068  -0.056518  5.313639
H    -2.994684  -3.052511  5.273090
H    -4.312805  -1.954722  5.782092
H    -2.843213  -2.101754  6.783803
Ba    0.574143  -3.330793  2.450405
