24
Energy: -249510.7759203  eV PBE+vdW (tier 2 basis)
C    -0.040106  0.505461  0.135252
C    -0.013515  0.452988  1.629757
O    1.052406  0.703387  2.268821
H    0.136464  1.546668  -0.173282
H    -0.987155  0.167590  -0.298347
H    0.782564  -0.091464  -0.277025
N    -1.153841  0.146600  2.267966
C    -1.438084  0.269010  3.709732
C    -0.931155  -0.984576  4.466143
O    0.290169  -1.320222  4.325322
H    -1.956901  -0.059730  1.677761
H    -0.825057  1.103589  4.089128
C    -2.930820  0.660983  3.807263
S    -3.698413  0.816110  5.454170
H    -3.551658  -0.095652  3.302928
H    -3.061683  1.603109  3.259475
H    -2.846680  1.743819  5.954849
N    -1.756435  -1.646786  5.248071
C    -1.399373  -2.830273  6.028891
H    -2.651849  -1.176713  5.459947
H    -0.649718  -3.417772  5.492247
H    -2.300934  -3.432861  6.175592
H    -1.003917  -2.539351  7.011500
Ba    2.517689  -0.527912  3.762838
