24
Energy: -249510.0325741  eV PBE+vdW (tier 2 basis)
C    0.957068  0.926978  0.481387
C    0.248294  -0.198933  1.157881
O    0.725372  -1.394693  1.086911
H    0.459135  1.889832  0.631215
H    1.013335  0.717589  -0.596121
H    1.988168  0.992616  0.853718
N    -0.862914  0.050021  1.818042
C    -1.785906  -0.873549  2.464715
C    -3.071938  0.023446  2.634689
O    -2.945117  1.234998  2.454312
H    -1.286676  1.005151  1.846973
H    -2.000300  -1.721482  1.798911
C    -1.302237  -1.362370  3.848188
S    -0.409809  -2.968724  3.960627
H    -2.137753  -1.460669  4.550022
H    -0.611018  -0.631977  4.287027
H    -1.461949  -3.797544  3.755276
N    -4.229085  -0.566504  2.976050
C    -4.524699  -1.980028  3.171859
H    -4.996919  0.091993  3.099451
H    -3.867974  -2.609254  2.558976
H    -5.552250  -2.175091  2.847070
H    -4.438845  -2.278031  4.227190
Ba    1.588237  -3.510317  1.493305
