24
Energy: -249510.1714251  eV PBE+vdW (tier 2 basis)
C    0.832692  -0.680229  1.542662
C    0.204254  0.624138  1.910706
O    0.915852  1.641010  2.182210
H    1.049757  -0.714521  0.463140
H    0.204271  -1.540296  1.797345
H    1.792446  -0.759205  2.066037
N    -1.140935  0.748213  1.945188
C    -2.026834  0.163567  0.947986
C    -1.820973  0.951044  -0.384187
O    -1.001596  1.920996  -0.439535
H    -1.480487  1.605227  2.383687
H    -1.722105  -0.881469  0.780695
C    -3.482437  0.184238  1.433505
S    -3.539406  -0.674958  3.047390
H    -4.120107  -0.338362  0.709291
H    -3.845629  1.219638  1.520144
H    -4.884978  -0.612281  3.178742
N    -2.512839  0.564647  -1.441281
C    -2.435915  1.194477  -2.763431
H    -3.144587  -0.225440  -1.335553
H    -1.424497  1.096264  -3.175402
H    -2.702850  2.255399  -2.695665
H    -3.142186  0.689373  -3.427061
Ba    0.781184  3.407184  0.477463
