24
Energy: -249510.6679524  eV PBE+vdW (tier 2 basis)
C    -0.536748  1.162609  0.454344
C    -0.276861  0.440268  1.733631
O    0.911346  0.225232  2.136517
H    -0.069474  0.612971  -0.374312
H    -0.054164  2.148766  0.495185
H    -1.603061  1.290223  0.242989
N    -1.320987  0.017799  2.457129
C    -1.190609  -0.536599  3.802820
C    -0.434245  -1.880604  3.785487
O    0.743578  -1.904422  4.270211
H    -2.259996  0.395501  2.256753
H    -0.536498  0.131101  4.385150
C    -2.565637  -0.591116  4.529818
S    -3.707776  0.759701  4.100250
H    -2.390136  -0.620332  5.610657
H    -3.126235  -1.495839  4.274015
H    -3.031068  1.759976  4.715840
N    -0.960553  -2.989901  3.281791
C    -2.241529  -3.220419  2.607132
H    -0.363934  -3.810517  3.392268
H    -2.613576  -2.303094  2.144948
H    -2.986499  -3.620866  3.306820
H    -2.080123  -3.959359  1.814831
Ba    2.706784  -0.643080  3.520724
