24
Energy: -249510.5140719  eV PBE+vdW (tier 2 basis)
C    0.600500  1.423870  1.751796
C    0.017720  0.065407  1.997545
O    0.778710  -0.896330  2.339022
H    1.001865  1.799037  2.704810
H    -0.125449  2.147721  1.367882
H    1.447114  1.352787  1.057829
N    -1.300169  -0.066626  1.831919
C    -2.276176  -1.084299  2.217893
C    -1.864579  -2.547107  2.110106
O    -0.954853  -2.951202  1.321150
H    -1.818171  0.791298  1.575215
H    -2.557012  -0.886804  3.265214
C    -3.551116  -0.881098  1.329938
S    -4.108822  0.862435  1.298806
H    -4.367910  -1.487453  1.733926
H    -3.351117  -1.217162  0.306643
H    -3.899124  1.069163  -0.021354
N    -2.546004  -3.434907  2.834705
C    -3.636796  -3.244694  3.796584
H    -2.311722  -4.403313  2.618321
H    -3.551628  -2.281613  4.308659
H    -3.571745  -4.037129  4.548980
H    -4.614249  -3.312071  3.301870
Ba    1.493728  -2.966912  1.354543
