24
Energy: -249510.0328594  eV PBE+vdW (tier 2 basis)
C    1.200031  0.700611  1.212900
C    0.184265  -0.345798  1.563463
O    0.428547  -1.397735  2.128282
H    1.435488  1.275947  2.120400
H    0.861662  1.397254  0.437072
H    2.125952  0.209749  0.894628
N    -1.152720  -0.063284  1.182052
C    -2.177612  -0.929233  1.718851
C    -2.915008  -1.714277  0.637578
O    -3.941747  -2.418737  0.952560
H    -1.388587  0.894681  0.933197
H    -1.573476  -1.688793  2.271401
C    -3.121167  -0.204780  2.701782
S    -3.710106  -1.351797  4.027513
H    -3.977164  0.264142  2.202490
H    -2.544341  0.565715  3.224793
H    -4.515757  -0.487643  4.693598
N    -2.426919  -1.678686  -0.581319
C    -2.905963  -2.417642  -1.744279
H    -1.599848  -1.083399  -0.678948
H    -2.151273  -3.152541  -2.051344
H    -3.080312  -1.720820  -2.572184
H    -3.838173  -2.929966  -1.496274
Ba    -5.480795  -3.418026  2.432020
