24
Energy: -249510.1218186  eV PBE+vdW (tier 2 basis)
C    -2.766785  0.888850  -0.555204
C    -1.364485  1.095428  -0.082375
O    -0.846037  2.254046  -0.051952
H    -3.476361  1.013907  0.278572
H    -2.922950  -0.101735  -0.995561
H    -3.000899  1.661669  -1.295868
N    -0.631843  0.045801  0.350468
C    -1.171805  -1.028901  1.174669
C    -1.666533  -0.403386  2.508048
O    -1.316460  0.784503  2.811953
H    0.365381  0.228667  0.468407
H    -2.020033  -1.494910  0.650235
C    -0.087938  -2.088652  1.426226
S    0.528965  -2.664527  -0.198709
H    -0.515940  -2.924112  1.990764
H    0.728643  -1.657722  2.025122
H    1.456879  -3.507568  0.311283
N    -2.445542  -1.100676  3.319007
C    -2.989549  -2.452624  3.155525
H    -2.680662  -0.626141  4.191578
H    -4.016795  -2.460011  3.535176
H    -2.396858  -3.177551  3.727769
H    -3.008748  -2.746469  2.102415
Ba    -0.492735  3.065259  2.249072
