24
Energy: -249510.6217052  eV PBE+vdW (tier 2 basis)
C    -0.189664  -0.587555  0.293566
C    -0.259349  0.054360  1.639434
O    0.792718  0.307938  2.299693
H    0.365804  -1.531772  0.366856
H    0.381676  0.067606  -0.379427
H    -1.172713  -0.780238  -0.148210
N    -1.465005  0.372327  2.143347
C    -1.644780  1.145644  3.382275
C    -1.380781  0.263794  4.626587
O    -0.232325  0.348458  5.166692
H    -2.283067  0.185289  1.568285
H    -0.825742  1.876996  3.414547
C    -2.944269  1.963693  3.375956
S    -3.059025  3.049233  4.836305
H    -3.849201  1.355721  3.273728
H    -2.913921  2.641212  2.511757
H    -3.604727  2.142205  5.679519
N    -2.270442  -0.590649  5.112372
C    -3.618281  -0.925537  4.645427
H    -1.950704  -1.080683  5.948331
H    -4.365252  -0.222682  5.036385
H    -3.862623  -1.925889  5.015453
H    -3.664297  -0.953265  3.552935
Ba    2.059972  0.631793  4.364186
