24
Energy: -249509.7376895  eV PBE+vdW (tier 2 basis)
C    -0.231119  0.342549  -0.121536
C    -0.323718  0.104651  1.346041
O    0.705940  0.210808  2.096701
H    -1.190361  0.226194  -0.636340
H    0.494820  -0.360423  -0.554002
H    0.154869  1.354669  -0.304273
N    -1.498703  -0.230913  1.891713
C    -1.587139  -0.532243  3.319333
C    -2.614669  -1.538425  3.887483
O    -2.278587  -1.996084  4.987998
H    -2.312384  -0.305879  1.287674
H    -0.648537  -1.055221  3.543443
C    -1.642603  0.757920  4.186162
S    -0.633831  0.596387  5.712648
H    -2.669539  0.996320  4.489687
H    -1.256203  1.622027  3.632648
H    -1.061736  -0.697042  5.925567
N    -3.776243  -1.849110  3.288565
C    -4.380216  -1.324333  2.066414
H    -4.321384  -2.525613  3.821877
H    -5.439105  -1.599844  2.063843
H    -3.933799  -1.761169  1.160148
H    -4.346881  -0.226234  2.034180
Ba    2.082685  0.337048  4.066551
