24
Energy: -249510.6401896  eV PBE+vdW (tier 2 basis)
C    0.280976  0.825072  0.333790
C    -0.106946  -0.097850  1.440656
O    0.777022  -0.686738  2.141993
H    0.917966  0.290147  -0.383150
H    0.885802  1.642613  0.750663
H    -0.579972  1.249031  -0.192528
N    -1.407066  -0.290549  1.685886
C    -1.933384  -1.027057  2.826982
C    -1.703627  -2.546751  2.670225
O    -0.726803  -3.053721  3.311126
H    -2.126759  0.261766  1.186458
H    -1.307188  -0.779681  3.696134
C    -3.392882  -0.558314  3.181270
S    -4.220594  0.569037  2.008668
H    -3.330579  0.022914  4.107654
H    -4.041258  -1.412315  3.399016
H    -4.876515  -0.360120  1.276321
N    -2.453652  -3.322221  1.899765
C    -3.578006  -2.978669  1.028553
H    -2.193654  -4.308349  1.932260
H    -3.619073  -3.716204  0.220923
H    -3.434604  -1.991532  0.579520
H    -4.529347  -3.012732  1.575390
Ba    1.636143  -2.438779  3.573424
