24
Energy: -249510.3310706  eV PBE+vdW (tier 2 basis)
C    -0.006446  0.451260  0.167569
C    -0.156410  0.228650  1.637705
O    0.716279  0.653715  2.453131
H    -0.344473  1.462768  -0.106819
H    -0.556989  -0.276877  -0.436662
H    1.061136  0.395366  -0.077211
N    -1.235141  -0.433047  2.123300
C    -2.591900  -0.174103  1.651699
C    -3.053539  1.177195  2.290817
O    -2.203051  1.918282  2.890611
H    -1.162398  -0.655886  3.116908
H    -2.542158  -0.015223  0.563061
C    -3.505300  -1.384011  1.935383
S    -5.033631  -1.294019  0.917893
H    -3.773333  -1.434708  2.998198
H    -2.951562  -2.292675  1.670260
H    -5.856672  -1.870759  1.823593
N    -4.318539  1.511719  2.165296
C    -4.912791  2.745426  2.680263
H    -4.924222  0.812443  1.693390
H    -5.954377  2.786359  2.351219
H    -4.379134  3.618889  2.287923
H    -4.883084  2.763379  3.776891
Ba    -0.022246  2.564485  3.834677
