24
Energy: -249510.7724052  eV PBE+vdW (tier 2 basis)
C    -2.143513  -0.034495  -0.338465
C    -1.495093  -0.406609  0.954162
O    -0.545070  -1.246211  0.990133
H    -1.385635  0.423627  -0.990243
H    -2.979209  0.663191  -0.221840
H    -2.496136  -0.940775  -0.847639
N    -1.929725  0.175973  2.083582
C    -1.282480  0.033951  3.400385
C    -1.695109  -1.305203  4.051975
O    -1.019186  -2.344593  3.784517
H    -2.690009  0.847469  2.001719
H    -0.202825  -0.059911  3.218739
C    -1.488994  1.292418  4.254521
S    -0.435866  1.310993  5.742270
H    -2.542715  1.476529  4.513041
H    -1.163932  2.162092  3.666886
H    -1.233445  0.555300  6.531817
N    -2.756554  -1.336235  4.840030
C    -3.283164  -2.527341  5.508880
H    -3.246956  -0.460349  5.003544
H    -4.162888  -2.906919  4.973479
H    -3.574196  -2.262995  6.530938
H    -2.508576  -3.297232  5.536292
Ba    0.543273  -3.133672  2.065274
