24
Energy: -249510.7295063  eV PBE+vdW (tier 2 basis)
C    -0.014682  -0.080438  -0.026666
C    -0.010813  -0.064307  1.468928
O    1.068012  -0.254123  2.107024
H    -0.990076  0.149563  -0.467445
H    0.301193  -1.078026  -0.364468
H    0.729246  0.633703  -0.402657
N    -1.178125  0.152604  2.095583
C    -1.510776  0.057883  3.536630
C    -0.871132  1.184036  4.370447
O    0.377411  1.199427  4.599127
H    -1.978295  0.290287  1.483774
H    -2.598860  0.195968  3.572625
C    -1.231340  -1.331092  4.144253
S    -1.986274  -1.542750  5.788141
H    -0.161273  -1.569203  4.169131
H    -1.707596  -2.088728  3.508455
H    -1.066442  -0.835442  6.486027
N    -1.690956  2.098928  4.861542
C    -1.310708  3.217537  5.722556
H    -2.683620  1.988940  4.667380
H    -0.238756  3.170993  5.924027
H    -1.866675  3.155179  6.665732
H    -1.554349  4.165119  5.226943
Ba    2.554541  0.338113  3.907989
