24
Energy: -249510.2589589  eV PBE+vdW (tier 2 basis)
C    0.041791  -0.246207  0.052569
C    -0.015515  0.009030  1.524989
O    1.036994  0.309663  2.164911
H    -0.742983  0.302126  -0.481470
H    -0.091805  -1.317125  -0.166577
H    1.020758  0.062279  -0.325065
N    -1.184699  -0.071523  2.209908
C    -2.180169  -1.144313  2.064035
C    -1.464364  -2.505341  2.337889
O    -0.254276  -2.520799  2.747238
H    -1.101093  0.286633  3.160426
H    -2.874945  -0.990246  2.903405
C    -3.024098  -1.058739  0.767836
S    -4.528318  -2.095489  0.745615
H    -2.460976  -1.394943  -0.110369
H    -3.299474  -0.009571  0.607183
H    -5.192468  -1.450190  1.736029
N    -2.164198  -3.605590  2.169154
C    -1.670096  -4.959562  2.420250
H    -3.133411  -3.473475  1.821857
H    -2.447755  -5.667606  2.122453
H    -1.451797  -5.097142  3.486525
H    -0.763677  -5.155357  1.835441
Ba    1.904584  -1.591169  3.482219
