24
Energy: -249510.0752780  eV PBE+vdW (tier 2 basis)
C    -0.305636  0.217360  -0.126763
C    -0.233496  0.096480  1.364718
O    0.814129  0.242621  2.008575
H    -0.119148  1.267187  -0.394659
H    -1.269402  -0.086686  -0.549627
H    0.500233  -0.374694  -0.575774
N    -1.406667  -0.190719  2.029707
C    -1.506732  -0.063840  3.483033
C    -0.908882  -1.289512  4.216398
O    -1.603370  -1.986858  5.047152
H    -2.248739  -0.368677  1.491062
H    -0.862433  0.789491  3.761790
C    -2.961775  0.272493  3.826014
S    -3.379602  0.706171  5.561650
H    -3.639528  -0.559722  3.586873
H    -3.270210  1.132205  3.218698
H    -2.355312  1.554324  5.827239
N    0.347548  -1.541075  3.945841
C    1.135177  -2.653836  4.461593
H    0.778173  -0.863794  3.258006
H    1.790437  -2.311069  5.273691
H    1.765068  -3.041211  3.653736
H    0.479808  -3.451303  4.823231
Ba    -2.876650  -2.098977  7.007371
