24
Energy: -249510.0619017  eV PBE+vdW (tier 2 basis)
C    -0.665734  -2.175643  0.168748
C    -0.089190  -1.391583  1.299487
O    0.963494  -1.788903  1.891870
H    -0.843760  -1.520996  -0.695482
H    0.028359  -2.973501  -0.109044
H    -1.629367  -2.630027  0.444932
N    -0.659019  -0.237867  1.721271
C    -2.089557  -0.004273  1.923307
C    -2.589486  -1.026178  2.992363
O    -1.770776  -1.801104  3.581187
H    -0.058801  0.285811  2.356000
H    -2.145264  0.988170  2.395788
C    -2.978978  0.063091  0.652822
S    -2.265347  0.974922  -0.745725
H    -3.943753  0.514720  0.921773
H    -3.199673  -0.936749  0.260379
H    -2.263506  2.197958  -0.163688
N    -3.880422  -1.044565  3.277618
C    -4.497505  -1.912017  4.286100
H    -4.490357  -0.407057  2.772413
H    -5.572560  -1.715685  4.297374
H    -4.083886  -1.697974  5.278773
H    -4.328373  -2.966331  4.038243
Ba    0.482062  -2.730246  4.104883
