24
Energy: -249510.1763755  eV PBE+vdW (tier 2 basis)
C    -0.838212  2.038850  -0.262431
C    0.128304  1.416264  0.689412
O    1.355243  1.743342  0.692468
H    -1.182852  3.014063  0.115618
H    -1.710744  1.404467  -0.451272
H    -0.311606  2.233585  -1.204628
N    -0.292459  0.482249  1.574084
C    -1.515853  0.611607  2.353560
C    -1.215530  1.621353  3.508532
O    -0.091120  2.214404  3.572293
H    0.468639  0.004982  2.058936
H    -2.286349  1.065465  1.713677
C    -2.027962  -0.768106  2.816917
S    -2.585130  -1.817458  1.439060
H    -2.916333  -0.649734  3.450953
H    -1.274961  -1.283874  3.429534
H    -1.357573  -2.222030  1.039244
N    -2.166787  1.848835  4.396635
C    -2.050025  2.779051  5.524272
H    -3.049557  1.356059  4.288915
H    -2.950907  2.692498  6.136936
H    -1.960484  3.810831  5.163156
H    -1.175613  2.526539  6.134464
Ba    2.143388  2.900016  2.721200
