27
Energy: -241645.002675 eV PBE+vdW (tier 2 basis)
N    2.439425  -1.350137  0.968241
C    1.142149  -0.916207  0.350480
C    1.131270  0.634418  0.249185
O    2.297421  1.185032  0.099493
H    2.323281  -1.322511  1.988262
H    2.577070  -2.344738  0.764214
H    1.173573  -1.272912  -0.693696
C    -0.102760  -1.496832  1.058123
C    -1.281806  -1.952643  0.173991
C    -1.942245  -0.953166  -0.773685
N    -2.388026  0.319259  -0.090945
C    -3.338237  0.132318  1.095638
N    -4.391239  -0.555858  1.065656
N    -2.838256  0.760023  2.198946
H    -0.448481  -0.784568  1.821273
H    0.208906  -2.394589  1.611524
H    -2.048287  -2.369444  0.842447
H    -0.960691  -2.792290  -0.461544
H    -2.815395  -1.412201  -1.252585
H    -1.266889  -0.622163  -1.574134
H    -2.862023  0.920726  -0.776995
H    -4.614049  -1.036188  0.194079
H    -2.252148  1.581608  2.093410
H    -3.472133  0.783915  2.994202
O    0.074287  1.271171  0.287116
H    -1.478232  0.798559  0.187802
Ba    4.490951  0.481215  0.312396
