27
Energy: -241645.642359 eV PBE+vdW (tier 2 basis)
N    -0.470482  0.913355  0.732022
C    -0.063724  -0.131279  1.670566
C    1.410017  -0.471346  1.485594
O    2.174880  0.149160  0.738122
H    0.034946  1.780733  0.921151
H    -1.457471  1.131517  0.885071
H    -0.100664  0.207792  2.729904
C    -1.007206  -1.366755  1.607161
C    -1.434532  -1.917353  0.234388
C    -0.341324  -2.296073  -0.770354
N    0.135301  -1.107053  -1.483701
C    1.377776  -0.893997  -1.914937
N    2.397816  -1.725370  -1.952910
N    1.724298  0.441322  -2.274294
H    -1.921363  -1.089412  2.150701
H    -0.577817  -2.187286  2.204824
H    -2.136499  -1.224497  -0.254335
H    -2.028286  -2.819952  0.433140
H    -0.743579  -3.016553  -1.496864
H    0.514324  -2.782579  -0.273781
H    -0.477822  -0.295101  -1.427168
H    2.145950  -2.707011  -1.826337
H    1.892027  0.523979  -3.279557
H    1.037868  1.138183  -1.980817
O    1.936275  -1.459677  2.204128
H    1.279361  -1.882248  2.792725
Ba    4.138564  -0.143896  -0.897983
