27
Energy: -241645.120443 eV PBE+vdW (tier 2 basis)
N    -0.967803  -0.069070  -0.283846
C    -0.144481  -0.372078  0.913817
C    1.317375  -0.525377  0.504530
O    1.706978  -1.179414  -0.459352
H    -0.709186  0.860292  -0.630455
H    -1.937712  0.032697  0.029689
H    -0.186359  0.456002  1.637020
C    -0.645779  -1.631304  1.664621
C    -0.341624  -3.050656  1.143999
C    -0.927749  -3.471201  -0.208789
N    -0.009424  -3.149286  -1.358368
C    -0.695021  -2.829176  -2.584913
N    -0.720286  -3.820928  -3.453296
N    -1.176258  -1.600654  -2.686045
H    -1.735108  -1.516613  1.783815
H    -0.238439  -1.574192  2.683587
H    -0.754589  -3.735834  1.897983
H    0.744047  -3.241084  1.149036
H    -1.911684  -3.006626  -0.370110
H    -1.113905  -4.562078  -0.201608
H    0.600170  -2.342230  -1.078174
H    -1.235529  -3.628506  -4.314669
H    -1.649665  -1.283297  -3.527286
H    -1.096345  -0.969759  -1.841964
O    2.134078  0.107473  1.341291
H    3.063536  -0.038319  1.066145
Ba    0.947566  -5.412373  -2.467288
