27
Energy: -241644.909906 eV PBE+vdW (tier 2 basis)
N    -0.367466  1.518410  1.131842
C    -0.017864  0.400635  2.026868
C    1.337903  -0.159106  1.572798
O    1.871965  0.159455  0.527300
H    -1.215565  1.978619  1.469344
H    0.372610  2.223274  1.138443
H    0.100211  0.740615  3.072122
C    -1.131279  -0.681122  2.025417
C    -1.285342  -1.592835  0.793363
C    -1.775112  -0.949149  -0.516328
N    -0.760460  -0.053627  -1.081611
C    0.038736  -0.272909  -2.106830
N    1.206220  0.315607  -2.330142
N    -0.340808  -1.164271  -3.185922
H    -2.084065  -0.168279  2.232630
H    -0.970155  -1.333745  2.895636
H    -2.024665  -2.363507  1.056351
H    -0.345592  -2.133357  0.596862
H    -2.689409  -0.363307  -0.343775
H    -2.029542  -1.738016  -1.235414
H    -0.491761  0.710549  -0.376432
H    1.582335  0.749235  -1.477471
H    -1.355081  -1.217349  -3.309006
H    -0.018179  -2.117796  -2.992941
O    1.928727  -1.058907  2.373136
H    1.448970  -1.177550  3.213946
Ba    1.694196  0.118673  -4.733357
