27
Energy: -241644.475034 eV PBE+vdW (tier 2 basis)
N    0.359652  0.790823  1.095831
C    -0.132917  -0.083155  2.242437
C    1.313951  0.162047  2.024379
O    2.102028  0.929609  2.777804
H    0.354256  0.246792  0.225108
H    -0.924237  2.535138  1.241203
H    -0.553612  0.535042  3.041816
C    -0.885779  -1.379533  2.012063
C    -2.421425  -1.241474  2.092773
C    -3.123899  -0.544981  0.918026
N    -2.657236  0.825083  0.653993
C    -2.851268  1.906055  1.429132
N    -1.879219  2.824098  1.482605
N    -3.983427  2.048890  2.132019
H    -0.585248  -2.096338  2.792822
H    -0.603439  -1.836943  1.046445
H    -2.684106  -0.731741  3.032792
H    -2.859859  -2.247098  2.166606
H    -4.209121  -0.544091  1.084400
H    -2.969908  -1.097999  -0.017561
H    -1.861783  0.913012  0.031427
H    -2.052689  3.769828  1.801513
H    -4.089169  2.801816  2.801074
H    -4.820934  1.540585  1.873892
O    2.157084  -0.904327  1.479416
H    1.649709  -1.704612  1.262335
Ba    4.255938  0.177429  2.803954
