27
Energy: -241645.356277 eV PBE+vdW (tier 2 basis)
N    0.819184  1.004410  2.283193
C    0.814109  -0.217713  3.042071
C    2.202721  -0.829805  3.163191
O    2.394685  -1.881056  3.811795
H    -0.116193  1.312606  2.026299
H    1.303428  1.776865  2.737650
H    0.523470  -0.104274  4.114193
C    -0.161600  -1.238792  2.392834
C    -1.593517  -1.216753  2.952229
C    -1.908562  -2.239502  4.040746
N    -1.097036  -2.042244  5.295654
C    -1.505245  -2.881844  6.381876
N    -0.925340  -4.053155  6.408267
N    -2.387070  -2.385592  7.262350
H    0.244801  -2.262215  2.454896
H    -0.169182  -1.007258  1.318586
H    -2.301068  -1.425656  2.137547
H    -1.853722  -0.204270  3.302322
H    -1.713944  -3.260329  3.674580
H    -2.982854  -2.198336  4.279496
H    -1.148468  -1.057207  5.567727
H    -1.299497  -4.692183  7.113438
H    -2.662864  -2.910982  8.086999
H    -2.893540  -1.524559  7.086842
O    3.171950  -0.169816  2.583929
H    4.034268  -0.614324  2.731914
Ba    1.284446  -3.787528  5.044630
