27
Energy: -241645.185943 eV PBE+vdW (tier 2 basis)
N    -0.122914  0.533083  -0.471593
C    0.029817  0.110057  0.958554
C    1.354285  -0.681034  1.120321
O    2.321923  -0.283279  0.348885
H    -0.492337  -0.260549  -1.007559
H    -0.866831  1.236349  -0.521366
H    0.200441  1.039286  1.529409
C    -1.192305  -0.579295  1.575645
C    -1.547578  -1.984772  1.026607
C    -1.677657  -3.058476  2.103728
N    -0.333131  -3.422125  2.696781
C    0.325792  -4.652342  2.098820
N    -0.307039  -5.216933  1.164619
N    1.475717  -4.933380  2.765629
H    -2.055962  0.092297  1.469685
H    -1.010552  -0.624317  2.659568
H    -0.819904  -2.335467  0.276624
H    -2.512209  -1.953728  0.504011
H    -2.088715  -3.985459  1.691344
H    -2.306728  -2.716258  2.934438
H    -0.425231  -3.583748  3.707271
H    0.155834  -6.039597  0.771926
H    2.030669  -5.723613  2.455909
H    1.984843  -4.215979  3.271549
O    1.466610  -1.578777  1.960293
H    0.340656  -2.603863  2.546634
Ba    2.441192  1.189179  -1.439358
