27
Energy: -241645.328127 eV PBE+vdW (tier 2 basis)
N    0.587273  1.494178  2.205423
C    0.247565  0.179762  2.697892
C    1.458369  -0.353856  3.466999
O    2.530332  0.258954  3.499468
H    -0.461617  -2.251524  -3.407868
H    -0.250545  1.932997  1.814625
H    -0.578751  0.206202  3.446222
C    -0.193479  -0.858569  1.614659
C    -1.512711  -0.457825  0.938021
C    -2.210199  -1.569841  0.149363
N    -1.470049  -1.957131  -1.060837
C    -1.981035  -2.664645  -2.078648
N    -1.269294  -2.826613  -3.204938
N    -3.203303  -3.201529  -1.986955
H    -0.322983  -1.852777  2.077175
H    0.627028  -0.948289  0.884373
H    -1.367034  0.415710  0.285431
H    -2.231376  -0.147622  1.712365
H    -3.202119  -1.211917  -0.162343
H    -2.351867  -2.451433  0.797679
H    -0.472797  -1.773234  -1.084281
H    -1.546734  -3.497375  -3.911491
H    -3.667084  -3.591429  -2.799024
H    -3.682721  -3.282562  -1.099481
O    1.380149  -1.496976  4.137403
H    0.483886  -1.879682  4.098001
Ba    2.638640  2.654271  2.648824
