27
Energy: -241645.576521 eV PBE+vdW (tier 2 basis)
N    0.371103  -0.229198  -0.173455
C    -0.060896  0.042659  1.181547
C    1.078514  -0.048147  2.197858
O    1.460617  0.917199  2.897705
H    1.128267  0.367029  -0.502693
H    0.616838  -1.205998  -0.333983
H    -0.395387  1.089772  1.223536
C    -1.224961  -0.898347  1.557596
C    -1.884010  -0.674686  2.927808
C    -2.996610  0.383094  2.983188
N    -2.588747  1.747873  2.601437
C    -1.768160  2.527144  3.317362
N    -1.265534  2.296314  4.508173
N    -1.253882  3.702243  2.698334
H    -0.848723  -1.930557  1.509791
H    -1.963183  -0.807636  0.747239
H    -1.123663  -0.478515  3.701335
H    -2.361790  -1.613782  3.240360
H    -3.449549  0.408116  3.986103
H    -3.803926  0.110119  2.293023
H    -3.035717  2.150596  1.783395
H    -1.721476  1.531116  5.007846
H    -1.444098  3.777752  1.698315
H    -1.593188  4.547336  3.163996
O    1.672790  -1.222477  2.251132
H    2.437877  -1.209165  2.862568
Ba    1.187380  3.029545  4.216421
