27
Energy: -241644.836031 eV PBE+vdW (tier 2 basis)
N    0.703916  0.358249  -0.434491
C    0.346075  0.257926  0.959740
C    1.288697  -0.553952  1.858231
O    1.565658  -0.258534  3.030842
H    0.648466  -0.533263  -0.925871
H    1.628626  0.756148  -0.587719
H    0.371751  1.277468  1.379981
C    -1.095821  -0.303351  1.072383
C    -1.683981  -0.384518  2.485316
C    -1.966338  0.994750  3.117722
N    -1.861877  0.974049  4.587242
C    -0.737279  1.108099  5.293011
N    -0.560746  0.837075  6.572299
N    0.450963  1.613416  4.658025
H    -1.109682  -1.309731  0.628691
H    -1.715828  0.327472  0.419233
H    -1.007921  -0.948477  3.145725
H    -2.616296  -0.963674  2.450411
H    -2.974259  1.348933  2.872207
H    -1.276864  1.757334  2.735423
H    -2.679976  0.635598  5.091260
H    -1.367218  0.421139  7.042709
H    0.244183  2.460919  4.121629
H    0.844027  0.912373  3.955341
O    1.789717  -1.632073  1.268586
H    2.372327  -2.110506  1.892861
Ba    1.819849  1.519935  7.022360
