27
Energy: -241643.651158 eV PBE+vdW (tier 2 basis)
N    1.067162  0.193000  -0.130019
C    0.477985  -0.105453  1.213067
C    1.567843  0.085222  2.267822
O    2.623232  0.698708  2.002012
H    1.318941  -0.705511  -0.561154
H    0.315380  0.545211  -0.730152
H    -0.257666  0.691056  1.426589
C    -0.230448  -1.476725  1.295890
C    -1.411546  -1.667122  0.334087
C    -2.602006  -0.706486  0.575333
N    -3.851186  -1.156829  0.016944
C    -4.548993  -2.228799  0.588819
N    -4.294665  -2.817501  1.709799
N    -5.593991  -2.674968  -0.190993
H    -0.622619  -1.615355  2.319551
H    0.517424  -2.272664  1.146094
H    -1.769467  -2.697346  0.470799
H    -1.084020  -1.610484  -0.716768
H    -2.398788  0.294773  0.161944
H    -2.745682  -0.562835  1.660387
H    -3.970131  -1.037815  -0.984114
H    -3.464251  -2.455340  2.180886
H    -6.169557  -3.370766  0.273669
H    -6.122915  -1.989353  -0.720078
O    1.407328  -0.345715  3.491269
H    0.574946  -0.847375  3.613097
Ba    3.453965  1.744767  -0.016118
