27
Energy: -241645.507856 eV PBE+vdW (tier 2 basis)
N    0.408918  0.423566  0.521467
C    0.163493  0.181223  1.919112
C    1.460742  0.156282  2.713704
O    1.483189  0.269065  3.962664
H    0.693423  1.378733  0.312758
H    -0.392923  0.188943  -0.059762
H    -0.448119  0.954854  2.432232
C    -0.564901  -1.192141  2.055521
C    -0.884244  -1.705754  3.463258
C    -1.845451  -0.813179  4.250931
N    -1.804204  -1.132586  5.714937
C    -2.433651  -0.182121  6.570779
N    -1.733380  0.905058  6.778426
N    -3.615121  -0.510294  7.113696
H    0.037016  -1.940178  1.521911
H    -1.500232  -1.086871  1.484714
H    0.049113  -1.853078  4.033516
H    -1.314712  -2.713184  3.365306
H    -2.870630  -0.913121  3.861511
H    -1.582425  0.249182  4.153824
H    -2.140950  -2.082572  5.884642
H    -2.230990  1.636088  7.290297
H    -4.056212  0.080979  7.811943
H    -4.161248  -1.295860  6.776634
O    2.554511  0.000978  2.010643
H    3.343514  -0.006148  2.592712
Ba    0.737013  0.193765  6.355820
