27
Energy: -241645.201511 eV PBE+vdW (tier 2 basis)
N    1.449355  0.580588  0.797283
C    1.208842  -0.164185  2.013521
C    2.470281  -0.987837  2.272229
O    3.245917  -1.292373  1.362248
H    0.695154  1.260466  0.668288
H    -5.040214  -0.272696  2.560539
H    1.064991  0.491495  2.901684
C    -0.034883  -1.116753  1.899446
C    -0.533960  -1.840768  3.162865
C    -1.401230  -1.017216  4.123184
N    -2.756169  -0.836274  3.578777
C    -3.716588  -0.076986  4.127360
N    -4.895843  0.063363  3.504571
N    -3.494767  0.568704  5.279207
H    0.198806  -1.860055  1.124192
H    -0.837700  -0.492050  1.478362
H    0.303157  -2.255450  3.743156
H    -1.104434  -2.735111  2.864294
H    -0.963855  -0.021647  4.297962
H    -1.459906  -1.542001  5.090706
H    -3.045421  -1.488327  2.855817
H    -5.697905  0.463159  3.977050
H    -4.166228  1.234595  5.643115
H    -2.725212  0.315697  5.885617
O    2.761235  -1.406498  3.501997
H    2.148197  -1.022828  4.155168
Ba    3.260641  0.199881  -0.720329
