27
Energy: -241644.624509 eV PBE+vdW (tier 2 basis)
N    -1.160658  2.116335  -0.089034
C    -0.504040  1.523720  1.068799
C    0.977815  1.309505  0.769954
O    1.676725  0.398583  1.222375
H    -0.666403  2.939949  -0.430538
H    -2.110032  2.404739  0.145799
H    -0.485607  2.193103  1.964170
C    -1.226135  0.208731  1.454114
C    -1.437874  -0.075325  2.949544
C    -0.182352  -0.213191  3.825696
N    0.813885  -1.112505  3.230802
C    1.158049  -2.333181  3.570334
N    2.010071  -3.129274  2.932055
N    0.639940  -2.963123  4.778018
H    -0.731238  -0.639385  0.959229
H    -2.221307  0.257581  0.994032
H    -2.034531  -0.996466  3.035913
H    -2.047142  0.723200  3.399948
H    -0.458489  -0.549387  4.833273
H    0.319976  0.757595  3.942893
H    1.240525  -0.671378  2.367531
H    2.356540  -2.735740  2.053565
H    0.630924  -2.303668  5.562060
H    -0.339932  -3.233682  4.639842
O    1.485408  2.251513  -0.017526
H    2.439288  2.078325  -0.153357
Ba    2.503611  -5.062061  4.407607
