27
Energy: -241646.46808 eV PBE+vdW (tier 2 basis)
N    -0.752280  1.352022  1.145946
C    -0.911384  0.242238  2.179566
C    0.513447  -0.286002  2.436046
O    0.668279  -1.152635  3.340395
H    -1.318688  1.197322  0.303251
H    -0.984202  2.279551  1.520081
H    -1.275099  0.705606  3.105890
C    -1.907428  -0.837460  1.729314
C    -1.552459  -1.617746  0.435913
C    -1.209253  -3.105794  0.629529
N    0.039475  -3.316048  1.353330
C    1.142784  -3.987023  0.937439
N    2.308189  -3.725670  1.533814
N    1.012561  -4.865487  -0.083304
H    -2.890534  -0.356461  1.625509
H    -2.022140  -1.518347  2.584729
H    -0.717829  -1.147277  -0.110035
H    -2.414147  -1.582198  -0.243976
H    -1.119088  -3.561146  -0.363504
H    -2.036037  -3.617010  1.146540
H    0.121504  -2.884866  2.270341
H    2.982015  -4.465712  1.319751
H    1.833810  -5.316348  -0.466764
H    0.123869  -5.304978  -0.291147
O    1.449518  0.165001  1.699165
H    0.269294  1.318914  0.897578
Ba    3.169804  -1.644465  2.771810
