27
Energy: -241645.669418 eV PBE+vdW (tier 2 basis)
N    -1.620940  -0.024732  0.185751
C    -0.374214  -0.410184  0.867183
C    0.751098  -0.624518  -0.132317
O    0.677312  -0.427588  -1.356230
H    -2.362444  0.020392  0.888607
H    -1.543995  0.928939  -0.175923
H    0.008500  0.414326  1.500782
C    -0.597381  -1.597955  1.842274
C    -0.683662  -3.045663  1.332488
C    -1.696486  -3.406282  0.224854
N    -1.057521  -3.497942  -1.097353
C    -1.261891  -2.780365  -2.210334
N    -0.677358  -2.970620  -3.378504
N    -2.063265  -1.612560  -2.166706
H    -1.513358  -1.350784  2.400987
H    0.208065  -1.567023  2.587244
H    -0.926218  -3.653717  2.214722
H    0.313655  -3.392945  1.021007
H    -2.531670  -2.700141  0.168737
H    -2.134998  -4.390753  0.435346
H    -0.387538  -4.258861  -1.191031
H    -0.191509  -3.865357  -3.474425
H    -2.972689  -1.754441  -2.609045
H    -2.126539  -1.145787  -1.231904
O    1.870760  -1.002353  0.460616
H    2.607428  -1.052958  -0.182270
Ba    -0.136006  -0.508809  -3.825801
