27
Energy: -241645.32124 eV PBE+vdW (tier 2 basis)
N    0.985083  -1.361886  0.472982
C    0.514960  -0.972015  1.782201
C    1.677671  -1.153360  2.761108
O    2.720463  -1.727284  2.432580
H    -5.130116  2.686094  1.163918
H    0.286513  -1.106583  -0.229316
H    0.251637  0.109401  1.839076
C    -0.703576  -1.795306  2.318713
C    -2.000421  -1.653193  1.510720
C    -2.733753  -0.323146  1.714890
N    -4.036494  -0.366553  1.036756
C    -4.862619  0.672888  0.853323
N    -4.585300  1.864683  1.398284
N    -5.961040  0.528091  0.098227
H    -0.912015  -1.546098  3.373779
H    -0.408928  -2.854007  2.303727
H    -2.671466  -2.469097  1.822922
H    -1.799138  -1.807967  0.439415
H    -2.154891  0.517101  1.301690
H    -2.879794  -0.146209  2.794382
H    -4.394453  -1.286112  0.796430
H    -3.914297  1.956796  2.149678
H    -6.699821  1.221270  0.102190
H    -6.102846  -0.291255  -0.479653
O    1.589482  -0.698471  4.005110
H    0.743804  -0.240314  4.164059
Ba    3.138659  -2.311014  -0.003553
