27
Energy: -241646.216185 eV PBE+vdW (tier 2 basis)
N    0.141573  0.340637  -0.002117
C    -0.112937  0.117049  1.484864
C    1.276857  0.227904  2.149745
O    1.353125  0.151302  3.401532
H    -0.198913  -0.431456  -0.586295
H    -0.280806  1.209506  -0.350396
H    -0.725020  0.959700  1.828852
C    -0.861287  -1.205141  1.788590
C    -0.028259  -2.446995  2.140302
C    0.835826  -3.072409  1.028910
N    1.806304  -4.022804  1.567048
C    2.924301  -3.649994  2.247151
N    3.468492  -2.441543  2.135955
N    3.473319  -4.549989  3.096720
H    -1.558884  -1.408789  0.959469
H    -1.507495  -0.996681  2.650680
H    -0.726407  -3.213262  2.504898
H    0.615798  -2.202499  2.995681
H    1.375806  -2.310475  0.443196
H    0.216183  -3.617897  0.305651
H    1.545823  -5.003401  1.569400
H    3.121065  -2.008117  1.274688
H    4.466198  -4.489247  3.286101
H    3.034693  -5.446316  3.271826
O    2.282135  0.346832  1.367985
H    1.192295  0.413474  -0.061259
Ba    3.905845  -0.287413  3.459762
