27
Energy: -241646.336249 eV PBE+vdW (tier 2 basis)
N    0.733126  -0.095639  0.363210
C    -0.351715  0.051920  1.423220
C    0.430826  0.317724  2.730705
O    1.553361  -0.284748  2.837900
H    1.542617  -0.521670  0.866344
H    0.443629  -0.692523  -0.422772
H    -0.973875  0.915506  1.160340
C    -1.165880  -1.257954  1.450091
C    -2.493134  -1.273451  2.230508
C    -2.441620  -1.168246  3.762071
N    -1.492284  -2.112878  4.355759
C    -0.644063  -1.797254  5.360423
N    -0.657582  -0.717505  6.104509
N    0.483762  -2.613426  5.535179
H    -0.505410  -2.068706  1.796373
H    -1.428629  -1.495506  0.406386
H    -2.999082  -2.210316  1.953077
H    -3.153050  -0.470510  1.871063
H    -3.452858  -1.334060  4.160925
H    -2.128651  -0.162001  4.063004
H    -1.563328  -3.088643  4.078996
H    -1.548113  -0.217910  6.077889
H    0.625791  -2.902881  6.502090
H    0.592656  -3.392755  4.889834
O    -0.073512  1.057080  3.609957
H    1.034693  0.811310  -0.016595
Ba    1.647324  0.293043  5.467517
