27
Energy: -241645.615002 eV PBE+vdW (tier 2 basis)
N    -0.602718  -1.267376  -0.519208
C    -0.635480  -1.080672  0.959421
C    -0.003513  0.292224  1.217341
O    -0.393405  1.246238  0.535667
H    -0.982876  -2.190866  -0.739809
H    0.368987  -1.292635  -0.844197
H    -1.688906  -0.865872  1.207712
C    -0.258904  -2.286932  1.815863
C    -1.221751  -3.485718  1.623745
C    -2.741191  -3.179826  1.630340
N    -3.306753  -2.931701  0.289141
C    -3.676815  -1.753777  -0.263142
N    -3.765946  -0.570515  0.302884
N    -3.852894  -1.734887  -1.659988
H    -0.307956  -1.984010  2.875458
H    0.770624  -2.622939  1.618773
H    -1.019615  -4.199862  2.432651
H    -0.977653  -4.031834  0.699487
H    -2.990531  -2.339739  2.292575
H    -3.278050  -4.044136  2.039337
H    -3.515792  -3.770677  -0.246187
H    -3.856104  -0.604240  1.320020
H    -4.759996  -1.354367  -1.931407
H    -3.668863  -2.606048  -2.155678
O    0.889234  0.490167  2.161383
H    1.142459  -0.333365  2.623248
Ba    -2.254840  0.942451  -1.280933
