27
Energy: -241646.225421 eV PBE+vdW (tier 2 basis)
N    2.221786  -1.264899  1.811815
C    0.924101  -0.918940  2.479158
C    1.129955  -0.929208  4.022153
O    2.302448  -0.445376  4.391910
H    2.313760  -2.287460  1.812121
H    2.158211  -1.021001  0.818856
H    0.718760  0.133111  2.217083
C    -0.251559  -1.788386  2.004082
C    -1.646199  -1.306153  2.478571
C    -2.322758  -2.325999  3.407218
N    -3.522480  -1.808389  4.075011
C    -4.791897  -1.968764  3.687765
N    -5.790806  -1.648081  4.525534
N    -5.088383  -2.450557  2.472302
H    -0.076509  -2.823632  2.339269
H    -0.232170  -1.815356  0.905438
H    -2.284231  -1.096000  1.607843
H    -1.554372  -0.357411  3.024735
H    -1.618102  -2.596240  4.202282
H    -2.589565  -3.251233  2.876637
H    -3.367838  -1.276425  4.926039
H    -6.744573  -1.556671  4.197914
H    -4.383532  -2.536261  1.752951
H    -6.020778  -2.778812  2.253052
O    0.264612  -1.327365  4.779485
H    -5.625066  -1.503176  5.513773
Ba    4.317978  -0.184255  3.379264
