27
Energy: -241644.688206 eV PBE+vdW (tier 2 basis)
N    -0.215274  0.354573  0.310487
C    0.027805  -0.050497  1.697455
C    1.460630  -0.544973  1.849994
O    2.156205  -0.939306  0.901483
H    -1.197248  0.625063  0.210553
H    0.325502  1.191058  0.077538
H    -0.085835  0.787983  2.411358
C    -1.000619  -1.138346  2.136103
C    -1.213521  -2.332712  1.192556
C    -0.039634  -3.331234  1.111525
N    0.520474  -3.651440  -0.259539
C    -0.007846  -3.087703  -1.478197
N    -0.484703  -3.903960  -2.325880
N    0.372384  -1.730451  -1.662850
H    -1.960269  -0.614503  2.254885
H    -0.741907  -1.493918  3.144879
H    -1.507246  -1.984626  0.193822
H    -2.097935  -2.868753  1.559742
H    -0.356645  -4.294267  1.526464
H    0.792373  -3.001979  1.748157
H    0.411739  -4.658763  -0.405531
H    -0.733429  -3.496761  -3.232802
H    0.126078  -1.043938  -0.899039
H    0.022690  -1.364322  -2.549645
O    1.993769  -0.587776  3.055611
H    1.411014  -0.208135  3.743998
Ba    2.944365  -2.467291  -0.906264
