27
Energy: -241644.705892 eV PBE+vdW (tier 2 basis)
N    0.707371  -1.150005  0.233120
C    0.103621  -0.425302  1.364106
C    1.298294  0.017587  2.210876
O    1.790300  -0.587754  3.160397
H    1.216630  -0.507901  -0.376354
H    -0.027032  -1.568676  -0.340234
H    -0.433758  0.495201  1.066702
C    -0.883611  -1.354742  2.080044
C    -1.631699  -0.770480  3.292368
C    -0.999253  -0.996665  4.671789
N    -0.955609  -2.418525  5.069551
C    0.106658  -3.220319  5.001948
N    1.295605  -2.966226  4.514404
N    -0.003541  -4.551091  5.578209
H    -0.372289  -2.297416  2.328301
H    -1.632832  -1.626527  1.322398
H    -2.653246  -1.177325  3.315957
H    -1.761816  0.316302  3.174208
H    -1.590919  -0.481232  5.439719
H    0.022213  -0.605751  4.728568
H    -1.832842  -2.827311  5.383363
H    1.397951  -2.069450  3.984686
H    -0.598311  -4.569581  6.411503
H    -0.426858  -5.197808  4.904538
O    1.807880  1.162455  1.753409
H    2.610268  1.388390  2.267391
Ba    2.854050  -4.671051  5.395114
