27
Energy: -241646.284855 eV PBE+vdW (tier 2 basis)
N    0.583867  0.706157  0.015258
C    1.088405  -0.026120  1.221064
C    1.796877  -1.181218  0.501658
O    1.072988  -2.089745  -0.027931
H    -0.422356  0.562788  -0.087101
H    0.737696  1.710338  0.106289
H    1.852297  0.595113  1.705078
C    0.005113  -0.442407  2.215733
C    0.571357  -1.242335  3.397838
C    -0.489065  -1.772179  4.373021
N    -1.172862  -0.742668  5.170384
C    -0.862800  -0.379959  6.422812
N    -1.729097  0.356918  7.135115
N    0.303367  -0.737369  6.975898
H    -0.741933  -1.056665  1.686655
H    -0.504629  0.467594  2.570507
H    1.314656  -0.636227  3.940836
H    1.110723  -2.124150  3.018531
H    -0.047143  -2.499373  5.067597
H    -1.271128  -2.316739  3.826513
H    -1.993514  -0.305417  4.765218
H    -2.704900  0.426208  6.873217
H    0.454138  -0.657229  7.974437
H    1.054680  -1.130625  6.424968
O    3.002070  -0.989957  0.130010
H    -1.452007  0.805019  8.000357
Ba    2.091174  -1.226525  -2.145691
