27
Energy: -241645.943704 eV PBE+vdW (tier 2 basis)
N    1.038239  -1.191815  -0.379949
C    0.757538  -0.335480  0.797957
C    1.882740  -0.517628  1.819998
O    2.552769  -1.554476  1.862180
H    0.144703  -1.450864  -0.813315
H    1.549305  -0.647265  -1.079734
H    0.710493  0.728293  0.511726
C    -0.597922  -0.701833  1.454347
C    -0.767517  -2.176027  1.882215
C    -1.775575  -2.998206  1.073861
N    -1.592529  -3.016005  -0.395158
C    -0.996316  -4.081219  -1.033737
N    0.131783  -4.590165  -0.556475
N    -1.595669  -4.509046  -2.166521
H    -1.382548  -0.414827  0.738821
H    -0.743661  -0.043553  2.320997
H    -1.106614  -2.214360  2.926668
H    0.203984  -2.695621  1.910611
H    -2.780647  -2.593557  1.250556
H    -1.779286  -4.031374  1.446287
H    -2.380363  -2.626280  -0.904646
H    0.288330  -5.508574  -0.985225
H    -1.138112  -5.176034  -2.776864
H    -2.572830  -4.319909  -2.360587
O    2.111330  0.418983  2.717930
H    1.568094  1.220846  2.587683
Ba    2.381362  -3.598916  0.346260
