27
Energy: -241645.325291 eV PBE+vdW (tier 2 basis)
N    0.698152  0.279592  0.473303
C    0.603167  0.711875  1.850368
C    2.015691  0.714903  2.436201
O    2.997002  0.348052  1.781638
H    -4.818293  -2.219953  2.943903
H    -0.222073  0.381907  0.035611
H    0.264101  1.768844  1.939892
C    -0.376932  -0.104537  2.754985
C    -0.043527  -1.594791  2.872655
C    -0.903560  -2.370102  3.874939
N    -2.311996  -2.448000  3.457262
C    -3.334578  -2.795939  4.252972
N    -4.593254  -2.720255  3.794582
N    -3.112175  -3.197183  5.510298
H    -1.381482  0.042616  2.331025
H    -0.422253  0.347671  3.761681
H    0.996789  -1.724535  3.209901
H    -0.095410  -2.072237  1.882146
H    -0.869019  -1.874522  4.857071
H    -0.493225  -3.386436  3.990140
H    -2.501431  -2.413146  2.460481
H    -5.362439  -3.152895  4.292063
H    -3.875806  -3.309660  6.166806
H    -2.193607  -3.489849  5.818314
O    2.222775  1.129850  3.681362
H    1.399565  1.453039  4.093350
Ba    2.744748  -0.059248  -0.724438
