27
Energy: -241644.67854 eV PBE+vdW (tier 2 basis)
N    -0.379995  0.379035  0.140068
C    0.207582  -0.200055  1.325136
C    1.696258  -0.570215  1.256562
O    2.425250  -0.733616  2.241849
H    0.079500  1.241061  -0.148221
H    -0.380113  -0.258182  -0.655879
H    0.150524  0.551056  2.130850
C    -0.651887  -1.413223  1.773119
C    -0.431200  -1.900930  3.216076
C    0.534246  -3.089791  3.340219
N    0.948784  -3.316931  4.736493
C    2.041867  -2.848195  5.332841
N    2.391290  -3.004999  6.600391
N    2.982041  -2.049452  4.598416
H    -0.535242  -2.240583  1.054778
H    -1.685914  -1.064282  1.661583
H    -1.397292  -2.191683  3.651960
H    -0.058399  -1.067794  3.832098
H    1.436722  -2.949458  2.736304
H    0.060979  -4.017277  2.993006
H    0.276932  -3.799094  5.331864
H    1.790961  -3.632317  7.139787
H    2.574548  -1.491333  3.812326
H    3.676343  -2.660283  4.153387
O    2.156940  -0.697028  0.013258
H    3.109246  -0.920652  0.046157
Ba    4.074863  -1.188106  6.998934
