27
Energy: -241644.494145 eV PBE+vdW (tier 2 basis)
N    -0.397218  -0.169482  -0.106509
C    -0.253444  -0.113855  1.333034
C    1.196911  0.123617  1.742475
O    1.584487  0.192515  2.911343
H    -1.373982  -0.105187  -0.388198
H    0.123131  0.560463  -0.589000
H    -0.791971  0.729635  1.824613
C    -0.843851  -1.432091  1.911091
C    -1.060598  -1.504571  3.436195
C    0.094741  -2.180856  4.174972
N    0.005917  -2.006111  5.656000
C    0.197787  -0.699596  6.227415
N    -0.291887  -0.629163  7.457863
N    0.759229  0.261255  5.514357
H    -0.238943  -2.277340  1.552263
H    -1.817921  -1.544013  1.417300
H    -1.987072  -2.070489  3.634619
H    -1.224837  -0.486164  3.823589
H    1.065498  -1.819698  3.811992
H    0.074795  -3.263950  3.996687
H    0.689967  -2.625378  6.103661
H    -0.063711  0.233271  7.957035
H    0.826898  1.196777  5.906133
H    1.074479  0.153639  4.521918
O    2.024854  0.293367  0.719365
H    2.922635  0.480895  1.064189
Ba    -2.142039  -2.304069  7.452970
