27
Energy: -241644.220407 eV PBE+vdW (tier 2 basis)
N    -0.557076  0.722761  0.674469
C    -0.181685  -0.204316  1.738690
C    1.337017  -0.421519  1.842427
O    2.104241  -0.241380  0.925521
H    -0.259670  1.667187  0.924859
H    -0.017583  0.495683  -0.166795
H    -0.518093  0.213691  2.699675
C    -0.845507  -1.591448  1.526686
C    -2.292107  -1.512764  1.020200
C    -3.202694  -0.678351  1.923014
N    -4.535354  -0.452716  1.323083
C    -5.619451  -1.204779  1.437659
N    -6.823110  -0.982445  0.933367
N    -5.552815  -2.453557  2.162673
H    -0.782046  -2.163036  2.463517
H    -0.269002  -2.156447  0.779077
H    -2.687803  -2.538155  0.909461
H    -2.298007  -1.054715  0.021800
H    -2.768630  0.320445  2.051539
H    -3.328830  -1.114618  2.923844
H    -4.602212  0.359576  0.710210
H    -6.935901  -0.067449  0.490848
H    -4.637621  -2.902525  2.057954
H    -5.671597  -2.284207  3.167838
O    1.690555  -0.867306  3.070813
H    2.659123  -1.009462  3.065501
Ba    -8.072902  -3.152082  1.009206
