27
Energy: -241644.638544 eV PBE+vdW (tier 2 basis)
N    1.218748  -1.508509  0.880847
C    0.067384  -0.629358  0.695032
C    0.490085  0.816572  0.976035
O    1.336158  1.129995  1.806436
H    1.948260  -1.290150  0.200108
H    0.946785  -2.476755  0.701805
H    -0.331307  -0.643183  -0.339228
C    -1.121088  -1.051337  1.615037
C    -0.810605  -1.656980  2.996183
C    -0.260059  -0.746263  4.106301
N    1.158421  -0.420843  3.936225
C    2.175896  -0.664011  4.728013
N    3.459781  -0.441161  4.446291
N    2.004174  -1.150245  6.080213
H    -1.685038  -1.816244  1.062812
H    -1.812610  -0.201585  1.721856
H    -0.149178  -2.528494  2.896350
H    -1.766582  -2.045114  3.377633
H    -0.407652  -1.247531  5.071893
H    -0.819433  0.201358  4.143917
H    1.380673  0.074901  3.025600
H    3.616280  -0.195974  3.465228
H    1.103883  -0.876048  6.480643
H    2.029526  -2.174884  6.095884
O    -0.127964  1.783068  0.297192
H    -0.730578  1.417261  -0.378030
Ba    4.636389  -0.177382  6.598342
