27
Energy: -241646.29448 eV PBE+vdW (tier 2 basis)
N    -0.262003  0.207987  -0.059215
C    -0.047775  -0.100625  1.417657
C    1.426743  -0.546390  1.529519
O    1.914615  -0.680055  2.680261
H    -0.309089  1.216886  -0.245877
H    -1.105975  -0.226467  -0.450432
H    -0.190913  0.829713  1.980036
C    -1.006169  -1.179982  1.944568
C    -0.892440  -2.565543  1.261459
C    -0.718638  -3.752963  2.232497
N    0.466393  -3.670892  3.090100
C    1.753673  -3.879412  2.740421
N    2.815109  -3.721558  3.494874
N    2.056566  -4.177279  1.398472
H    -2.035729  -0.799460  1.889413
H    -0.779929  -1.250813  3.017175
H    -0.058555  -2.569512  0.541042
H    -1.793977  -2.773479  0.668592
H    -0.704881  -4.698290  1.669857
H    -1.583939  -3.821602  2.903311
H    0.326314  -3.333040  4.036619
H    2.603796  -3.607907  4.488573
H    2.675936  -4.985304  1.333808
H    1.269773  -4.286713  0.763795
O    2.037265  -0.808811  0.440333
H    0.602557  -0.182699  -0.517261
Ba    4.036513  -1.981256  1.938134
