27
Energy: -241646.104998 eV PBE+vdW (tier 2 basis)
N    0.671022  -0.836428  0.115896
C    0.124899  -0.096672  1.284481
C    1.281655  0.243742  2.225246
O    2.313645  -0.433049  2.250914
H    1.063442  -0.155904  -0.543423
H    -0.114233  -1.253710  -0.391863
H    -0.354304  0.843852  0.962808
C    -0.945472  -0.913321  2.053260
C    -0.519813  -2.250034  2.688092
C    -0.597064  -3.475679  1.756835
N    -0.309236  -4.728753  2.425693
C    0.926172  -5.264193  2.594615
N    2.007196  -4.645936  2.117182
N    0.984555  -6.440506  3.256194
H    -1.793434  -1.067416  1.366649
H    -1.340737  -0.260783  2.844285
H    -1.200512  -2.446318  3.528175
H    0.476312  -2.179421  3.153500
H    0.063980  -3.394726  0.878210
H    -1.611527  -3.553110  1.340827
H    -1.096204  -5.224313  2.828230
H    2.818682  -5.243490  2.305101
H    1.869716  -6.899514  3.426063
H    0.155412  -6.933925  3.563985
O    1.160597  1.244994  3.072885
H    0.335898  1.755906  2.954599
Ba    2.883702  -2.539075  0.928104
