27
Energy: -241645.91508 eV PBE+vdW (tier 2 basis)
N    0.606325  -0.282423  -0.506600
C    0.346380  0.098163  0.888667
C    1.571464  -0.206206  1.741928
O    2.442491  -1.017541  1.408335
H    -0.216811  -0.056167  -1.070464
H    1.370580  0.271101  -0.900997
H    0.135079  1.178909  0.990641
C    -0.889145  -0.658488  1.460555
C    -0.781216  -2.170425  1.737813
C    -0.767937  -3.133897  0.544910
N    0.512059  -3.088897  -0.186645
C    0.813066  -3.990633  -1.215527
N    2.077212  -3.960675  -1.596924
N    -0.134441  -4.828555  -1.665595
H    -1.725387  -0.459106  0.771718
H    -1.173417  -0.165426  2.401118
H    -1.665114  -2.434968  2.335259
H    0.078651  -2.387219  2.393453
H    -1.616719  -2.894808  -0.121452
H    -0.921864  -4.153986  0.922088
H    0.700811  -2.092789  -0.482723
H    2.274497  -4.509645  -2.435158
H    0.087355  -5.545770  -2.347452
H    -1.113930  -4.705242  -1.437754
O    1.691805  0.380812  2.917349
H    0.994309  1.045346  3.085247
Ba    3.332908  -3.205379  0.503639
