27
Energy: -241645.527004 eV PBE+vdW (tier 2 basis)
N    -0.592142  0.757575  1.984115
C    0.566071  -0.031413  1.688076
C    1.730639  0.612722  0.918592
O    2.854139  0.066477  0.832702
H    -1.092207  1.084949  1.159218
H    -0.414103  1.546291  2.602106
H    1.038612  -0.311678  2.648062
C    0.171922  -1.348794  0.969302
C    -0.314690  -2.417881  1.953175
C    -0.383755  -3.840689  1.378670
N    0.785806  -4.245660  0.568709
C    2.077308  -4.050624  0.862995
N    2.611824  -3.639678  1.992232
N    3.021610  -4.165165  -0.198042
H    1.035176  -1.724965  0.400706
H    -0.602492  -1.120791  0.221962
H    -1.320865  -2.169430  2.315782
H    0.321044  -2.397741  2.850857
H    -1.242205  -3.936050  0.702812
H    -0.540943  -4.565396  2.191324
H    0.575485  -4.748614  -0.288294
H    1.979887  -3.702484  2.790954
H    2.614095  -4.244843  -1.130440
H    3.664135  -4.945934  -0.045754
O    1.471988  1.775281  0.370862
H    2.260501  2.135082  -0.088888
Ba    4.372436  -1.918301  1.199741
