27
Energy: -241645.890168 eV PBE+vdW (tier 2 basis)
N    0.276453  -1.141627  0.166400
C    -0.054988  -0.387517  1.404196
C    0.797706  -0.961777  2.534556
O    0.994063  -2.177721  2.633996
H    -0.422329  -0.907683  -0.545650
H    1.162654  -0.799457  -0.219731
H    0.161239  0.688640  1.297618
C    -1.567669  -0.590629  1.704269
C    -2.047363  -0.517263  3.169916
C    -2.927878  -1.722876  3.544895
N    -2.195083  -2.971132  3.330100
C    -2.614822  -4.076275  2.653338
N    -1.689276  -4.842969  2.074815
N    -3.943747  -4.294231  2.564971
H    -1.816451  -1.589632  1.311786
H    -2.120427  0.127281  1.084270
H    -2.622479  0.399779  3.348429
H    -1.209115  -0.475822  3.881596
H    -3.826023  -1.742528  2.913517
H    -3.257291  -1.631656  4.589675
H    -1.266435  -3.040843  3.733088
H    -2.062511  -5.775674  1.877403
H    -4.300919  -5.037409  1.976512
H    -4.584471  -3.917195  3.254509
O    1.300774  -0.164604  3.455338
H    1.126989  0.780849  3.277321
Ba    0.466625  -4.016892  0.934338
