27
Energy: -241644.907224 eV PBE+vdW (tier 2 basis)
N    0.723796  0.484624  1.323823
C    0.011068  -0.091172  2.475689
C    0.900629  0.007219  3.739940
O    1.640510  0.995109  3.887345
H    -1.065034  0.695033  -1.815539
H    1.489388  -0.169605  1.098881
H    -0.819270  0.597284  2.729735
C    -0.659566  -1.469809  2.244957
C    0.205375  -2.512075  1.506490
C    -0.200953  -2.723443  0.043804
N    -0.288903  -1.448015  -0.677484
C    -0.749636  -1.328043  -1.921800
N    -0.973919  -0.100923  -2.432096
N    -0.984848  -2.407663  -2.680390
H    -1.583975  -1.285764  1.679298
H    -1.033934  -1.881263  3.198083
H    0.121682  -3.490813  1.995383
H    1.274190  -2.251904  1.560227
H    -1.182576  -3.223034  0.007475
H    0.535313  -3.386638  -0.437744
H    -0.032187  -0.586750  -0.142879
H    -1.260110  0.023939  -3.394915
H    -1.425875  -2.330584  -3.588704
H    -0.677863  -3.329072  -2.396636
O    0.889649  -0.900191  4.694657
H    0.268321  -1.625955  4.488733
Ba    1.911421  2.600112  1.977167
