27
Energy: -241644.482145 eV PBE+vdW (tier 2 basis)
N    0.130114  -0.395577  0.321992
C    -0.043108  -0.275396  1.768545
C    1.331881  -0.284217  2.443506
O    2.260706  -0.984412  2.071609
H    -0.762963  -0.241222  -0.148368
H    0.772814  0.312782  -0.035587
H    -0.565199  0.654722  2.070148
C    -0.896629  -1.455165  2.317218
C    -0.234249  -2.847915  2.345726
C    0.191304  -3.362253  0.969271
N    0.944064  -4.652672  1.037141
C    2.310964  -4.669754  1.470419
N    2.728383  -5.905686  1.724895
N    2.982544  -3.542587  1.618125
H    -1.816129  -1.490414  1.712776
H    -1.219140  -1.209837  3.338705
H    -0.961231  -3.549149  2.792498
H    0.631779  -2.820774  3.025682
H    0.761155  -2.594449  0.426268
H    -0.693989  -3.566999  0.352706
H    0.935965  -5.077380  0.104352
H    3.732415  -5.984680  1.899914
H    2.577678  -2.589331  1.513349
H    3.917412  -3.566633  2.016817
O    1.490482  0.475144  3.532350
H    0.716311  1.050076  3.682137
Ba    0.674109  -7.072606  2.497611
