27
Energy: -241645.200748 eV PBE+vdW (tier 2 basis)
N    -0.612857  0.963573  0.939744
C    -0.318031  -0.103221  1.911121
C    1.091135  -0.618478  1.580807
O    1.672136  -1.475691  2.256830
H    -1.520761  0.860292  0.488476
H    -0.586157  1.890774  1.363063
H    -0.283406  0.286254  2.939344
C    -1.328507  -1.274607  1.906110
C    -1.585051  -2.010165  0.577158
C    -0.489591  -2.941931  0.029699
N    -0.170218  -4.047074  0.950061
C    1.015788  -4.391242  1.457564
N    1.240316  -5.295184  2.392345
N    2.218437  -3.742311  1.012202
H    -2.288644  -0.870970  2.256752
H    -1.005095  -1.986192  2.679149
H    -1.815035  -1.303198  -0.234710
H    -2.508117  -2.598045  0.697356
H    0.433134  -2.396309  -0.192190
H    -0.837801  -3.376219  -0.918388
H    -0.971090  -4.586335  1.277011
H    0.404195  -5.732892  2.784185
H    2.195477  -2.741532  1.383151
H    2.270191  -3.687932  -0.008228
O    1.587430  -0.123536  0.470035
H    0.841699  0.543749  0.200452
Ba    3.736488  -5.207441  2.730449
