27
Energy: -241644.843767 eV PBE+vdW (tier 2 basis)
N    0.631359  -0.306782  0.598374
C    -0.244349  0.042394  1.713353
C    0.507131  -0.146141  3.034503
O    0.386974  -1.104008  3.812826
H    1.397264  0.353559  0.474322
H    1.015931  -1.248418  0.673963
H    -0.476833  1.114169  1.623108
C    -1.536928  -0.775564  1.629754
C    -2.606713  -0.433985  2.693779
C    -3.116968  -1.651348  3.465514
N    -2.000955  -2.270029  4.199170
C    -2.104669  -3.244649  5.071966
N    -3.177835  -3.915104  5.470159
N    -0.899793  -3.668054  5.770223
H    -1.274524  -1.845837  1.668087
H    -1.935269  -0.612876  0.621678
H    -3.474727  0.040072  2.219363
H    -2.228160  0.305317  3.416969
H    -3.549373  -2.393106  2.774192
H    -3.900457  -1.357371  4.181574
H    -1.041232  -1.877386  3.988722
H    -4.025974  -3.690801  4.946277
H    -0.379386  -4.328243  5.181357
H    -0.263303  -2.876371  5.912105
O    1.408055  0.813784  3.240917
H    1.934278  0.601875  4.038113
Ba    -2.535523  -5.060531  7.588774
