27
Energy: -241643.671919 eV PBE+vdW (tier 2 basis)
N    -0.217933  -0.416079  -0.359504
C    -0.287546  0.178532  1.012160
C    1.094965  0.694261  1.382728
O    2.119420  0.248726  0.826782
H    -0.918150  -1.167479  -0.404764
H    -0.557466  0.279482  -1.033375
H    -0.995990  1.024354  1.026025
C    -0.741248  -0.864510  2.072518
C    -2.261507  -1.076019  2.168668
C    -2.935708  -1.525831  0.869575
N    -4.312783  -1.869046  1.074645
C    -5.169733  -1.990524  -0.042979
N    -4.863754  -1.795410  -1.279374
N    -6.439442  -2.374979  0.315889
H    -0.374458  -0.552257  3.060937
H    -0.224594  -1.815729  1.854454
H    -2.748279  -0.158185  2.529520
H    -2.421667  -1.833269  2.951171
H    -2.345764  -2.365596  0.416766
H    -2.934696  -0.698903  0.137934
H    -4.495522  -2.546105  1.812230
H    -3.858588  -1.693723  -1.429967
H    -6.829000  -1.996056  1.172492
H    -7.090591  -2.415836  -0.461487
O    1.251743  1.585597  2.327850
H    0.410784  1.910547  2.708635
Ba    2.383616  -1.208941  -1.104805
