27
Energy: -241644.643795 eV PBE+vdW (tier 2 basis)
N    0.268937  0.079699  0.303497
C    0.155894  0.000864  1.742460
C    1.526546  -0.042842  2.411945
O    1.689908  0.243391  3.606472
H    0.693070  0.946475  -0.022095
H    -0.633970  -0.028239  -0.154984
H    -0.345105  0.873632  2.217342
C    -0.662735  -1.275312  2.083864
C    -0.853052  -1.702230  3.546624
C    -1.538365  -0.703668  4.492637
N    -0.566526  0.273783  5.018645
C    -0.638950  0.956747  6.138830
N    0.304208  1.734426  6.662013
N    -1.846854  0.953182  6.949453
H    -0.200866  -2.108881  1.536432
H    -1.654334  -1.123343  1.628828
H    0.096730  -2.025053  3.999160
H    -1.484096  -2.601574  3.529446
H    -1.983514  -1.252584  5.334684
H    -2.351734  -0.174259  3.969362
H    0.340976  0.347848  4.460731
H    1.189467  1.697870  6.149726
H    -1.896095  0.087304  7.498160
H    -2.688752  0.953198  6.365921
O    2.525212  -0.415412  1.630721
H    3.350967  -0.426741  2.158466
Ba    -0.738435  3.085638  8.458628
