27
Energy: -241645.639688 eV PBE+vdW (tier 2 basis)
N    -0.402652  0.507802  0.768275
C    0.433527  0.515350  1.938957
C    1.774681  1.243511  1.839972
O    2.267758  1.887432  2.792646
H    -0.015085  -0.031323  -0.005269
H    -0.659098  1.433781  0.431945
H    -0.103361  1.051032  2.738537
C    0.713754  -0.942116  2.404203
C    -0.536047  -1.671517  2.926850
C    -0.796600  -1.563984  4.432947
N    -1.084079  -0.197844  4.906786
C    -0.205735  0.642683  5.465707
N    1.039047  0.416209  5.820408
N    -0.598459  2.005750  5.628766
H    1.515014  -0.954122  3.159023
H    1.114901  -1.481941  1.533962
H    -0.433185  -2.745076  2.714310
H    -1.417174  -1.338845  2.358930
H    0.050114  -1.961673  5.009308
H    -1.662055  -2.180938  4.706011
H    -2.048306  0.112702  4.823145
H    1.294602  -0.572323  5.826067
H    -0.727421  2.234769  6.617611
H    -1.447613  2.265291  5.124599
O    2.379836  1.135811  0.679323
H    3.238490  1.609216  0.679001
Ba    2.277434  2.588931  5.204141
