27
Energy: -241645.295604 eV PBE+vdW (tier 2 basis)
N    0.883966  1.413479  1.536194
C    0.565246  0.528044  2.634733
C    1.876891  -0.047384  3.167151
O    2.971544  0.264623  2.686357
H    -2.190346  -2.059913  -1.258472
H    0.019815  1.865111  1.222597
H    0.139274  1.076213  3.506726
C    -0.476908  -0.593613  2.333471
C    -0.082379  -1.603594  1.249521
C    -1.143008  -2.707233  1.128024
N    -0.817805  -3.747081  0.142715
C    -1.410851  -3.952045  -1.040851
N    -2.176452  -3.008809  -1.606718
N    -1.228763  -5.117287  -1.680141
H    -1.409577  -0.081875  2.051230
H    -0.723241  -1.129079  3.268178
H    0.886242  -2.070005  1.493472
H    0.051335  -1.088537  0.287065
H    -2.128846  -2.290821  0.879297
H    -1.271877  -3.216352  2.094245
H    -0.115159  -4.427919  0.414900
H    -2.808619  -3.235456  -2.365107
H    -1.480082  -5.227905  -2.655369
H    -0.888081  -5.939274  -1.195988
O    1.869599  -0.896386  4.189641
H    0.966552  -1.034217  4.532795
Ba    3.085662  2.178766  0.999911
