27
Energy: -241644.768535 eV PBE+vdW (tier 2 basis)
N    -0.366025  -0.083032  -0.134461
C    -0.065517  -0.058010  1.279230
C    1.438840  0.006143  1.529887
O    1.917056  0.402166  2.604005
H    -1.350277  -0.277404  -0.309506
H    -0.119136  0.779898  -0.615816
H    -0.465780  0.826234  1.822795
C    -0.676981  -1.337671  1.916628
C    -0.412943  -1.667328  3.393232
C    -0.859976  -0.638105  4.440286
N    0.125019  0.447780  4.567818
C    0.203371  1.290718  5.570659
N    -0.580796  1.427252  6.633361
N    1.331534  2.208150  5.602292
H    -0.344582  -2.188957  1.306151
H    -1.764375  -1.255339  1.761715
H    0.645826  -1.914004  3.566124
H    -0.962429  -2.593863  3.609643
H    -0.959441  -1.130495  5.420281
H    -1.843233  -0.212982  4.179797
H    0.845113  0.512661  3.785226
H    -1.427999  0.857168  6.600311
H    1.109178  3.044769  5.051389
H    2.155792  1.795710  5.153413
O    2.196355  -0.396958  0.525983
H    3.137177  -0.331922  0.792540
Ba    0.757531  2.689081  8.316029
