27
Energy: -241646.091544 eV PBE+vdW (tier 2 basis)
N    -0.902982  -1.808715  4.478034
C    0.118868  -1.568020  3.454548
C    1.301231  -0.831199  4.079743
O    2.298234  -1.530928  4.502350
H    -0.657869  -2.582446  5.093129
H    -1.104193  -0.988948  5.048827
H    0.512965  -2.549887  3.162178
C    -0.496917  -0.934398  2.189833
C    -1.353506  0.326008  2.386226
C    -2.458618  0.470520  1.332690
N    -1.986982  0.610744  -0.055306
C    -1.962014  1.735004  -0.778560
N    -2.081708  2.936686  -0.195649
N    -1.799427  1.668153  -2.110085
H    -1.134723  -1.731914  1.775938
H    0.300622  -0.752677  1.452848
H    -0.725432  1.227718  2.423691
H    -1.882733  0.270938  3.348580
H    -3.112288  1.324024  1.556892
H    -3.105480  -0.417937  1.352935
H    -1.716584  -0.240675  -0.537239
H    -2.324612  3.756821  -0.737936
H    -1.581273  2.493217  -2.655350
H    -1.968463  0.809488  -2.619630
O    1.280753  0.441130  4.278378
H    -2.051956  3.036619  0.810100
Ba    3.387369  0.332323  5.601715
