27
Energy: -241645.505138 eV PBE+vdW (tier 2 basis)
N    -0.721328  0.483873  0.659030
C    0.236406  0.033467  1.627728
C    1.676934  -0.219183  1.164460
O    2.660508  -0.127198  1.931764
H    -0.483416  1.366785  0.212037
H    -0.934585  -0.207079  -0.059056
H    0.350312  0.825311  2.386804
C    -0.258401  -1.268336  2.316076
C    -1.492215  -1.093118  3.210743
C    -1.274437  -0.290854  4.504763
N    -0.095588  -0.760672  5.251190
C    1.107846  -0.183238  5.367985
N    2.227581  -0.740469  5.784025
N    1.297023  1.168877  4.963229
H    0.565751  -1.721828  2.888057
H    -0.500430  -1.989905  1.521798
H    -1.860051  -2.095878  3.474553
H    -2.303410  -0.609280  2.649536
H    -2.154297  -0.384722  5.154577
H    -1.172116  0.782733  4.301048
H    -0.128803  -1.742434  5.521414
H    2.111049  -1.672004  6.188865
H    1.512509  1.741273  5.783769
H    0.495146  1.587227  4.493329
O    1.799037  -0.553501  -0.099370
H    2.735604  -0.721647  -0.336047
Ba    3.906933  0.278609  4.091973
