27
Energy: -241645.095359 eV PBE+vdW (tier 2 basis)
N    0.010698  0.687948  -0.217268
C    0.199200  0.381423  1.216081
C    1.533184  -0.320477  1.502762
O    1.898607  -0.460706  2.721563
H    -1.466708  0.887694  -0.637850
H    0.581702  1.492357  -0.487396
H    0.250522  1.337068  1.759253
C    -0.982643  -0.404038  1.827428
C    -1.355415  -1.767376  1.199510
C    -2.570794  -1.806749  0.249806
N    -2.302332  -1.560244  -1.177792
C    -2.549862  -0.422412  -1.898023
N    -2.665254  -0.190714  -3.138804
N    -2.525161  0.809804  -1.067352
H    -1.859711  0.261073  1.840124
H    -0.730514  -0.552742  2.885263
H    -1.603479  -2.445486  2.027336
H    -0.495532  -2.230210  0.689886
H    -3.360164  -1.130944  0.614698
H    -3.016096  -2.808029  0.301284
H    -2.288754  -2.396091  -1.754088
H    -2.664957  -1.019830  -3.738403
H    -2.725922  1.579838  -1.718435
H    -3.229259  0.816331  -0.320966
O    2.262366  -0.741470  0.538825
H    0.359176  -0.093247  -0.782916
Ba    4.101029  -1.396961  2.136598
