27
Energy: -241644.724491 eV PBE+vdW (tier 2 basis)
N    -0.070340  -1.383736  0.312946
C    0.184779  -0.976284  1.715879
C    0.955671  0.345744  1.721053
O    0.872013  1.126810  0.754245
H    0.666672  -2.039789  0.031396
H    -1.001897  -1.970627  0.336612
H    -0.799396  -0.667354  2.114053
C    0.735141  -2.082922  2.657996
C    -0.013707  -2.215273  4.003132
C    -1.249324  -3.136710  3.952726
N    -2.176179  -2.800440  2.873177
C    -2.331565  -3.493522  1.696072
N    -2.381530  -2.814198  0.568014
N    -2.378989  -4.848796  1.806867
H    1.813021  -1.931829  2.830647
H    0.677243  -3.038901  2.118108
H    -0.311339  -1.220015  4.376905
H    0.666734  -2.622989  4.763526
H    -1.765979  -3.105353  4.921880
H    -0.921434  -4.172291  3.797704
H    -2.514763  -1.846113  2.825411
H    -2.754497  -3.384540  -0.194930
H    -2.434877  -5.412628  0.967607
H    -2.752432  -5.271889  2.649799
O    1.654659  0.727387  2.761413
H    1.695183  0.041334  3.457778
Ba    -0.322926  0.692619  -1.361891
