27
Energy: -241645.569551 eV PBE+vdW (tier 2 basis)
N    0.228858  -0.313680  0.378625
C    0.184819  0.095303  1.768632
C    1.575664  0.251710  2.354075
O    1.825600  0.248451  3.579471
H    0.857368  0.257247  -0.184922
H    -0.698107  -0.249523  -0.041816
H    -0.234420  1.119429  1.930960
C    -0.686970  -0.871225  2.595860
C    -0.215183  -2.327783  2.545452
C    -1.053362  -3.291414  3.398390
N    -1.287927  -2.827702  4.780786
C    -0.330382  -2.458503  5.639855
N    0.967121  -2.650604  5.533172
N    -0.695746  -1.633536  6.734797
H    -1.715826  -0.792637  2.213287
H    -0.732032  -0.497422  3.630703
H    0.847335  -2.387728  2.827153
H    -0.254799  -2.694074  1.511488
H    -0.595919  -4.291862  3.411826
H    -2.051038  -3.414949  2.960214
H    -2.253000  -2.783563  5.093188
H    1.220280  -3.360327  4.844133
H    -0.482845  -2.072693  7.632774
H    -1.662824  -1.308564  6.733139
O    2.511485  0.462287  1.454910
H    3.379643  0.634873  1.874567
Ba    1.893318  -0.311559  6.024248
