27
Energy: -241645.18735 eV PBE+vdW (tier 2 basis)
N    0.501121  -0.782078  0.251789
C    0.007722  0.001755  1.366194
C    1.229221  0.508635  2.139786
O    2.369717  0.097999  1.901318
H    -4.236797  0.551742  -0.035767
H    -0.269283  -0.995153  -0.385653
H    -0.522614  0.925863  1.038752
C    -0.943396  -0.743705  2.362160
C    -2.440646  -0.760879  2.013651
C    -2.837643  -1.589579  0.780416
N    -4.269892  -1.922011  0.746608
C    -5.244052  -1.233939  0.136850
N    -5.018007  -0.006186  -0.352786
N    -6.457036  -1.786179  -0.008204
H    -0.868907  -0.296196  3.366097
H    -0.563804  -1.771852  2.461272
H    -2.811682  0.272920  1.913611
H    -2.971410  -1.181252  2.880995
H    -2.299557  -2.546964  0.779898
H    -2.584720  -1.090188  -0.165194
H    -4.559687  -2.738095  1.276668
H    -5.689374  0.441101  -0.965545
H    -7.267369  -1.225190  -0.243439
H    -6.607373  -2.778902  0.126632
O    1.089891  1.416689  3.096483
H    0.163395  1.705270  3.194870
Ba    2.815353  -1.304381  -0.155156
