27
Energy: -241645.976628 eV PBE+vdW (tier 2 basis)
N    -0.715563  1.208746  0.322327
C    -0.252373  0.565550  1.580293
C    1.151381  0.014221  1.324875
O    1.452091  -0.435877  0.214597
H    -1.692230  1.488898  0.446422
H    -0.212771  2.094678  0.203156
H    -0.236964  1.290361  2.411802
C    -1.138427  -0.643046  1.979163
C    -2.655183  -0.383066  1.977483
C    -3.378788  -0.802107  0.686966
N    -3.294610  -2.238779  0.440730
C    -2.889488  -2.833735  -0.712090
N    -2.061323  -2.220754  -1.562143
N    -3.351180  -4.086435  -0.925343
H    -0.815941  -0.960648  2.979694
H    -0.921231  -1.499408  1.319209
H    -2.888076  0.671852  2.193269
H    -3.103015  -0.937370  2.814320
H    -2.982578  -0.300756  -0.204473
H    -4.437916  -0.512199  0.760262
H    -3.827468  -2.823775  1.077499
H    -2.085987  -2.748821  -2.441639
H    -2.948568  -4.676086  -1.642560
H    -4.132566  -4.470841  -0.407277
O    2.029865  -0.054874  2.302328
H    1.718808  0.360009  3.130692
Ba    -0.093806  -0.568682  -1.833290
