27
Energy: -241646.253849 eV PBE+vdW (tier 2 basis)
N    0.608831  0.096000  0.273714
C    0.188285  -0.283431  1.682958
C    1.474152  -0.880619  2.308977
O    1.447606  -1.066162  3.569921
H    0.722824  1.108506  0.152312
H    -0.027577  -0.244178  -0.455576
H    -0.072190  0.639019  2.215978
C    -1.034184  -1.218229  1.697607
C    -0.969921  -2.578691  0.964958
C    -0.489141  -3.804891  1.761285
N    0.965079  -3.908115  1.873765
C    1.671347  -4.059164  3.008398
N    1.241553  -4.295138  4.224026
N    3.062980  -3.790983  2.934607
H    -1.877324  -0.643804  1.285575
H    -1.288918  -1.373326  2.755479
H    -0.403346  -2.518781  0.019736
H    -1.996312  -2.813616  0.651248
H    -0.874045  -4.715696  1.280952
H    -0.911070  -3.778828  2.774382
H    1.490594  -3.895998  1.004398
H    0.276951  -4.625717  4.274657
H    3.634344  -4.618689  3.108404
H    3.361374  -3.285868  2.098489
O    2.408723  -1.142456  1.522504
H    1.562116  -0.376577  0.209558
Ba    2.565741  -2.349320  5.352872
