27
Energy: -241644.277814 eV PBE+vdW (tier 2 basis)
N    -0.253638  0.441755  -0.238218
C    -0.172215  0.261651  1.207356
C    0.982317  1.056216  1.834123
O    1.978171  1.382249  1.227516
H    -0.776368  1.288690  -0.460239
H    0.692372  0.594945  -0.600633
H    -1.111731  0.595519  1.671082
C    0.041543  -1.236052  1.544156
C    -1.089052  -2.091156  0.968117
C    -0.752378  -3.577137  0.982483
N    -1.824782  -4.349576  0.314139
C    -1.777873  -5.642362  0.037829
N    -0.817325  -6.498614  0.325727
N    -2.875331  -6.256418  -0.693562
H    0.124535  -1.366057  2.632588
H    1.004137  -1.544207  1.103261
H    -1.254136  -1.753376  -0.068576
H    -2.017580  -1.917671  1.536426
H    -0.638726  -3.956328  2.010984
H    0.188556  -3.761139  0.439059
H    -2.657546  -3.824134  0.053039
H    -0.056194  -6.100312  0.880345
H    -3.702689  -6.337157  -0.091785
H    -3.163994  -5.679064  -1.489974
O    0.764484  1.311266  3.144970
H    1.542373  1.800649  3.481816
Ba    -1.329252  -8.639428  -0.891672
