27
Energy: -241646.293613 eV PBE+vdW (tier 2 basis)
N    2.082318  -0.951567  0.356551
C    1.323553  -0.605258  1.600653
C    1.172284  -2.020549  2.172934
O    0.342294  -2.809653  1.608639
H    2.853152  -0.301117  0.204925
H    1.468814  -0.888812  -0.457790
H    1.991810  -0.041215  2.263378
C    0.015803  0.150647  1.365446
C    -0.747438  0.403079  2.674237
C    -2.086574  1.126832  2.519430
N    -1.905441  2.543669  2.164683
C    -2.882449  3.365082  1.753163
N    -2.589894  4.622201  1.386461
N    -4.146962  2.932389  1.678580
H    -0.618308  -0.438741  0.683679
H    0.248483  1.098010  0.854213
H    -0.117416  0.952262  3.393990
H    -0.973214  -0.559060  3.157128
H    -2.644600  1.051730  3.466631
H    -2.682509  0.646835  1.728414
H    -1.035551  2.979889  2.455019
H    -3.315754  5.317464  1.261036
H    -4.866742  3.491161  1.235806
H    -4.442447  2.081931  2.140575
O    2.122182  -2.463642  2.900171
H    -1.633525  4.926970  1.256128
Ba    2.416079  -4.122712  1.109034
