27
Energy: -241646.465384 eV PBE+vdW (tier 2 basis)
N    0.682573  -0.231638  -1.071854
C    0.040991  0.068195  0.249552
C    1.057511  0.743277  1.199359
O    2.311332  0.459255  0.973802
H    0.551693  0.580811  -1.683214
H    0.149541  -0.977095  -1.531541
H    -0.789097  0.776332  0.107604
C    -0.508860  -1.243478  0.849214
C    -1.117081  -1.211688  2.263608
C    -2.355820  -0.329957  2.486283
N    -1.986287  1.065522  2.735260
C    -2.742865  1.961691  3.366753
N    -2.190308  3.119880  3.767165
N    -4.041345  1.729995  3.616912
H    0.306900  -1.986399  0.861373
H    -1.266300  -1.631009  0.147882
H    -0.355070  -0.955426  3.013943
H    -1.418329  -2.243350  2.490263
H    -2.896213  -0.714748  3.364157
H    -3.036849  -0.402769  1.620623
H    -1.005209  1.333692  2.510178
H    -1.187648  3.254435  3.722241
H    -4.579581  2.343446  4.215822
H    -4.526430  0.943916  3.206065
O    0.657409  1.464676  2.112132
H    -2.755309  3.898631  4.080275
Ba    3.470570  -0.559476  -0.729119
