27
Energy: -241645.505234 eV PBE+vdW (tier 2 basis)
N    -0.904194  0.353659  0.333408
C    0.124547  -0.343215  1.141623
C    1.336611  -0.319784  0.470231
O    2.411730  -0.957872  0.869632
H    -0.314436  0.706041  -0.471367
H    -1.642235  -0.265201  -0.037564
H    0.698366  1.663112  4.894565
C    -0.274399  -1.300035  2.218784
C    -0.291843  -0.807199  3.684025
C    -1.352635  0.259898  3.974023
N    -1.562145  0.521927  5.406097
C    -0.901422  1.408715  6.158684
N    0.183707  2.036592  5.681527
N    -1.339504  1.694683  7.393950
H    0.438055  -2.136656  2.182941
H    -1.259990  -1.747204  1.988286
H    0.712534  -0.437111  3.943573
H    -0.482284  -1.672699  4.337024
H    -2.329273  -0.061761  3.584871
H    -1.115275  1.217862  3.486818
H    -2.226864  -0.075588  5.887370
H    0.580378  2.831400  6.167501
H    -0.748885  2.168617  8.066630
H    -2.268403  1.431087  7.700018
O    1.433232  0.379781  -0.678394
H    -1.368304  1.151509  0.785116
Ba    3.688638  -0.416931  -1.071429
