27
Energy: -241645.039327 eV PBE+vdW (tier 2 basis)
N    0.335277  0.973402  1.381895
C    -0.320327  -0.016428  2.297476
C    0.686322  -0.508414  3.355810
O    1.928840  -0.531782  2.980168
H    -0.212601  1.028590  0.517556
H    0.242170  1.907780  1.794960
H    -1.148072  0.471447  2.831981
C    -0.879975  -1.215397  1.481832
C    -2.403145  -1.160913  1.235421
C    -3.232138  -2.037220  2.198992
N    -2.823663  -1.943545  3.601757
C    -2.972070  -0.823926  4.350322
N    -3.585032  0.275479  4.192591
N    -2.112222  -0.861893  5.575831
H    -0.615852  -2.157197  1.982867
H    -0.348395  -1.245430  0.517482
H    -2.636612  -1.510497  0.220756
H    -2.746990  -0.116390  1.274164
H    -3.127087  -3.093858  1.925348
H    -4.301331  -1.799864  2.102326
H    -2.317396  -2.732091  3.987533
H    -4.177922  0.318305  3.360674
H    -2.280992  -1.680847  6.174390
H    -2.331761  -0.012053  6.111974
O    0.300048  -0.888050  4.469106
H    -1.083657  -0.847267  5.229853
Ba    3.110366  0.401614  1.222151
