27
Energy: -241646.489784 eV PBE+vdW (tier 2 basis)
N    0.033025  0.524146  -0.181680
C    -0.483982  0.113929  1.165657
C    0.689214  0.103468  2.186635
O    1.590975  1.025416  1.971255
H    0.459628  -0.295643  -0.627940
H    -0.768281  0.746651  -0.780533
H    -1.129284  0.942989  1.503367
C    -1.336116  -1.160564  1.181914
C    -0.595266  -2.476310  0.838029
C    -0.880549  -3.611936  1.826515
N    -0.369821  -3.247348  3.148168
C    -0.355120  -4.034141  4.222426
N    0.237745  -3.597446  5.346667
N    -0.909962  -5.255631  4.197004
H    -2.189060  -1.020472  0.502743
H    -1.778311  -1.224349  2.186234
H    0.496271  -2.324770  0.809259
H    -0.881541  -2.830989  -0.160012
H    -0.391322  -4.533674  1.474942
H    -1.967346  -3.798361  1.872124
H    0.013805  -2.288941  3.238515
H    0.707889  -2.700794  5.364990
H    -0.840629  -5.884267  4.987069
H    -1.425236  -5.583843  3.391621
O    0.713324  -0.683310  3.129102
H    0.174506  -4.110483  6.216152
Ba    2.024016  2.474923  0.238246
