27
Energy: -241644.752357 eV PBE+vdW (tier 2 basis)
N    0.177611  -0.280557  -0.009659
C    0.020296  -0.130623  1.437145
C    1.393306  -0.177057  2.101138
O    1.705874  -0.854488  3.083341
H    0.849811  0.389963  -0.382388
H    -0.710672  -0.097993  -0.478218
H    -0.374040  0.864016  1.744762
C    -0.949425  -1.185846  1.987371
C    -0.598012  -2.647878  1.621354
C    -0.563590  -3.595255  2.820171
N    0.514074  -3.183414  3.741072
C    1.044628  -3.878504  4.721757
N    2.078363  -3.534823  5.483114
N    0.486713  -5.163450  5.110207
H    -1.946706  -0.939772  1.598660
H    -1.029213  -1.049478  3.076700
H    0.363241  -2.690556  1.089264
H    -1.332198  -3.050488  0.913069
H    -0.383289  -4.625889  2.480519
H    -1.529318  -3.573994  3.352550
H    0.937428  -2.237048  3.532270
H    2.528293  -2.664890  5.185790
H    0.799204  -5.890006  4.456043
H    -0.535644  -5.160784  5.042008
O    2.251286  0.659540  1.522208
H    3.110007  0.620476  1.989760
Ba    2.104062  -5.065740  7.433444
