27
Energy: -241643.707717 eV PBE+vdW (tier 2 basis)
N    0.325701  0.155366  -0.091935
C    -0.367928  0.299865  1.221134
C    0.541035  1.060954  2.169597
O    1.781978  1.024558  2.030803
H    -0.096796  -0.649566  -0.569080
H    0.086195  0.956190  -0.686726
H    -1.318062  0.846868  1.106350
C    -0.652088  -1.099212  1.834073
C    -1.726505  -1.915284  1.109445
C    -3.169878  -1.376567  1.280379
N    -4.189795  -2.339409  0.954666
C    -4.365119  -3.489013  1.733669
N    -3.838824  -3.732025  2.888364
N    -5.163549  -4.441311  1.137282
H    -0.951184  -0.968621  2.885720
H    0.302210  -1.655199  1.864640
H    -1.696897  -2.930748  1.533951
H    -1.501532  -2.042303  0.035686
H    -3.344526  -0.488090  0.655766
H    -3.311422  -1.051078  2.325911
H    -4.442534  -2.418736  -0.024845
H    -3.249552  -2.973259  3.234135
H    -5.411159  -5.201160  1.764087
H    -5.932624  -4.124183  0.556040
O    0.057185  1.712404  3.197820
H    -0.920369  1.716297  3.236147
Ba    3.146445  0.070824  0.259603
