27
Energy: -241644.190872 eV PBE+vdW (tier 2 basis)
N    -0.513015  -0.071334  -0.281233
C    -0.814081  0.111592  1.128037
C    0.269022  0.970414  1.782547
O    1.182451  1.493936  1.188920
H    -1.322854  0.110165  -0.869061
H    0.234839  0.566277  -0.561604
H    -1.762325  0.650937  1.299316
C    -0.942852  -1.266809  1.837265
C    0.345447  -2.081252  1.695001
C    0.210372  -3.555685  2.053597
N    -0.155014  -3.715078  3.484733
C    0.096724  -4.737027  4.286547
N    -0.133200  -4.832518  5.587323
N    0.655596  -5.954267  3.742237
H    -1.775851  -1.799536  1.352936
H    -1.225681  -1.091990  2.888856
H    1.164854  -1.635625  2.280770
H    0.646844  -2.030325  0.636740
H    1.160909  -4.077807  1.877457
H    -0.571080  -4.029073  1.437580
H    -0.637392  -2.910015  3.887979
H    -0.441837  -3.962698  6.027536
H    1.677903  -5.878861  3.689506
H    0.339282  -6.125385  2.783139
O    0.086898  1.076838  3.127999
H    0.773067  1.694601  3.450798
Ba    -0.060965  -7.267764  6.177181
