27
Energy: -241645.312912 eV PBE+vdW (tier 2 basis)
N    1.711725  -0.316858  0.966667
C    0.806218  0.183926  1.976397
C    1.661074  0.545846  3.191171
O    2.784826  0.065159  3.363979
H    -5.164673  -4.158978  3.202450
H    1.201170  -0.422446  0.085753
H    0.287152  1.118231  1.665909
C    -0.305988  -0.850477  2.370837
C    -1.385611  -0.373023  3.352892
C    -2.507281  -1.382472  3.622631
N    -3.402769  -1.534550  2.465595
C    -4.346258  -2.481168  2.345136
N    -4.557036  -3.358797  3.333253
N    -5.066118  -2.568058  1.216555
H    0.193914  -1.749042  2.763443
H    -0.763845  -1.149031  1.415385
H    -1.837645  0.575075  3.010939
H    -0.943183  -0.160271  4.337087
H    -3.087159  -1.044793  4.496914
H    -2.073517  -2.366781  3.855748
H    -3.460887  -0.750142  1.823402
H    -4.199553  -3.200716  4.266749
H    -5.903526  -3.136025  1.167557
H    -4.816632  -2.044661  0.386876
O    1.205340  1.401462  4.102733
H    0.361505  1.801343  3.821679
Ba    4.032838  -0.780604  1.290792
