27
Energy: -241645.543231 eV PBE+vdW (tier 2 basis)
N    0.351700  1.039459  0.528575
C    0.411821  0.272400  1.765061
C    1.905103  0.137161  2.052506
O    2.488356  0.679899  3.012699
H    -0.522356  1.551782  0.431666
H    0.487229  0.461685  -0.301196
H    0.022618  0.917174  2.563953
C    -0.314222  -1.093029  1.786890
C    -0.192504  -1.907808  3.087753
C    -1.197179  -1.580701  4.202754
N    -1.186107  -0.185442  4.683593
C    -0.196823  0.376349  5.392931
N    0.888792  -0.188641  5.864307
N    -0.230335  1.789748  5.576513
H    0.076745  -1.694595  0.953818
H    -1.371541  -0.899779  1.549213
H    0.839512  -1.865785  3.473547
H    -0.356891  -2.969061  2.853574
H    -1.049583  -2.258636  5.057438
H    -2.218389  -1.761138  3.845898
H    -2.047608  0.341352  4.577191
H    0.865348  -1.209524  5.847838
H    -0.930611  2.277797  5.016905
H    -0.367388  2.033026  6.560535
O    2.546427  -0.595376  1.168670
H    3.513130  -0.586455  1.328360
Ba    2.699699  1.580348  5.332343
