27
Energy: -241646.350551 eV PBE+vdW (tier 2 basis)
N    0.666081  1.038339  1.567714
C    0.058305  -0.139401  2.271091
C    1.150960  -1.209136  2.514259
O    2.131062  -1.201168  1.649513
H    -0.089902  1.603259  1.168515
H    1.082897  1.647979  2.279761
H    -0.332021  0.173193  3.250991
C    -1.105835  -0.719868  1.425398
C    -2.319363  -1.299917  2.178669
C    -2.163842  -2.666784  2.866278
N    -1.483664  -2.623623  4.158457
C    -1.991686  -2.945598  5.346746
N    -1.151797  -3.158397  6.375224
N    -3.313479  -3.056998  5.559249
H    -0.718522  -1.469171  0.715807
H    -1.500471  0.102551  0.807590
H    -3.116754  -1.417944  1.430524
H    -2.693588  -0.562625  2.905602
H    -1.601336  -3.356715  2.218137
H    -3.153242  -3.122447  2.994905
H    -0.468503  -2.406941  4.099269
H    -1.480228  -3.180852  7.332214
H    -3.672306  -3.500903  6.395246
H    -3.989334  -2.742528  4.877040
O    1.051249  -2.012059  3.439069
H    -0.159037  -3.276428  6.215348
Ba    2.835357  0.203183  -0.025614
