27
Energy: -241644.608985 eV PBE+vdW (tier 2 basis)
N    0.288330  0.795397  0.688383
C    0.286879  0.191748  2.003910
C    1.700900  0.016527  2.548573
O    1.946089  -0.267242  3.726960
H    -0.652953  0.847466  0.301746
H    0.683567  1.734387  0.680642
H    -0.218600  0.796497  2.788165
C    -0.446512  -1.175863  1.891976
C    -0.467395  -2.091443  3.121673
C    -1.067016  -1.416936  4.360279
N    -0.948929  -2.212375  5.601215
C    0.153444  -2.409338  6.320227
N    0.259712  -3.092762  7.453851
N    1.379386  -1.789043  5.943389
H    0.001381  -1.719655  1.049183
H    -1.479758  -0.943425  1.590900
H    0.551401  -2.441665  3.340633
H    -1.052919  -2.989411  2.878669
H    -2.139792  -1.235265  4.222004
H    -0.608436  -0.435609  4.539336
H    -1.804849  -2.628201  5.961070
H    -0.565107  -3.641267  7.705355
H    2.008852  -2.504992  5.565471
H    1.332696  -1.065360  5.190155
O    2.661471  0.208751  1.653184
H    3.528130  0.094041  2.093902
Ba    2.119801  -1.909575  8.645215
