27
Energy: -241645.736574 eV PBE+vdW (tier 2 basis)
N    1.136777  0.554510  0.603377
C    0.658301  -0.174465  1.807821
C    1.627549  -1.324816  2.110666
O    2.475931  -1.699885  1.299618
H    0.342250  0.711596  -0.019263
H    1.441906  1.488125  0.888341
H    0.697462  0.508354  2.672240
C    -0.810515  -0.685628  1.724518
C    -1.114813  -1.959114  0.901542
C    -1.665073  -1.775972  -0.525379
N    -0.831891  -0.971619  -1.431042
C    0.366707  -1.316085  -1.955255
N    1.167453  -0.566710  -2.675721
N    0.936817  -2.546558  -1.581743
H    -1.430971  0.161160  1.392654
H    -1.138354  -0.869296  2.757406
H    -1.889932  -2.528143  1.433735
H    -0.239756  -2.628198  0.906017
H    -2.635826  -1.267535  -0.480962
H    -1.866139  -2.761420  -0.974103
H    -1.230896  -0.103165  -1.773962
H    0.730267  0.275945  -3.055431
H    1.275925  -3.052796  -2.400595
H    0.371469  -3.158352  -0.997933
O    1.542411  -1.956500  3.267196
H    0.877335  -1.574677  3.872365
Ba    3.203803  -0.795935  -0.983074
