27
Energy: -241645.850468 eV PBE+vdW (tier 2 basis)
N    0.153918  -0.998898  0.647578
C    0.121533  -0.166141  1.875772
C    1.141833  -0.759014  2.852056
O    1.324698  -1.979412  2.894327
H    -0.668394  -0.775997  0.080128
H    0.951536  -0.708180  0.073502
H    0.362813  0.886709  1.652480
C    -1.251158  -0.242512  2.593785
C    -2.496465  0.023676  1.720556
C    -3.499069  -1.139247  1.773325
N    -2.906780  -2.420887  1.359936
C    -2.682182  -2.812185  0.051537
N    -1.867390  -3.837086  -0.119896
N    -3.223209  -2.063379  -0.936589
H    -1.224614  0.460353  3.436576
H    -1.336693  -1.243581  3.044325
H    -2.232308  0.236571  0.673040
H    -3.011599  0.929036  2.066041
H    -4.402392  -0.894693  1.193012
H    -3.846344  -1.281288  2.804532
H    -3.099528  -3.210055  1.968223
H    -1.936723  -4.233476  -1.060701
H    -3.053859  -2.321276  -1.902895
H    -4.064386  -1.519647  -0.771459
O    1.779680  0.014668  3.705142
H    1.598116  0.965755  3.572747
Ba    0.314314  -3.782156  1.332026
