27
Energy: -241645.66883 eV PBE+vdW (tier 2 basis)
N    -0.009242  0.470786  0.514633
C    -0.145068  -0.091501  1.881279
C    1.270825  -0.317611  2.425997
O    2.200641  -0.602671  1.663925
H    -0.847067  0.247371  -0.032062
H    0.013218  1.492612  0.575262
H    -0.701005  0.596903  2.539555
C    -0.837340  -1.480953  1.877795
C    -2.236271  -1.530311  1.227336
C    -2.493392  -2.817109  0.400412
N    -1.340787  -3.254850  -0.403974
C    -0.646230  -2.469517  -1.261634
N    0.640876  -2.608346  -1.550354
N    -1.302705  -1.385169  -1.808233
H    -0.890000  -1.840054  2.914428
H    -0.159400  -2.172914  1.356970
H    -2.403061  -0.652744  0.586175
H    -3.018408  -1.465455  1.994711
H    -3.382975  -2.685360  -0.233196
H    -2.725207  -3.659525  1.061932
H    -0.820528  -4.039589  -0.025813
H    0.993865  -3.514871  -1.227242
H    -0.959372  -1.141182  -2.733833
H    -2.319458  -1.416882  -1.788816
O    1.500126  -0.278550  3.721709
H    0.719557  -0.008048  4.243904
Ba    2.236839  -0.625464  -0.901018
