27
Energy: -241644.97157 eV PBE+vdW (tier 2 basis)
N    0.439228  -0.312949  0.194986
C    0.146300  -0.228012  1.626901
C    1.445119  -0.157135  2.447592
O    2.555716  -0.113384  1.897728
H    0.073208  -1.212711  -0.140365
H    -1.087251  0.536728  -0.347556
H    -0.335770  0.746959  1.855686
C    -0.791944  -1.345674  2.150951
C    -2.116190  -1.485195  1.386751
C    -3.230224  -0.487584  1.700984
N    -2.978839  0.966906  1.494690
C    -2.795646  1.588682  0.305343
N    -1.953582  1.094868  -0.605966
N    -3.451376  2.738142  0.074943
H    -1.017420  -1.197683  3.220884
H    -0.251589  -2.302680  2.085821
H    -2.543769  -2.467555  1.636478
H    -1.940665  -1.527836  0.302705
H    -3.495605  -0.566112  2.762987
H    -4.124867  -0.772440  1.127127
H    -3.448589  1.547795  2.183695
H    -1.989246  1.481058  -1.543270
H    -3.167090  3.371748  -0.663531
H    -4.298423  2.973110  0.580148
O    1.413733  -0.073910  3.765830
H    0.506268  -0.149360  4.117980
Ba    2.804329  -0.072032  -0.582997
