27
Energy: -241646.304521 eV PBE+vdW (tier 2 basis)
N    0.469506  -0.541869  -0.012735
C    0.299893  0.491112  1.024815
C    1.470374  1.469850  0.986978
O    1.672632  2.253522  1.981721
H    0.725606  -0.094009  -0.895476
H    -0.420104  -1.019631  -0.170560
H    -0.544633  1.166659  0.773022
C    -0.024561  -0.072337  2.434334
C    0.390005  -1.512704  2.780613
C    1.879370  -1.877229  2.750855
N    2.331858  -2.121969  1.378114
C    3.279165  -2.982227  1.022885
N    3.430494  -3.307527  -0.276774
N    4.115432  -3.522727  1.926226
H    -1.112947  -0.023474  2.569684
H    0.393931  0.625440  3.171846
H    -0.158029  -2.240729  2.163852
H    0.040874  -1.687301  3.807961
H    2.018885  -2.796011  3.339232
H    2.484673  -1.084483  3.222322
H    1.748963  -1.640541  0.645021
H    4.206333  -3.875812  -0.591018
H    4.685551  -4.327809  1.698634
H    4.102895  -3.226249  2.892748
O    2.161199  1.593336  -0.088449
H    2.690978  -3.124162  -0.941730
Ba    3.078109  3.784996  0.673444
