27
Energy: -241644.741196 eV PBE+vdW (tier 2 basis)
N    0.381625  0.100431  -0.092407
C    -0.338386  0.276947  1.144502
C    0.387078  0.951521  2.324760
O    -0.130647  1.132809  3.435678
H    1.202659  -0.495393  0.011479
H    0.683377  0.981438  -0.505386
H    -1.162103  0.982686  0.930237
C    -0.949469  -1.076293  1.625577
C    -2.483489  -1.158652  1.628715
C    -3.207657  -0.081649  2.453976
N    -2.597492  0.122147  3.773639
C    -3.095933  -0.200034  4.944581
N    -4.240035  -0.792894  5.265658
N    -2.336535  0.180227  6.126038
H    -0.561003  -1.339558  2.619956
H    -0.578235  -1.847750  0.940159
H    -2.774560  -2.154493  1.993979
H    -2.864641  -1.082226  0.599794
H    -4.272945  -0.323366  2.561586
H    -3.161727  0.892784  1.946216
H    -1.619338  0.531472  3.723590
H    -4.761513  -1.153767  4.464803
H    -1.785461  1.027575  5.956357
H    -1.653493  -0.553483  6.344989
O    1.620515  1.351307  2.049333
H    2.000104  1.791954  2.837589
Ba    -4.666283  -0.233698  7.654868
