27
Energy: -241644.652343 eV PBE+vdW (tier 2 basis)
N    0.220054  0.648794  0.523379
C    -0.063339  0.205438  1.869989
C    1.143865  -0.033388  2.787381
O    1.105614  0.002180  4.020937
H    0.744116  -0.039204  -0.016949
H    0.738539  1.525328  0.499352
H    -0.638910  1.000356  2.372238
C    -0.975253  -1.050148  1.804955
C    -1.751169  -1.393999  3.088076
C    -1.033957  -2.392039  4.011851
N    -1.625072  -2.434304  5.361807
C    -1.331542  -1.560620  6.323391
N    -0.488078  -0.558261  6.277404
N    -1.958934  -1.723698  7.624799
H    -0.397016  -1.917763  1.448584
H    -1.691331  -0.818098  1.006402
H    -2.728553  -1.815943  2.816253
H    -1.963672  -0.466983  3.642776
H    0.028541  -2.148884  4.130827
H    -1.089272  -3.410506  3.608753
H    -2.383427  -3.091743  5.525202
H    -0.044219  -0.354600  5.356451
H    -2.081697  -2.709257  7.874850
H    -2.896670  -1.308407  7.623745
O    2.272256  -0.291585  2.123471
H    2.994151  -0.431066  2.769036
Ba    -0.005790  0.118317  8.613226
