27
Energy: -241645.343735 eV PBE+vdW (tier 2 basis)
N    0.248721  0.963120  0.633725
C    0.463606  -0.028644  1.724717
C    1.952751  -0.397905  1.680516
O    2.776490  0.522438  1.617559
H    0.326077  0.508879  -0.281556
H    -0.716465  1.300848  0.712348
H    0.455681  0.558365  2.651765
C    -0.622005  -1.110309  1.914785
C    -1.066672  -1.291796  3.382392
C    -1.839227  -0.125676  4.045156
N    -1.019140  1.066085  4.339798
C    -0.801154  2.133093  3.530471
N    0.300125  2.878786  3.545316
N    -1.730488  2.394943  2.547364
H    -0.312606  -2.086465  1.503271
H    -1.491523  -0.830733  1.301243
H    -0.202859  -1.553025  4.016183
H    -1.732889  -2.165100  3.430133
H    -2.251914  -0.475701  4.999496
H    -2.704624  0.161678  3.433953
H    -0.315635  0.925185  5.060316
H    0.840341  2.697254  4.398376
H    -1.755415  3.374669  2.276992
H    -2.665349  2.022643  2.691305
O    2.372035  -1.638941  1.773887
H    1.634120  -2.280971  1.784529
Ba    2.006796  3.009802  1.488261
