27
Energy: -241645.542205 eV PBE+vdW (tier 2 basis)
N    1.236537  -0.636475  1.229246
C    -0.006598  -0.203489  1.870471
C    0.116883  -0.380425  3.379489
O    1.156584  -0.756272  3.936333
H    1.150077  -0.521476  0.216673
H    2.007357  -0.025264  1.504541
H    -0.183325  0.888359  1.762456
C    -1.241926  -0.890236  1.206849
C    -1.083561  -2.352512  0.756684
C    -1.401730  -3.463480  1.762855
N    -0.790328  -3.363726  3.108406
C    0.473381  -3.665131  3.469392
N    0.879651  -3.989080  4.676479
N    1.528841  -3.469928  2.546433
H    -1.463909  -0.291388  0.313433
H    -2.131690  -0.779324  1.846549
H    -0.090991  -2.505887  0.313027
H    -1.781882  -2.515586  -0.076931
H    -1.147236  -4.437482  1.321129
H    -2.481938  -3.481361  1.952167
H    -1.456488  -3.381327  3.876191
H    0.131093  -4.270252  5.313933
H    1.349023  -2.800268  1.785323
H    1.948668  -4.341649  2.222685
O    -0.906625  -0.051819  4.152000
H    -1.663694  0.294662  3.639384
Ba    2.884831  -2.381962  4.804481
