27
Energy: -241645.901024 eV PBE+vdW (tier 2 basis)
N    1.390931  -1.017402  -0.489738
C    0.444039  -0.295112  0.369172
C    1.277258  0.255415  1.543707
O    0.800307  1.020662  2.409387
H    1.127131  -1.986185  -0.663675
H    1.571793  -0.563486  -1.383780
H    0.047546  0.592518  -0.148001
C    -0.731888  -1.170457  0.863259
C    -1.988994  -1.106189  -0.025856
C    -3.074089  -0.124098  0.446170
N    -2.593927  1.249930  0.654514
C    -2.359999  1.899668  1.808001
N    -1.933490  3.135150  1.949689
N    -2.484470  1.216242  3.046727
H    -0.976168  -0.895241  1.899096
H    -0.369959  -2.206742  0.930142
H    -2.467131  -2.094482  -0.069324
H    -1.704553  -0.875036  -1.063757
H    -3.537616  -0.478504  1.376629
H    -3.886791  -0.084991  -0.291606
H    -2.418670  1.790009  -0.189602
H    -1.963621  3.693288  1.094023
H    -3.248715  1.614045  3.597201
H    -2.619857  0.209116  2.976096
O    2.510386  -0.122840  1.546310
H    2.540535  -0.701222  0.674198
Ba    -0.155907  2.788819  3.825635
