27
Energy: -241646.609053 eV PBE+vdW (tier 2 basis)
N    0.074717  -1.542043  2.344843
C    0.547221  -0.243012  1.837182
C    1.899812  -0.326862  1.122237
O    2.626772  -1.376238  1.234787
H    0.881217  -2.065130  2.700627
H    -1.086242  -1.629155  3.773951
H    -0.162371  0.109577  1.072576
C    0.611804  0.826697  2.961669
C    -0.662682  1.668751  3.114756
C    -1.940508  0.958553  3.573919
N    -1.912601  0.535751  4.980384
C    -1.973464  -0.725625  5.436064
N    -1.657633  -1.751315  4.644903
N    -2.349091  -0.938505  6.710878
H    1.432077  1.524211  2.746764
H    0.872655  0.321876  3.905018
H    -0.889307  2.152476  2.152087
H    -0.452051  2.494217  3.811894
H    -2.171765  0.079329  2.961238
H    -2.789376  1.647373  3.459400
H    -1.993557  1.270837  5.676075
H    -1.895784  -2.691975  4.935157
H    -2.206788  -1.836702  7.155298
H    -2.855745  -0.237554  7.237319
O    2.291086  0.671667  0.417978
H    -0.289212  -2.106787  1.573969
Ba    4.360591  -0.439517  -0.298462
