27
Energy: -241644.826106 eV PBE+vdW (tier 2 basis)
N    -0.329448  -0.580242  -0.804198
C    -0.790432  -0.138312  0.517329
C    0.401393  0.423320  1.291968
O    0.772151  0.062655  2.409448
H    -1.133695  -0.763862  -1.407164
H    0.201662  0.159305  -1.266272
H    -1.492178  0.721765  0.474632
C    -1.534932  -1.270044  1.252908
C    -0.976870  -2.697870  1.091235
C    0.446036  -2.954222  1.576117
N    0.568885  -2.642996  3.044784
C    1.876236  -2.851802  3.588127
N    2.091794  -4.088141  3.983659
N    2.679504  -1.793357  3.671900
H    -2.561424  -1.288678  0.860332
H    -1.643128  -0.991738  2.312004
H    -0.999397  -2.982245  0.030866
H    -1.682717  -3.386424  1.598471
H    1.166147  -2.356967  0.997779
H    0.735074  -4.007546  1.408884
H    0.321596  -1.640538  3.126197
H    3.040415  -4.284481  4.307981
H    2.372668  -0.895476  3.290685
H    3.589990  -1.845239  4.118892
O    0.996659  1.402326  0.615630
H    1.725105  1.783307  1.147075
Ba    -0.268914  -4.977800  4.148416
