27
Energy: -241646.357585 eV PBE+vdW (tier 2 basis)
N    0.762332  0.468595  0.198394
C    -0.271180  0.421123  1.225339
C    -0.386884  1.678367  2.103268
O    -1.400539  1.800529  2.885857
H    0.549758  1.177334  -0.504146
H    1.659492  0.736100  0.607410
H    -1.251047  0.349113  0.723160
C    -0.120200  -0.834249  2.118825
C    -0.589595  -2.140899  1.457944
C    0.249676  -2.679130  0.295805
N    1.508073  -3.270304  0.779266
C    2.545972  -3.600403  0.001692
N    3.653400  -4.134535  0.544377
N    2.500957  -3.381713  -1.317923
H    -0.719456  -0.691449  3.027844
H    0.930956  -0.908812  2.442946
H    -1.612085  -2.002534  1.077193
H    -0.678717  -2.923161  2.229819
H    0.497310  -1.848767  -0.381502
H    -0.328719  -3.445342  -0.244725
H    1.497944  -3.657748  1.718152
H    4.365065  -4.566221  -0.032074
H    3.320637  -3.499626  -1.900133
H    1.646737  -3.082218  -1.769192
O    0.500406  2.601263  2.039392
H    3.749906  -4.241319  1.545907
Ba    -0.778328  4.065426  3.575727
