27
Energy: -241645.728301 eV PBE+vdW (tier 2 basis)
N    -0.038845  -2.308962  1.298327
C    -0.445422  -0.919059  1.644352
C    0.303895  -0.524182  2.905661
O    0.726330  -1.341376  3.730950
H    -0.662638  -2.645468  0.558431
H    0.887907  -2.287832  0.859027
H    -0.150364  -0.195858  0.868752
C    -1.997689  -0.889727  1.769386
C    -2.705795  0.155666  2.648521
C    -2.824942  -0.181014  4.152531
N    -3.259571  -1.573984  4.359064
C    -2.463405  -2.591786  4.761921
N    -2.491398  -3.845399  4.368966
N    -1.397797  -2.324916  5.649737
H    -2.306279  -1.897537  2.090870
H    -2.372979  -0.779761  0.743149
H    -3.724785  0.265593  2.250119
H    -2.250391  1.150894  2.548228
H    -3.544440  0.501383  4.622627
H    -1.869922  -0.028174  4.669836
H    -4.039829  -1.860573  3.770451
H    -3.296513  -4.085312  3.785564
H    -1.461682  -2.946822  6.457881
H    -1.320250  -1.363446  5.974652
O    0.460922  0.782019  3.026703
H    0.977046  0.994672  3.833564
Ba    0.106235  -3.899030  3.758595
