27
Energy: -241644.74133 eV PBE+vdW (tier 2 basis)
N    0.996575  -0.999630  -0.248201
C    0.922942  -0.454636  1.104290
C    2.286903  -0.599791  1.802825
O    2.566233  -1.498328  2.601925
H    1.375509  -1.945469  -0.281322
H    1.498438  -0.415061  -0.913606
H    0.695013  0.620762  1.015268
C    -0.217938  -1.140567  1.870790
C    -0.500138  -0.590984  3.290896
C    -0.494775  -1.660901  4.387263
N    0.837166  -2.277041  4.450502
C    1.348300  -2.966324  5.443461
N    0.802808  -3.355474  6.588496
N    2.748792  -3.346163  5.340595
H    -0.008945  -2.222207  1.900513
H    -1.108098  -1.038006  1.239595
H    -1.482280  -0.103072  3.315487
H    0.224729  0.191692  3.565384
H    -1.245781  -2.438752  4.175722
H    -0.737436  -1.214425  5.363992
H    1.468990  -2.068420  3.628879
H    -0.200526  -3.174473  6.654804
H    3.273114  -2.659555  4.784686
H    2.824600  -4.227207  4.819525
O    3.264820  0.243231  1.462260
H    2.955937  0.913471  0.824199
Ba    2.722081  -3.903300  8.085536
