27
Energy: -241645.208533 eV PBE+vdW (tier 2 basis)
N    -0.344425  -1.536603  0.876314
C    -0.011318  -0.274790  1.578684
C    1.497412  -0.022235  1.660523
O    1.907328  1.144729  1.990174
H    0.344432  -2.248869  1.144443
H    -1.793748  -2.223296  1.156831
H    -0.431568  0.563189  1.002462
C    -0.635232  -0.252757  2.990899
C    -2.174213  -0.151165  2.944507
C    -2.927698  -1.140583  3.850521
N    -2.464015  -2.539574  3.803762
C    -2.530481  -3.432704  2.774140
N    -2.373077  -4.689459  2.702839
N    -2.714581  -2.804131  1.433762
H    -0.215462  0.592375  3.549420
H    -0.326849  -1.170579  3.515469
H    -2.521149  -0.243692  1.904847
H    -2.494678  0.855076  3.245781
H    -4.009741  -1.076593  3.649165
H    -2.799832  -0.838785  4.896945
H    -2.365582  -2.985735  4.709953
H    -2.229672  -5.161986  3.598825
H    -2.831889  -3.600965  0.793113
H    -3.547870  -2.207052  1.373914
O    2.322139  -0.969765  1.411608
H    -0.223711  -1.417194  -0.132745
Ba    4.290209  0.556979  1.754358
