27
Energy: -241644.49014 eV PBE+vdW (tier 2 basis)
N    -0.051751  0.165049  0.378797
C    0.198020  -0.206288  1.757047
C    1.687091  -0.352227  2.048512
O    2.138834  -0.607886  3.166948
H    -1.035700  0.381059  0.224388
H    0.496216  0.971194  0.082557
H    -0.127829  0.554053  2.501617
C    -0.585880  -1.522805  2.027432
C    -0.407584  -2.221072  3.384705
C    -0.696040  -1.321038  4.583932
N    -0.425205  -1.995656  5.887718
C    0.925991  -2.260337  6.291075
N    0.973202  -3.115310  7.305846
N    1.936666  -1.711108  5.640250
H    -0.324313  -2.225073  1.224737
H    -1.649114  -1.278044  1.881686
H    0.611312  -2.628582  3.452743
H    -1.097304  -3.083893  3.405142
H    -1.756147  -1.035496  4.605410
H    -0.120851  -0.385497  4.527450
H    -0.849279  -1.444228  6.640560
H    1.900397  -3.228857  7.721147
H    2.887212  -1.974669  5.885786
H    1.842908  -1.145306  4.768359
O    2.470752  -0.139878  0.998741
H    3.405847  -0.207225  1.283056
Ba    -1.017326  -4.568972  6.932927
