27
Energy: -241644.78627 eV PBE+vdW (tier 2 basis)
N    -0.482579  -0.832655  0.346108
C    0.387015  -0.440141  1.514157
C    1.844234  -0.847380  1.265127
O    2.670910  -0.924712  2.132831
H    0.008818  -0.637489  -0.533736
H    -1.353122  -0.290970  0.357493
H    0.401013  0.660905  1.553207
C    -0.162549  -0.970872  2.841658
C    -0.155578  -2.494566  3.049190
C    -1.256103  -3.307385  2.358641
N    -1.118467  -3.334833  0.895256
C    -1.605168  -4.348265  0.241671
N    -2.300904  -5.429438  0.645811
N    -1.337944  -4.446404  -1.197302
H    -1.175362  -0.563065  2.991560
H    0.459547  -0.513081  3.621801
H    -0.268327  -2.671387  4.127880
H    0.828770  -2.909856  2.786340
H    -2.247399  -2.901566  2.629329
H    -1.213445  -4.332570  2.762825
H    -0.743100  -1.952705  0.428579
H    -2.615331  -5.368869  1.615287
H    -2.066226  -3.950820  -1.721237
H    -0.453833  -3.986096  -1.425590
O    2.086123  -1.049997  -0.063128
H    3.048616  -1.196103  -0.166995
Ba    -2.027623  -7.159240  -1.061964
