27
Energy: -241645.064567 eV PBE+vdW (tier 2 basis)
N    1.416621  -0.567856  1.065485
C    0.090322  -0.378034  1.607208
C    0.204169  0.655154  2.719637
O    1.271863  0.924672  3.271360
H    -5.604574  0.818491  -0.130952
H    1.356884  -1.173636  0.242284
H    -0.619969  0.049255  0.862467
C    -0.519673  -1.716463  2.147615
C    -1.916514  -1.761426  2.792574
C    -3.105978  -1.321639  1.913735
N    -3.605466  0.015473  2.318904
C    -4.565117  0.693958  1.635433
N    -4.978054  0.264216  0.442598
N    -5.057827  1.824823  2.151948
H    0.202626  -2.127184  2.867386
H    -0.505522  -2.404596  1.288581
H    -1.932441  -1.202112  3.741992
H    -2.091926  -2.804597  3.086180
H    -3.925349  -2.052161  1.994012
H    -2.798821  -1.266137  0.859409
H    -3.649675  0.142824  3.329754
H    -4.760992  -0.668754  0.114271
H    -4.673697  2.235665  2.994986
H    -5.847694  2.301549  1.731344
O    -0.897981  1.299408  3.115917
H    -1.653208  1.029717  2.552641
Ba    3.444250  0.217063  2.045611
