27
Energy: -241646.035844 eV PBE+vdW (tier 2 basis)
N    0.049982  0.371559  0.273011
C    0.155527  -0.215134  1.667457
C    1.582262  -0.848646  1.667778
O    2.061358  -1.170548  2.815206
H    -0.830106  0.146221  -0.204533
H    0.183952  1.388374  0.247394
H    0.107885  0.605260  2.393216
C    -0.989654  -1.231631  1.869219
C    -0.958235  -2.080655  3.148957
C    -1.234161  -1.322000  4.458992
N    -1.024436  -2.157525  5.639773
C    0.197614  -2.494660  6.124940
N    1.316539  -1.876578  5.758403
N    0.271870  -3.543666  6.983378
H    -0.977728  -1.925064  1.013122
H    -1.943820  -0.682196  1.817179
H    0.008700  -2.595025  3.225874
H    -1.716742  -2.868001  3.038615
H    -2.274705  -0.975560  4.493261
H    -0.619588  -0.411309  4.540026
H    -1.846266  -2.547940  6.087980
H    1.056101  -0.997335  5.300158
H    1.023649  -3.544962  7.662282
H    -0.559488  -4.061248  7.244137
O    2.122503  -0.993759  0.565508
H    0.886164  -0.107579  -0.200068
Ba    3.437414  -2.322520  4.415089
