27
Energy: -241645.210905 eV PBE+vdW (tier 2 basis)
N    -1.582020  -0.970830  0.820669
C    -0.589267  -0.686463  1.924095
C    0.426333  0.328006  1.403318
O    0.207912  0.919659  0.285934
H    -2.605457  -1.044846  1.190975
H    -1.515824  -0.206731  0.127764
H    -1.167601  -0.147303  2.698455
C    0.040577  -1.958081  2.549426
C    -0.356423  -2.243392  4.010838
C    -1.635883  -3.079054  4.225260
N    -2.733701  -2.737415  3.324296
C    -3.309733  -1.490319  3.288333
N    -3.089270  -0.469905  4.034618
N    -4.052130  -1.260510  2.084603
H    1.129634  -1.834538  2.514250
H    -0.189966  -2.826674  1.911857
H    -0.409992  -1.289184  4.553708
H    0.460725  -2.799098  4.490227
H    -1.939600  -3.012515  5.282560
H    -1.412972  -4.136202  4.035071
H    -3.250796  -3.516807  2.930477
H    -2.561738  -0.704849  4.878000
H    -4.657205  -0.446834  2.210532
H    -4.613346  -2.055746  1.774427
O    1.436490  0.611059  2.124353
H    -1.350694  -1.847199  0.338831
Ba    2.231759  2.427213  0.629987
