27
Energy: -241645.06726 eV PBE+vdW (tier 2 basis)
N    -0.364857  1.148260  1.295037
C    0.507788  0.167300  2.023437
C    1.883276  0.067729  1.374746
O    2.167519  0.809595  0.371801
H    -1.238813  1.279433  1.971721
H    0.113371  2.043903  1.145347
H    0.651785  0.609602  3.026058
C    -0.194240  -1.199781  2.164203
C    -1.696592  -1.166510  2.523007
C    -2.118228  -0.269518  3.694323
N    -2.168714  1.171123  3.302997
C    -1.562795  2.235477  4.067915
N    -1.824769  3.471415  3.910749
N    -0.475910  1.840897  4.849973
H    0.362917  -1.752961  2.931560
H    -0.075318  -1.770797  1.230803
H    -1.984793  -2.199643  2.761931
H    -2.301993  -0.906016  1.639570
H    -1.430007  -0.405356  4.536048
H    -3.109754  -0.575178  4.051539
H    -3.119917  1.445220  3.055763
H    -2.573302  3.666125  3.240369
H    -0.104398  2.654283  5.340358
H    -0.652076  1.085121  5.508920
O    2.727641  -0.747781  1.871792
H    -0.662625  0.800425  0.376725
Ba    4.533875  -0.113414  0.285427
