27
Energy: -241645.463208 eV PBE+vdW (tier 2 basis)
N    0.254840  0.585984  1.043544
C    0.089117  0.106372  2.388900
C    1.340053  0.032133  3.266219
O    1.306351  0.185799  4.506726
H    0.702002  1.498708  0.981185
H    0.749824  -0.065735  0.435618
H    -0.565580  0.813703  2.924076
C    -0.583260  -1.295814  2.343042
C    -1.014290  -1.960940  3.657232
C    -2.310251  -1.474586  4.305553
N    -2.282662  -0.040349  4.777230
C    -3.174111  0.226987  5.867341
N    -2.636504  0.053441  7.046114
N    -4.412433  0.654243  5.582196
H    0.109920  -1.972293  1.821190
H    -1.449610  -1.180497  1.674406
H    -0.185605  -1.964425  4.388529
H    -1.181353  -3.027661  3.444443
H    -2.528076  -2.089763  5.188824
H    -3.150051  -1.611846  3.607090
H    -2.485144  0.579681  3.990266
H    -3.292406  0.132770  7.826605
H    -4.786752  0.620083  4.640087
H    -5.061004  0.924103  6.316309
O    2.458372  -0.213893  2.621679
H    3.219642  -0.255204  3.238355
Ba    -0.060286  0.250364  6.635771
