27
Energy: -241646.241828 eV PBE+vdW (tier 2 basis)
N    -0.051072  -0.220810  0.013739
C    -0.750858  -0.416460  1.324641
C    -0.466503  0.771342  2.271273
O    0.645127  1.418752  2.037595
H    0.060016  -1.134397  -0.437611
H    -0.679465  0.292882  -0.612267
H    -1.838645  -0.462552  1.173995
C    -0.267235  -1.735209  1.965963
C    -0.820470  -2.069990  3.360339
C    -2.193237  -2.745303  3.440401
N    -3.367316  -2.063350  2.835705
C    -4.118728  -1.127849  3.466516
N    -3.525938  -0.173024  4.179643
N    -5.454735  -1.174005  3.343460
H    0.832611  -1.690479  2.038890
H    -0.493927  -2.558927  1.268264
H    -0.787387  -1.185701  4.008954
H    -0.132938  -2.790894  3.827039
H    -2.416054  -2.944114  4.498400
H    -2.149221  -3.719477  2.936653
H    -3.881409  -2.626889  2.166236
H    -4.088532  0.425854  4.774678
H    -6.031538  -0.377627  3.590391
H    -5.934954  -2.035437  3.110286
O    -1.234524  1.023849  3.195480
H    -2.600362  0.195086  3.880829
Ba    2.229844  1.419715  0.382077
