27
Energy: -241645.018225 eV PBE+vdW (tier 2 basis)
N    0.234518  1.146283  0.879296
C    0.134916  0.087625  1.939240
C    1.537175  -0.553011  2.134640
O    2.539521  0.245487  1.922150
H    0.104430  0.688752  -0.030941
H    -0.578937  1.763699  0.961572
H    -0.072778  0.623242  2.881750
C    -0.984394  -0.941409  1.670380
C    -1.773213  -1.487266  2.878899
C    -1.037396  -2.173128  4.027894
N    -0.164844  -3.331785  3.582051
C    -0.804035  -4.378256  2.682604
N    -0.378151  -4.622413  1.519020
N    -1.903720  -4.941283  3.250055
H    -0.575818  -1.767495  1.071331
H    -1.738267  -0.460474  1.030051
H    -2.536596  -2.174258  2.486886
H    -2.335704  -0.664135  3.346216
H    -1.763342  -2.545560  4.759510
H    -0.353094  -1.494043  4.553977
H    0.247486  -3.789157  4.407174
H    0.432178  -4.077226  1.223499
H    -2.314126  -5.710613  2.727465
H    -2.007088  -4.999697  4.256553
O    1.662472  -1.728514  2.486796
H    0.630619  -2.867740  3.051735
Ba    2.824618  2.287069  0.879033
