27
Energy: -241644.79492 eV PBE+vdW (tier 2 basis)
N    0.001412  0.291896  0.647579
C    0.207088  -0.536828  1.838506
C    1.574733  -1.197198  1.706940
O    1.811053  -2.270577  1.134674
H    0.606945  1.111783  0.630648
H    0.123043  -0.224810  -0.223158
H    0.246737  0.143049  2.700814
C    -0.972821  -1.500045  2.009103
C    -1.085479  -2.217097  3.364183
C    -0.334397  -3.546336  3.514360
N    -0.861767  -4.576955  2.599138
C    -0.260647  -5.145861  1.557361
N    -0.802628  -5.966276  0.674929
N    1.133196  -4.888996  1.295824
H    -0.988061  -2.221926  1.174750
H    -1.864373  -0.875646  1.867792
H    -2.148382  -2.401594  3.582016
H    -0.740807  -1.559023  4.176346
H    -0.448295  -3.928023  4.538110
H    0.738703  -3.434387  3.328269
H    -1.845997  -4.808228  2.733483
H    -1.797769  -6.155428  0.812148
H    1.701092  -5.155021  2.107387
H    1.307718  -3.851986  1.176380
O    2.552691  -0.425152  2.183756
H    3.420411  -0.821122  1.962595
Ba    1.066849  -6.497251  -0.920781
