27
Energy: -241646.048568 eV PBE+vdW (tier 2 basis)
N    0.476630  0.079067  0.208902
C    -0.183550  -0.316318  1.513627
C    1.018889  -0.365377  2.509752
O    0.715492  -0.608799  3.730859
H    0.341119  -0.604710  -0.543293
H    0.206787  1.005102  -0.137135
H    -0.845374  0.504560  1.817581
C    -0.957248  -1.640956  1.420491
C    -2.473527  -1.519581  1.153448
C    -3.352534  -1.666736  2.403293
N    -3.108211  -0.655593  3.441622
C    -2.486980  -0.863731  4.622439
N    -2.009659  -1.972959  5.123015
N    -2.206614  0.284871  5.411772
H    -0.789858  -2.181936  2.361249
H    -0.485605  -2.269687  0.649993
H    -2.791465  -2.310674  0.460359
H    -2.707116  -0.571938  0.643726
H    -3.212240  -2.662840  2.843182
H    -4.412592  -1.607983  2.123826
H    -3.606071  0.223344  3.333258
H    -2.312359  -2.817599  4.636552
H    -2.714521  0.259902  6.298049
H    -2.370883  1.179947  4.951948
O    2.140384  -0.160359  2.034333
H    1.511754  0.090823  0.536708
Ba    0.327651  -1.139328  6.016923
