27
Energy: -241644.534134 eV PBE+vdW (tier 2 basis)
N    0.374538  -0.586357  0.310718
C    0.235342  -0.331908  1.728164
C    1.518550  -0.635450  2.491749
O    1.679823  -0.344028  3.680495
H    -0.482685  -0.370992  -0.195857
H    1.136109  -0.061902  -0.116594
H    0.025627  0.729124  1.990919
C    -0.936085  -1.210489  2.250996
C    -1.219938  -1.208634  3.757869
C    -1.626124  0.158586  4.319965
N    -1.700087  0.180201  5.812597
C    -0.532185  0.472178  6.584420
N    -0.833396  0.747303  7.851346
N    0.654763  0.531591  6.008006
H    -0.739989  -2.241264  1.926437
H    -1.835667  -0.887038  1.704051
H    -0.344940  -1.591118  4.302629
H    -2.035802  -1.924668  3.946971
H    -2.618253  0.442913  3.941775
H    -0.933622  0.953737  4.017978
H    -2.073645  -0.715770  6.144712
H    -0.023172  0.803092  8.471992
H    0.883265  0.193744  5.038742
H    1.451340  0.847055  6.555235
O    2.461557  -1.229245  1.774728
H    3.246650  -1.372082  2.343516
Ba    -3.086190  1.780772  7.759340
