27
Energy: -241646.48494 eV PBE+vdW (tier 2 basis)
N    0.395659  -2.030203  1.096838
C    0.385821  -0.577007  0.723413
C    1.367404  -0.338582  -0.459202
O    2.386286  -1.161719  -0.486919
H    -0.276181  -2.512428  0.487676
H    -0.010530  -2.125749  2.032707
H    0.833404  -0.039625  1.577419
C    -1.034052  -0.035193  0.488004
C    -1.132488  1.505462  0.372699
C    -1.700135  1.941964  -0.987653
N    -1.553645  3.372145  -1.257613
C    -0.513101  3.931344  -1.895093
N    0.572315  3.215034  -2.194553
N    -0.575364  5.231099  -2.234190
H    -1.667230  -0.379092  1.317687
H    -1.440744  -0.509304  -0.420530
H    -0.143369  1.961908  0.509639
H    -1.767252  1.901841  1.176285
H    -2.771396  1.710097  -1.052550
H    -1.208563  1.391404  -1.799805
H    -2.265894  3.998565  -0.898202
H    1.261570  3.586728  -2.836178
H    -1.451935  5.737108  -2.230684
H    0.240955  5.725496  -2.570754
O    1.195044  0.574120  -1.257876
H    0.734402  2.269619  -1.829450
Ba    2.935908  -3.112574  0.586820
