27
Energy: -241645.225526 eV PBE+vdW (tier 2 basis)
N    -0.098074  1.604343  2.285046
C    0.252734  0.301193  2.880997
C    1.752473  -0.020689  2.801045
O    2.205324  -1.001893  3.486787
H    -1.681609  1.704789  2.243382
H    0.324915  2.373509  2.809831
H    0.011581  0.342698  3.955293
C    -0.558358  -0.853173  2.249825
C    -2.075919  -0.861312  2.520607
C    -2.942066  0.111897  1.715164
N    -2.789425  1.528991  2.200514
C    -3.415782  2.695340  1.456701
N    -3.595358  3.818135  2.005544
N    -3.605777  2.445226  0.129126
H    -0.145840  -1.789487  2.647790
H    -0.372350  -0.870277  1.162723
H    -2.275099  -0.745777  3.598847
H    -2.445333  -1.865942  2.270050
H    -4.001160  -0.164843  1.786714
H    -2.642700  0.095897  0.659470
H    -3.141732  1.590494  3.162667
H    -3.301408  3.909192  2.978977
H    -4.021967  3.228885  -0.369344
H    -3.949232  1.540105  -0.172425
O    2.520059  0.682732  2.058040
H    0.286718  1.673720  1.337992
Ba    4.538966  -0.643472  2.752524
