27
Energy: -241644.192609 eV PBE+vdW (tier 2 basis)
N    -1.083314  0.286444  0.367277
C    -0.235555  0.146510  1.553588
C    0.798549  1.279162  1.654290
O    1.973178  1.172264  1.354592
H    -1.738769  1.060317  0.476184
H    -0.524251  0.482637  -0.465146
H    -0.893061  0.200913  2.434201
C    0.477388  -1.211655  1.511965
C    1.219299  -1.561772  2.807749
C    2.237963  -2.686154  2.636738
N    1.578918  -3.912390  2.123359
C    2.028710  -5.156030  2.162801
N    1.412206  -6.261779  1.774828
N    3.368835  -5.415889  2.636984
H    1.189431  -1.191724  0.670768
H    -0.307346  -1.948469  1.271015
H    0.512482  -1.814888  3.612626
H    1.795968  -0.692079  3.151501
H    2.717827  -2.920586  3.597098
H    3.012004  -2.371344  1.918084
H    0.675951  -3.751842  1.673504
H    0.430634  -6.131894  1.519136
H    3.369414  -5.505495  3.659361
H    4.007132  -4.643259  2.424509
O    0.223508  2.429612  2.062271
H    0.903995  3.132119  2.033553
Ba    3.171603  -8.021234  1.472604
