27
Energy: -241646.328368 eV PBE+vdW (tier 2 basis)
N    0.974285  0.042375  0.892658
C    -0.219592  -0.251140  1.793165
C    0.384755  -0.732832  3.130288
O    -0.389423  -0.906799  4.104858
H    1.137040  1.049196  0.771700
H    1.787668  -0.372518  1.415002
H    -0.765882  0.687176  1.946028
C    -1.152696  -1.321765  1.206412
C    -0.518904  -2.725822  1.088548
C    -1.460563  -3.866606  1.540905
N    -0.731021  -5.031846  2.028300
C    -0.049628  -5.050429  3.203281
N    -0.158496  -4.100072  4.125096
N    0.831394  -6.067506  3.402190
H    -1.553634  -0.967938  0.245823
H    -2.014333  -1.348530  1.888862
H    0.381171  -2.783601  1.717451
H    -0.182421  -2.924848  0.061962
H    -2.101764  -4.204901  0.719257
H    -2.149846  -3.503428  2.320703
H    -0.758485  -5.877815  1.469869
H    -1.007440  -3.554807  3.944561
H    0.989187  -6.370349  4.355823
H    0.962010  -6.779567  2.692642
O    1.634042  -1.006075  3.136168
H    0.891549  -0.381154  -0.038869
Ba    1.284588  -2.398577  5.411729
