27
Energy: -241646.423947 eV PBE+vdW (tier 2 basis)
N    0.654493  -0.465071  -0.286465
C    0.227783  -0.036889  1.035818
C    1.346782  0.472591  1.951733
O    1.043785  1.152159  3.000616
H    -2.892723  -4.668220  -1.958201
H    0.823679  0.328961  -0.902148
H    -0.466975  0.811271  0.926599
C    -0.540468  -1.181917  1.746968
C    -1.845195  -1.506621  1.010151
C    -2.439568  -2.852122  1.440981
N    -3.720375  -3.170597  0.793552
C    -3.875054  -3.809076  -0.372234
N    -2.828197  -4.021333  -1.181877
N    -5.087560  -4.259691  -0.730359
H    -0.746279  -0.903421  2.790147
H    0.115794  -2.067989  1.768803
H    -1.635267  -1.506109  -0.070922
H    -2.583075  -0.709621  1.188295
H    -2.630699  -2.866843  2.522176
H    -1.742298  -3.679176  1.240982
H    -4.566787  -2.855497  1.256098
H    -1.971138  -3.492075  -1.083975
H    -5.286214  -4.536311  -1.684109
H    -5.838629  -4.347600  -0.056827
O    2.574108  0.227488  1.668631
H    1.529139  -0.989405  -0.233361
Ba    3.391610  1.604679  3.545977
