27
Energy: -241644.495672 eV PBE+vdW (tier 2 basis)
N    0.427429  -1.609264  0.585785
C    -0.010556  -0.438808  1.335398
C    1.179191  0.137772  2.102840
O    2.035060  -0.548126  2.646697
H    -0.335425  -1.963377  0.006221
H    1.193316  -1.380327  -0.048714
H    -0.425142  0.371132  0.702089
C    -1.141491  -0.834528  2.334048
C    -0.850642  -2.094295  3.171003
C    -0.133399  -1.854090  4.508912
N    0.433806  -3.113672  5.078063
C    1.686511  -3.622439  4.621756
N    2.093378  -4.653473  5.364665
N    2.341189  -3.036794  3.636415
H    -2.036230  -1.025637  1.725427
H    -1.396354  0.028386  2.967595
H    -0.254283  -2.773099  2.542511
H    -1.802239  -2.606164  3.377744
H    -0.835679  -1.457437  5.254936
H    0.686460  -1.132243  4.430908
H    -0.251332  -3.868707  4.966044
H    2.901110  -5.150579  4.983655
H    3.285193  -3.348020  3.424271
H    2.029662  -2.178661  3.118207
O    1.243910  1.464828  2.238037
H    0.556366  1.908668  1.705909
Ba    1.322707  -4.064066  7.644101
