27
Energy: -241644.418216 eV PBE+vdW (tier 2 basis)
N    -0.116778  0.395339  0.985523
C    -0.277415  -0.351512  2.298628
C    0.721622  0.242778  3.294730
O    0.628108  -0.085287  4.517806
H    -0.813577  1.140376  0.863261
H    -0.201038  -0.269124  0.178378
H    -1.295305  -0.163117  2.665834
C    -0.069861  -1.867721  2.118903
C    -1.081014  -2.547358  1.175190
C    -0.669907  -2.577729  -0.300961
N    -1.721459  -3.135567  -1.114137
C    -1.494230  -3.196416  -2.521470
N    -2.218043  -2.442784  -3.260108
N    -0.457885  -4.049066  -2.859821
H    -0.160989  -2.294760  3.126405
H    0.964757  -2.063308  1.791351
H    -2.070904  -2.072584  1.283186
H    -1.220757  -3.586745  1.500159
H    0.250993  -3.163943  -0.427016
H    -0.388563  -1.547013  -0.682406
H    -2.605570  -2.639373  -0.992026
H    -2.095636  -2.624307  -4.260719
H    -0.307560  -4.186998  -3.853796
H    -0.398767  -4.910856  -2.324247
O    1.635952  1.028451  2.863240
H    0.822470  0.833815  0.984599
Ba    2.585323  1.271969  5.252325
