27
Energy: -241645.411974 eV PBE+vdW (tier 2 basis)
N    0.351645  -0.922485  0.255381
C    -0.066589  -0.468197  1.611366
C    1.206770  0.092060  2.259323
O    1.798423  0.982065  1.642944
H    1.102444  -1.615852  0.326529
H    -0.428951  -1.409650  -0.191930
H    -0.633137  0.462214  1.467991
C    -1.047491  -1.378920  2.358565
C    -2.403290  -1.440227  1.618183
C    -3.390647  -0.257639  1.762503
N    -2.879120  1.125654  1.636682
C    -2.229483  1.682553  0.590288
N    -1.924973  1.150614  -0.568197
N    -1.620014  2.940270  0.819654
H    -1.206402  -0.992056  3.378514
H    -0.642757  -2.397859  2.453810
H    -2.960514  -2.311519  1.988969
H    -2.240549  -1.668201  0.552916
H    -3.835044  -0.290796  2.764356
H    -4.218873  -0.411551  1.054301
H    -3.213141  1.764415  2.352550
H    -2.480977  0.324914  -0.796697
H    -1.932088  3.642939  0.147497
H    -1.694097  3.307963  1.767878
O    1.652800  -0.312954  3.428728
H    1.117523  -1.035330  3.811897
Ba    0.718334  1.685326  -0.707185
