27
Energy: -241645.191485 eV PBE+vdW (tier 2 basis)
N    -0.109513  -0.311129  -0.004506
C    0.008745  -0.040471  1.449837
C    1.463507  -0.051413  1.912845
O    1.709890  0.115856  3.158050
H    -0.957795  -1.730055  -0.225011
H    -0.639264  0.432384  -0.461918
H    -0.321510  0.991105  1.663097
C    -0.903738  -0.953321  2.299809
C    -0.589714  -2.462139  2.367343
C    -0.387717  -3.224659  1.048907
N    -1.335944  -2.742983  -0.011796
C    -1.532742  -3.561351  -1.244958
N    -2.756382  -3.762352  -1.497359
N    -0.374021  -3.842770  -1.905813
H    -1.931422  -0.790726  1.940395
H    -0.901597  -0.571732  3.328789
H    -1.409731  -2.934365  2.926924
H    0.311727  -2.632629  2.973627
H    -0.533150  -4.301601  1.193826
H    0.624586  -3.059892  0.654236
H    -2.298080  -2.672850  0.349766
H    -2.945905  -4.294963  -2.350198
H    -0.433982  -4.456833  -2.711299
H    0.514308  -3.866173  -1.419537
O    2.414818  -0.165336  1.062356
H    0.824482  -0.305058  -0.425828
Ba    4.117928  0.496512  2.812679
