27
Energy: -241644.584827 eV PBE+vdW (tier 2 basis)
N    0.463848  -0.908055  1.200954
C    0.682603  0.560665  0.863015
C    1.805549  -0.334715  1.229190
O    2.756379  -0.698871  0.360150
H    -1.239372  -0.967215  2.392651
H    0.361407  -1.483460  0.360054
H    0.652662  0.806063  -0.202590
C    -0.052209  1.512319  1.772311
C    -1.552797  1.522289  1.422230
C    -2.491739  1.861066  2.573998
N    -2.403659  0.999810  3.785929
C    -2.566424  -0.334847  3.881790
N    -2.060087  -1.182571  2.977915
N    -3.226555  -0.825897  4.945254
H    0.372406  2.522325  1.686364
H    0.091518  1.209101  2.822249
H    -1.844999  0.557928  0.983576
H    -1.749811  2.262312  0.633547
H    -3.531441  1.853790  2.214247
H    -2.283351  2.872645  2.944634
H    -2.619700  1.496665  4.645343
H    -2.366808  -2.148685  2.985706
H    -3.146636  -1.799876  5.213629
H    -3.884901  -0.256635  5.464402
O    2.434589  -0.288856  2.546386
H    1.771185  -0.397440  3.246585
Ba    4.778434  -0.934750  1.381936
