27
Energy: -241645.240624 eV PBE+vdW (tier 2 basis)
N    0.984220  -1.541115  -0.046266
C    0.277004  -1.141413  1.149785
C    1.225994  -1.347191  2.332656
O    2.291212  -1.960554  2.213584
H    0.415231  -1.323199  -0.868012
H    -2.693783  0.792608  -1.633534
H    0.031223  -0.053945  1.162771
C    -1.038949  -1.939807  1.429333
C    -2.210275  -1.648092  0.478233
C    -2.962763  -0.346952  0.801704
N    -4.269856  -0.252810  0.137396
C    -4.599624  0.510821  -0.911884
N    -3.657930  1.093120  -1.668115
N    -5.892117  0.703644  -1.211548
H    -1.383736  -1.779760  2.465942
H    -0.782246  -3.005332  1.351457
H    -2.923345  -2.481571  0.561104
H    -1.873545  -1.651278  -0.570930
H    -2.384773  0.553094  0.551562
H    -3.160271  -0.290904  1.882204
H    -5.015948  -0.819233  0.530350
H    -3.894998  1.830322  -2.320941
H    -6.175954  1.066601  -2.113952
H    -6.627185  0.497658  -0.545454
O    0.920615  -0.868057  3.532083
H    0.080646  -0.373096  3.521939
Ba    3.158640  -2.564091  -0.093056
