27
Energy: -241646.067001 eV PBE+vdW (tier 2 basis)
N    1.066693  -0.447451  0.216590
C    0.592011  0.489147  1.315283
C    1.846115  0.819475  2.146372
O    2.864407  0.065022  2.011563
H    2.014897  -0.759478  0.542330
H    0.451051  -1.260145  0.089053
H    0.249848  1.416526  0.840919
C    -0.576780  -0.097479  2.148660
C    -0.560966  -1.594303  2.510297
C    0.518637  -2.153257  3.456439
N    0.286763  -1.963011  4.893555
C    1.114910  -1.231141  5.695584
N    1.696082  -0.108720  5.279244
N    1.344856  -1.683897  6.943571
H    -1.502806  0.095988  1.589259
H    -0.653817  0.529123  3.049204
H    -0.529713  -2.209481  1.593068
H    -1.549902  -1.824169  2.932496
H    1.511893  -1.747290  3.225607
H    0.580285  -3.237305  3.283932
H    -0.271833  -2.680571  5.347431
H    1.097320  0.294589  4.551923
H    1.649577  -1.033645  7.657238
H    1.072158  -2.612515  7.242275
O    1.767045  1.785570  2.950980
H    1.167945  0.026433  -0.688893
Ba    3.781912  1.079492  4.399876
