27
Energy: -241644.367603 eV PBE+vdW (tier 2 basis)
N    0.371636  -0.238801  0.043145
C    -0.130584  -0.108402  1.472020
C    1.042474  0.369011  2.328626
O    0.805774  0.766400  3.510073
H    -0.080951  -1.041429  -0.421640
H    0.194632  0.600490  -0.523010
H    -0.926126  0.647315  1.484526
C    -0.656400  -1.469727  1.967943
C    -1.851167  -2.026873  1.184553
C    -3.145796  -1.176594  1.275820
N    -4.356522  -1.926254  1.066430
C    -4.770083  -2.876862  2.014080
N    -4.296608  -3.048446  3.200950
N    -5.775206  -3.699181  1.543024
H    -0.946315  -1.322776  3.018434
H    0.176364  -2.192498  1.970710
H    -2.064117  -3.020479  1.605481
H    -1.601282  -2.225719  0.124329
H    -3.135807  -0.351007  0.547907
H    -3.199528  -0.705304  2.272488
H    -4.592912  -2.140264  0.102419
H    -3.507836  -2.434869  3.410796
H    -6.164078  -4.293630  2.269007
H    -6.484188  -3.273465  0.953858
O    2.226058  0.305426  1.845398
H    1.398878  -0.381311  0.088272
Ba    3.199613  1.130602  4.108023
