27
Energy: -241645.614756 eV PBE+vdW (tier 2 basis)
N    -0.136284  1.931242  1.316977
C    0.298544  0.568119  1.721325
C    1.415805  0.135156  0.769493
O    1.573684  0.646677  -0.341777
H    -1.043664  2.123144  1.750768
H    0.499374  2.621145  1.730424
H    0.743400  0.584339  2.731319
C    -0.948207  -0.387258  1.781057
C    -0.834619  -1.855847  1.335443
C    -0.718932  -2.159090  -0.171432
N    -1.919539  -1.905202  -0.980092
C    -2.094222  -0.805821  -1.759696
N    -1.504517  0.358508  -1.470616
N    -2.880986  -0.912222  -2.845525
H    -1.767999  0.094830  1.224299
H    -1.285116  -0.376424  2.826069
H    -1.726181  -2.370392  1.721278
H    0.009958  -2.353101  1.836782
H    -0.489028  -3.227005  -0.278947
H    0.118122  -1.626042  -0.642110
H    -2.526397  -2.701273  -1.150372
H    -1.248891  0.288205  -0.480723
H    -3.204268  -1.806090  -3.194852
H    -3.256505  -0.077946  -3.277105
O    2.247164  -0.819723  1.145277
H    2.098156  -1.114828  2.064637
Ba    0.099372  2.282294  -1.645674
