27
Energy: -241644.792646 eV PBE+vdW (tier 2 basis)
N    1.678763  -0.927956  1.992591
C    0.451431  -0.246797  1.438241
C    1.370106  0.410113  2.408038
O    2.117086  1.487662  2.117639
H    2.457193  -0.952643  1.330242
H    -4.411112  -3.405808  -2.068658
H    0.550944  0.153900  0.424048
C    -0.879204  -0.894736  1.742337
C    -1.096210  -2.166604  0.906794
C    -2.423433  -2.859853  1.238167
N    -2.619588  -4.134036  0.533080
C    -3.306361  -4.323777  -0.599518
N    -3.715998  -3.285948  -1.342077
N    -3.599592  -5.571179  -0.998883
H    -1.679613  -0.163677  1.545485
H    -0.941648  -1.143158  2.812857
H    -0.266369  -2.864265  1.096794
H    -1.054696  -1.921753  -0.167131
H    -3.287172  -2.213422  1.025696
H    -2.475882  -3.088081  2.311660
H    -2.165581  -4.951434  0.928333
H    -3.347651  -2.355522  -1.198658
H    -3.914456  -5.761937  -1.942391
H    -3.529777  -6.358932  -0.366428
O    1.021900  0.492058  3.840021
H    1.007723  -0.416775  4.187747
Ba    2.494108  2.693855  4.006881
