27
Energy: -241645.093014 eV PBE+vdW (tier 2 basis)
N    -0.964892  0.439000  1.059188
C    -0.080635  -0.401036  1.891870
C    1.210471  -0.648627  1.115279
O    1.386943  -0.348062  -0.055148
H    -1.790501  0.703927  1.600693
H    -0.491586  1.308590  0.804840
H    0.212758  0.111216  2.823370
C    -0.777379  -1.720237  2.311942
C    -0.990976  -2.819974  1.255876
C    -1.985889  -2.535260  0.116785
N    -1.477938  -1.488401  -0.776677
C    -0.999507  -1.616434  -1.995395
N    -0.175990  -0.771499  -2.608945
N    -1.417939  -2.696247  -2.865550
H    -1.742202  -1.450393  2.770495
H    -0.178017  -2.154541  3.122622
H    -1.370016  -3.705860  1.786189
H    -0.026164  -3.124050  0.819177
H    -2.952902  -2.201677  0.520618
H    -2.171445  -3.459938  -0.444866
H    -1.260372  -0.580899  -0.225225
H    0.300183  -0.152468  -1.940939
H    -0.760864  -3.480457  -2.808118
H    -2.340090  -3.063446  -2.618551
O    2.131442  -1.239861  1.885762
H    2.952604  -1.353250  1.365834
Ba    -0.536646  -1.049926  -5.026585
