27
Energy: -241645.095272 eV PBE+vdW (tier 2 basis)
N    0.949081  0.087716  0.470379
C    -0.088143  -0.461698  1.408696
C    0.568213  -1.561831  2.282924
O    1.833260  -1.385960  2.529899
H    0.974951  -0.522722  -0.355224
H    0.606150  0.980736  0.102996
H    -0.316118  0.355917  2.114627
C    -1.394954  -0.879806  0.697804
C    -2.708574  -0.596575  1.452014
C    -3.180041  -1.633481  2.480649
N    -3.537507  -2.910242  1.852904
C    -3.103702  -4.171183  2.114251
N    -3.362511  -5.310523  1.623830
N    -2.082895  -4.251225  3.214574
H    -1.337334  -1.940426  0.409673
H    -1.443987  -0.312985  -0.243336
H    -3.508394  -0.477248  0.705735
H    -2.648464  0.377676  1.962141
H    -4.060435  -1.235315  3.006917
H    -2.406548  -1.801932  3.237209
H    -4.282995  -2.868165  1.163050
H    -4.051405  -5.319012  0.867979
H    -1.781244  -5.235853  3.205932
H    -2.491338  -4.046320  4.136165
O    -0.093214  -2.499774  2.727882
H    -1.261073  -3.607614  3.047609
Ba    3.479745  0.001506  1.683147
