27
Energy: -241645.847499 eV PBE+vdW (tier 2 basis)
N    1.732142  -0.968382  1.720073
C    0.313460  -0.520135  1.761772
C    0.262945  0.748369  2.601280
O    1.083836  1.017058  3.485737
H    2.245371  -0.397020  1.040307
H    1.754803  -1.913236  1.324847
H    -0.065757  -0.246892  0.765155
C    -0.546086  -1.698205  2.310117
C    -1.898251  -1.414508  3.004256
C    -1.929985  -1.756295  4.504827
N    -0.994900  -0.960106  5.310941
C    0.261518  -1.255894  5.698928
N    1.119415  -0.448612  6.282682
N    0.827536  -2.498749  5.347709
H    0.112724  -2.256565  2.989832
H    -0.713218  -2.363344  1.452788
H    -2.683093  -2.015753  2.526655
H    -2.214284  -0.372178  2.861534
H    -1.734568  -2.825322  4.671492
H    -2.937584  -1.579759  4.902781
H    -1.298499  -0.016241  5.534275
H    0.703131  0.418434  6.629930
H    1.293798  -2.914921  6.155287
H    0.196342  -3.178699  4.928617
O    -0.738322  1.546285  2.276619
H    -0.713535  2.366475  2.814775
Ba    2.933115  -0.584546  4.391466
