27
Energy: -241644.651782 eV PBE+vdW (tier 2 basis)
N    0.696251  -0.155347  0.330444
C    -0.158416  0.024670  1.478889
C    0.498827  0.221237  2.858246
O    -0.140190  0.333320  3.912264
H    1.284592  -0.985015  0.405679
H    1.304594  0.644240  0.161504
H    -0.692606  0.980546  1.325047
C    -1.206565  -1.126876  1.573018
C    -2.674717  -0.716263  1.388153
C    -3.201581  0.360046  2.353021
N    -2.815970  0.105539  3.747581
C    -3.559095  -0.239402  4.774390
N    -3.134937  -0.527179  6.001254
N    -5.011251  -0.305527  4.681177
H    -1.089077  -1.675145  2.518669
H    -0.961473  -1.838242  0.775093
H    -3.298687  -1.618411  1.476163
H    -2.829930  -0.331728  0.369110
H    -4.291540  0.446654  2.261159
H    -2.787897  1.346375  2.097771
H    -1.765718  0.182247  3.899276
H    -2.115138  -0.536249  6.086516
H    -5.292236  -1.149843  4.170744
H    -5.383028  0.478116  4.136160
O    1.823095  0.286147  2.826009
H    2.158464  0.440365  3.733413
Ba    -5.113301  -0.574980  7.496759
