27
Energy: -241646.098523 eV PBE+vdW (tier 2 basis)
N    -0.029381  0.487963  0.039836
C    0.591491  -0.130615  1.278408
C    1.889490  -0.791968  0.709786
O    2.754774  -1.186644  1.568429
H    -1.019649  0.250437  -0.086584
H    0.070520  1.507189  -0.007364
H    0.859760  0.672790  1.974452
C    -0.420932  -1.111602  1.901611
C    0.029075  -1.984319  3.084167
C    0.205853  -1.309777  4.453250
N    1.410542  -0.477949  4.599159
C    2.663856  -0.976720  4.648545
N    3.038224  -2.230151  4.628153
N    3.734007  -0.053855  4.566894
H    -0.748125  -1.797254  1.102938
H    -1.310711  -0.534070  2.202028
H    0.930936  -2.547804  2.811813
H    -0.757738  -2.739472  3.224158
H    0.199005  -2.081845  5.238521
H    -0.648595  -0.657186  4.673028
H    1.274110  0.475208  4.920357
H    2.282239  -2.890134  4.816709
H    4.361665  -0.126822  5.369020
H    3.468354  0.917831  4.413950
O    1.969027  -0.871628  -0.522374
H    0.585657  0.027832  -0.719471
Ba    4.722627  -2.066682  2.621767
