27
Energy: -241646.286263 eV PBE+vdW (tier 2 basis)
N    -0.065788  -0.277720  1.524529
C    0.652921  -0.528622  2.768130
C    2.150851  -0.650050  2.518676
O    2.910429  -1.193254  3.400582
H    0.530655  0.213402  0.858664
H    -5.219222  -4.236921  2.502595
H    0.612033  0.333036  3.471286
C    0.056250  -1.730358  3.534182
C    0.007955  -3.019670  2.711497
C    -0.754325  -4.167625  3.385420
N    -2.190947  -3.921765  3.598870
C    -3.173501  -4.216649  2.739316
N    -4.448477  -4.226039  3.159552
N    -2.899537  -4.510980  1.461374
H    -0.963638  -1.433211  3.824841
H    0.620641  -1.881930  4.464988
H    1.028777  -3.389857  2.527589
H    -0.419098  -2.784716  1.723899
H    -0.334108  -4.379616  4.377566
H    -0.654936  -5.095826  2.805177
H    -2.472978  -3.539957  4.495010
H    -4.679760  -4.280782  4.143937
H    -3.598236  -4.929723  0.859759
H    -2.002739  -4.285813  1.050963
O    2.659464  -0.130058  1.459598
H    -0.884604  0.306132  1.688382
Ba    4.961554  -0.415078  2.274587
