27
Energy: -241646.252137 eV PBE+vdW (tier 2 basis)
N    1.264318  0.538210  0.332455
C    0.557314  0.322431  1.649627
C    1.805108  0.061383  2.505157
O    2.445079  1.085860  2.911910
H    1.041042  -0.233140  -0.301063
H    0.914298  1.386810  -0.115551
H    0.114014  1.275624  1.963164
C    -0.491487  -0.784243  1.595203
C    -1.318119  -0.966193  2.879469
C    -0.541910  -1.391363  4.135082
N    0.213550  -2.639689  3.987856
C    -0.193537  -3.855973  4.365344
N    0.684805  -4.873056  4.379203
N    -1.462274  -4.085192  4.729589
H    -0.002217  -1.732099  1.317858
H    -1.191461  -0.547322  0.780468
H    -2.107663  -1.702522  2.666795
H    -1.841278  -0.029217  3.123996
H    -1.223273  -1.491155  4.990623
H    0.182560  -0.622010  4.436875
H    1.117889  -2.558975  3.521576
H    0.377503  -5.831815  4.488538
H    -1.721199  -4.933456  5.219001
H    -2.196617  -3.412456  4.553553
O    2.364142  -1.087242  2.436791
H    1.682015  -4.701847  4.390944
Ba    4.147216  0.446443  1.269605
