27
Energy: -241644.948487 eV PBE+vdW (tier 2 basis)
N    1.604894  -0.946444  1.405954
C    0.438116  -0.419940  2.149173
C    0.748392  -0.385814  3.648979
O    1.362897  -1.276210  4.221574
H    1.379871  -0.907863  0.407497
H    2.393939  -0.303718  1.525664
H    0.206029  0.609362  1.821607
C    -0.840648  -1.259389  1.885543
C    -1.060439  -2.608843  2.599905
C    -0.104712  -3.766093  2.286387
N    1.101744  -3.779500  3.187706
C    2.289552  -4.313076  2.572633
N    2.589490  -5.533885  2.965303
N    2.926451  -3.510448  1.732250
H    -0.903934  -1.410062  0.796195
H    -1.702762  -0.625751  2.137378
H    -2.065668  -2.938785  2.301284
H    -1.120661  -2.462657  3.690854
H    0.212177  -3.732470  1.233519
H    -0.640717  -4.724336  2.407052
H    1.289661  -2.793526  3.502593
H    3.413953  -5.942416  2.520180
H    2.515361  -2.559839  1.564229
H    3.789733  -3.789057  1.274980
O    0.264469  0.628753  4.363410
H    -0.151118  1.311167  3.802947
Ba    1.105091  -5.783121  4.981946
