27
Energy: -241646.581406 eV PBE+vdW (tier 2 basis)
N    -0.068303  0.398716  0.694913
C    0.001105  -0.006158  2.102040
C    1.416705  -0.240347  2.640639
O    1.582558  -0.363359  3.907437
H    0.196034  -0.375862  0.081641
H    -2.620266  2.491855  -0.955457
H    -0.408688  0.817206  2.711445
C    -0.836244  -1.280261  2.382672
C    -2.232927  -1.352488  1.738089
C    -3.179387  -0.168601  1.967185
N    -2.856272  0.935226  1.055984
C    -3.698056  1.898606  0.692362
N    -3.366867  2.728025  -0.315492
N    -4.877358  2.064699  1.312269
H    -0.922255  -1.379364  3.472948
H    -0.272676  -2.161023  2.036084
H    -2.722295  -2.247162  2.146744
H    -2.156074  -1.530290  0.655538
H    -3.132418  0.168758  3.017191
H    -4.209187  -0.499288  1.767349
H    -1.882707  0.920143  0.677669
H    -3.908651  3.558625  -0.516304
H    -5.592417  2.671165  0.930624
H    -5.091218  1.583581  2.175571
O    2.410437  -0.324229  1.836366
H    0.603270  1.144454  0.503038
Ba    4.003330  -0.747145  3.699543
