27
Energy: -241644.572264 eV PBE+vdW (tier 2 basis)
N    0.531535  0.564238  0.653300
C    -0.080954  -0.041888  1.828488
C    0.458803  -1.458561  2.082043
O    -0.169679  -2.516774  2.009874
H    0.422346  -0.005706  -0.185583
H    1.520980  0.767981  0.783234
H    0.220298  0.562650  2.699574
C    -1.605304  0.002486  1.679250
C    -2.398198  -0.578862  2.869156
C    -3.397233  -1.635616  2.380672
N    -3.908217  -2.520443  3.441045
C    -3.278807  -3.624941  3.833603
N    -2.117616  -4.083553  3.421976
N    -3.940958  -4.508809  4.767874
H    -1.872893  -0.528348  0.751636
H    -1.870005  1.051670  1.507289
H    -2.929870  0.214491  3.410419
H    -1.716009  -1.041281  3.597345
H    -2.921169  -2.278736  1.627909
H    -4.269895  -1.170209  1.905672
H    -4.741837  -2.230376  3.946345
H    -1.537382  -3.435993  2.854200
H    -4.961588  -4.453204  4.716326
H    -3.677702  -4.276784  5.731012
O    1.772613  -1.431755  2.351436
H    2.101964  -2.349309  2.416037
Ba    -2.132981  -6.530230  3.820474
