27
Energy: -241645.616042 eV PBE+vdW (tier 2 basis)
N    0.659326  -0.576164  -0.307994
C    0.581725  -0.047925  1.062405
C    1.943255  -0.148147  1.743514
O    2.967923  -0.535919  1.170849
H    -0.277561  -0.548908  -0.716811
H    1.224323  0.044063  -0.892573
H    0.362625  1.039999  1.062353
C    -0.580743  -0.710603  1.852665
C    -0.436155  -2.117778  2.458677
C    -0.003021  -3.293992  1.555161
N    1.414344  -3.634769  1.741953
C    2.435537  -3.616374  0.871884
N    3.670393  -4.009857  1.119944
N    2.280886  -3.007065  -0.394677
H    -1.446031  -0.691387  1.172559
H    -0.875282  -0.033051  2.669187
H    -1.422733  -2.361399  2.875810
H    0.236014  -2.088195  3.330469
H    -0.187961  -3.100405  0.493664
H    -0.586232  -4.187141  1.815819
H    1.646390  -3.989908  2.667388
H    3.779139  -4.564603  1.972167
H    1.515127  -2.303760  -0.465793
H    2.271928  -3.691271  -1.152143
O    2.050198  0.234709  3.006230
H    1.204680  0.558998  3.374570
Ba    4.833359  -1.952198  0.124711
