27
Energy: -241644.66366 eV PBE+vdW (tier 2 basis)
N    0.516693  -0.867605  -0.189307
C    -0.060716  -0.099614  0.911665
C    1.052082  0.289465  1.876541
O    2.199722  0.590625  1.425188
H    -0.173814  -0.997856  -0.930205
H    1.301230  -0.366253  -0.607492
H    -0.447410  0.900677  0.605126
C    -1.257031  -0.830815  1.556417
C    -1.110049  -2.351213  1.767459
C    0.182821  -2.824129  2.415657
N    0.381726  -2.179796  3.786242
C    1.664038  -2.440927  4.515289
N    1.771923  -2.803972  5.710464
N    2.798532  -2.090223  3.748912
H    -2.128736  -0.682617  0.904753
H    -1.521344  -0.317930  2.492356
H    -1.143605  -2.869957  0.799462
H    -1.980239  -2.720625  2.331076
H    1.025714  -2.525614  1.776589
H    0.205999  -3.910955  2.559077
H    -0.393571  -2.453802  4.402916
H    0.912846  -2.990408  6.233410
H    3.611458  -2.550711  4.168266
H    2.733166  -2.363562  2.765463
O    0.836813  0.341127  3.160869
H    0.339640  -1.111904  3.633398
Ba    3.279239  0.972805  3.630118
