27
Energy: -241644.910209 eV PBE+vdW (tier 2 basis)
N    0.953230  0.122029  -0.139937
C    0.780094  -0.331765  1.275249
C    1.991106  -1.202657  1.700634
O    3.110740  -0.906320  1.108702
H    0.662729  -0.632906  -0.770496
H    0.284927  0.876559  -0.325167
H    0.894174  0.576450  1.893034
C    -0.602992  -0.902509  1.639006
C    -1.140330  -2.157994  0.922170
C    -0.414684  -3.494979  1.097012
N    -0.124971  -3.824557  2.544559
C    0.587694  -5.174065  2.726600
N    1.837824  -5.260067  2.839628
N    -0.286444  -6.212722  2.626218
H    -1.342139  -0.104686  1.473389
H    -0.604227  -1.051438  2.729037
H    -1.212035  -1.989552  -0.164500
H    -2.185802  -2.279496  1.243836
H    0.565443  -3.518841  0.605649
H    -1.013377  -4.313228  0.681263
H    -0.981088  -3.772059  3.113207
H    2.351809  -4.377312  2.810635
H    0.123930  -7.131017  2.775798
H    -1.248572  -6.122687  2.933213
O    1.877496  -2.056377  2.582688
H    0.553143  -3.080978  2.866530
Ba    3.729245  0.608835  -0.528755
