27
Energy: -241646.020984 eV PBE+vdW (tier 2 basis)
N    0.861837  0.513347  0.662110
C    0.610394  -0.064163  2.020857
C    1.935887  -0.072736  2.846658
O    2.719659  0.963371  2.574679
H    1.260284  -0.222923  0.069033
H    -0.031059  0.747238  0.219313
H    -0.046799  0.656082  2.538580
C    -0.053268  -1.445532  2.054978
C    -1.503615  -1.492201  1.553596
C    -2.320437  -2.664025  2.108675
N    -1.773214  -3.969044  1.709730
C    -1.994273  -5.127876  2.347688
N    -2.871608  -5.195122  3.355995
N    -1.317235  -6.228002  1.984583
H    -0.002921  -1.769282  3.104743
H    0.582559  -2.159518  1.506105
H    -1.556371  -1.497574  0.452333
H    -2.041862  -0.585533  1.871911
H    -3.365389  -2.577215  1.770514
H    -2.308077  -2.618795  3.207591
H    -1.325799  -4.029437  0.800570
H    -3.568424  -4.475676  3.501051
H    -1.601103  -7.148444  2.298213
H    -0.483764  -6.171467  1.413004
O    2.163869  -0.938092  3.661808
H    -2.915346  -6.008927  3.958026
Ba    2.871549  2.538438  0.974419
