27
Energy: -241644.993147 eV PBE+vdW (tier 2 basis)
N    0.354267  1.094014  0.773101
C    0.409027  -0.195234  1.537362
C    0.734415  -1.341610  0.542226
O    1.526063  -1.010301  -0.430948
H    -0.583816  1.180598  0.364196
H    0.404621  1.868719  1.441915
H    1.294082  -0.121523  2.192414
C    -0.835039  -0.443777  2.410385
C    -0.637619  -1.407073  3.614698
C    -1.552442  -2.633838  3.629685
N    -1.079290  -3.681970  2.661063
C    -2.143439  -4.634579  2.080525
N    -3.297803  -4.809916  2.547780
N    -1.596768  -5.308752  1.035492
H    -1.657062  -0.791647  1.765349
H    -1.159596  0.528132  2.806573
H    -0.841663  -0.859692  4.543578
H    0.412706  -1.727448  3.697781
H    -2.575873  -2.363966  3.340465
H    -1.590982  -3.085560  4.627226
H    -0.367323  -4.274169  3.108453
H    -3.530349  -4.348988  3.426186
H    -2.203386  -5.985760  0.582571
H    -0.876802  -4.889992  0.456860
O    0.280395  -2.479819  0.697267
H    -0.578997  -3.184291  1.860198
Ba    2.230637  1.003518  -1.339246
