27
Energy: -241644.927472 eV PBE+vdW (tier 2 basis)
N    -0.107027  0.670918  1.300480
C    0.256084  -0.458431  2.247170
C    1.707857  -0.778437  2.007111
O    2.228114  -1.806900  2.547479
H    -0.667554  1.395721  1.764756
H    0.794607  1.078620  0.976549
H    0.215933  -0.018289  3.305473
C    -0.715636  -1.639148  2.183338
C    -2.217631  -1.337614  2.361221
C    -2.681530  -0.567132  3.621837
N    -2.121743  -1.030972  4.876287
C    -0.908048  -0.604195  5.358148
N    -0.276439  0.484867  4.969768
N    -0.285951  -1.436456  6.242472
H    -0.379990  -2.334216  2.964166
H    -0.587579  -2.176742  1.229809
H    -2.722323  -2.314103  2.336584
H    -2.618479  -0.799104  1.484931
H    -3.774425  -0.642214  3.685076
H    -2.479377  0.509462  3.520404
H    -2.610198  -1.775770  5.361090
H    -0.948281  1.158517  4.590639
H    0.376640  -1.000937  6.872930
H    -0.742109  -2.276359  6.576573
O    2.420787  0.057782  1.327439
H    -0.630647  0.340659  0.478673
Ba    4.546710  -1.188359  1.945662
