27
Energy: -241646.399308 eV PBE+vdW (tier 2 basis)
N    0.391754  -0.857302  0.413218
C    0.356573  -0.417724  1.868345
C    1.601480  -1.058603  2.517600
O    2.154945  -0.470550  3.480633
H    -0.543405  -0.909778  -0.011794
H    0.972399  -0.238127  -0.167896
H    0.411357  0.676316  1.903015
C    -0.926166  -0.963893  2.523359
C    -1.031318  -0.644199  4.028981
C    -1.645568  -1.781500  4.862870
N    -0.947679  -3.069598  4.727206
C    0.319664  -3.312851  5.129034
N    1.121431  -2.521148  5.792144
N    0.923840  -4.511802  4.684030
H    -0.930298  -2.056184  2.375717
H    -1.799319  -0.558354  1.990244
H    -1.652410  0.247512  4.183825
H    -0.041462  -0.385405  4.425775
H    -2.682111  -1.968388  4.556864
H    -1.688587  -1.480764  5.920676
H    -1.514488  -3.869784  4.466292
H    0.655713  -1.719679  6.219919
H    1.217005  -5.105816  5.460520
H    0.388638  -5.053383  4.007151
O    1.931477  -2.209367  2.073890
H    0.837727  -1.800388  0.427424
Ba    3.311684  -2.635193  4.350722
