27
Energy: -241644.564842 eV PBE+vdW (tier 2 basis)
N    0.571719  -2.540445  0.474198
C    -0.387117  -1.510070  0.789553
C    0.214708  -0.149921  1.156330
O    1.295645  -0.092019  1.834282
H    1.180376  -2.312626  -0.309310
H    1.144137  -2.814907  1.271613
H    -0.998255  -1.340768  -0.113423
C    -1.304286  -1.998602  1.941942
C    -2.524057  -1.122871  2.244252
C    -3.609911  -1.180177  1.149466
N    -4.441175  0.026777  1.070405
C    -4.027876  1.234033  0.608047
N    -4.401804  2.435177  0.759639
N    -2.900470  1.132617  -0.399666
H    -0.692407  -2.104531  2.850037
H    -1.612953  -3.016410  1.661421
H    -2.219436  -0.074145  2.393262
H    -2.962621  -1.435417  3.201364
H    -4.288719  -2.024456  1.316929
H    -3.165952  -1.371977  0.160375
H    -5.234802  0.070863  1.704504
H    -5.149572  2.575678  1.443638
H    -3.067123  0.403795  -1.105902
H    -2.914068  2.052883  -0.861505
O    -0.353651  0.959900  0.778650
H    -1.943600  0.988483  0.043881
Ba    1.615727  2.304149  1.838909
