27
Energy: -241644.607344 eV PBE+vdW (tier 2 basis)
N    0.126060  -0.224641  0.446002
C    0.010817  0.307563  1.787863
C    0.961125  1.479810  2.004539
O    1.131470  2.043681  3.089405
H    -0.435416  -1.067478  0.334783
H    1.084718  -0.445270  0.182889
H    0.285221  -0.400242  2.602236
C    -1.475579  0.702275  2.014440
C    -1.886999  1.049910  3.456154
C    -1.934746  2.561745  3.721993
N    -2.039220  2.884343  5.157050
C    -0.994244  2.919943  5.981015
N    0.266122  2.696337  5.696117
N    -1.211976  3.302076  7.365582
H    -2.055197  -0.172057  1.690099
H    -1.740823  1.503380  1.309033
H    -1.194143  0.569987  4.164132
H    -2.879493  0.628778  3.667105
H    -2.802081  3.019327  3.230788
H    -1.039921  3.066208  3.337559
H    -2.970334  2.976169  5.555229
H    0.471605  2.355368  4.733312
H    -1.503038  2.489207  7.918836
H    -1.954976  3.999761  7.464699
O    1.631269  1.839588  0.912198
H    2.231573  2.576909  1.143628
Ba    1.618422  3.675911  7.527469
