27
Energy: -241645.09478 eV PBE+vdW (tier 2 basis)
N    -0.014587  0.796565  0.473105
C    0.028331  -0.154586  1.632413
C    1.472385  -0.707640  1.789792
O    2.411941  0.095660  1.381607
H    -0.174416  0.243696  -0.377760
H    -0.862842  1.365476  0.557014
H    -0.139482  0.457662  2.535677
C    -1.064509  -1.234821  1.562494
C    -1.264468  -2.027858  2.875896
C    -1.064584  -3.542977  2.689545
N    -0.865045  -4.274706  3.943115
C    0.276345  -4.267634  4.688081
N    0.547459  -4.484720  5.904644
N    1.522877  -4.050091  3.863050
H    -0.825033  -1.922643  0.734835
H    -2.006851  -0.743335  1.283932
H    -2.268018  -1.840854  3.280308
H    -0.561102  -1.672055  3.641526
H    -0.209614  -3.728373  2.024705
H    -1.930993  -3.993971  2.189323
H    -1.703514  -4.484016  4.478386
H    -0.261960  -4.626331  6.514188
H    2.285353  -4.047358  4.555070
H    1.678163  -4.834268  3.214572
O    1.684937  -1.809315  2.297848
H    1.541033  -3.153677  3.304636
Ba    2.463430  2.085389  0.203282
