27
Energy: -241644.545927 eV PBE+vdW (tier 2 basis)
N    0.017324  -0.157531  -0.019491
C    -0.172865  -0.188498  1.427996
C    1.164060  -0.145958  2.161785
O    1.440275  -0.762374  3.189046
H    -0.817714  0.201540  -0.482951
H    0.785713  0.458888  -0.282059
H    -0.677784  0.722409  1.820615
C    -1.077760  -1.378540  1.828167
C    -0.661162  -2.738225  1.238395
C    0.496536  -3.513024  1.872872
N    0.091889  -4.382866  3.023847
C    -0.258360  -3.842628  4.315279
N    -1.056360  -4.666427  4.976463
N    0.195880  -2.662186  4.696818
H    -2.073240  -1.140802  1.425500
H    -1.199455  -1.395926  2.918663
H    -0.386100  -2.548556  0.189331
H    -1.548794  -3.402226  1.185902
H    1.326782  -2.853688  2.155988
H    0.901945  -4.216704  1.134123
H    0.843180  -5.060104  3.194377
H    -1.234074  -4.399926  5.947411
H    0.736538  -2.012295  4.079585
H    -0.105119  -2.278409  5.589017
O    2.017605  0.705010  1.596227
H    2.835325  0.748547  2.134040
Ba    -2.200904  -5.955002  3.159381
