27
Energy: -241645.871934 eV PBE+vdW (tier 2 basis)
N    1.226520  -0.267620  1.095835
C    -0.008356  0.014222  1.873200
C    0.417737  0.586668  3.222672
O    1.459233  0.234532  3.779495
H    1.591908  0.606895  0.704557
H    0.969466  -0.828743  0.277979
H    -0.647457  0.757014  1.365571
C    -0.798155  -1.319912  2.018090
C    -1.779986  -1.513258  3.202358
C    -1.438529  -2.692304  4.129032
N    -0.281608  -2.463867  5.009748
C    1.005563  -2.726504  4.717369
N    1.498520  -3.324664  3.654624
N    1.991998  -2.189868  5.570916
H    -0.040812  -2.113388  2.046913
H    -1.338687  -1.454941  1.071870
H    -2.785689  -1.704126  2.805778
H    -1.880272  -0.607577  3.816844
H    -1.281441  -3.614383  3.551219
H    -2.291969  -2.896834  4.786596
H    -0.490986  -2.145131  5.951131
H    0.809719  -3.864144  3.127981
H    2.589695  -2.912152  5.974671
H    1.664727  -1.543077  6.287513
O    -0.361195  1.461715  3.834798
H    -1.122773  1.737493  3.287966
Ba    3.211758  -1.479260  2.963466
