27
Energy: -241646.142521 eV PBE+vdW (tier 2 basis)
N    1.822586  -1.305681  0.379777
C    1.016899  -0.302384  1.131123
C    1.738818  0.006071  2.435148
O    2.509507  -0.791670  2.984608
H    1.241403  -1.681140  -0.374820
H    2.571347  -0.805535  -0.111475
H    0.925548  0.639574  0.569207
C    -0.426449  -0.781370  1.441418
C    -0.584531  -1.983338  2.388691
C    -0.419606  -3.368045  1.734147
N    0.340809  -4.302710  2.621542
C    0.797409  -5.503339  2.006479
N    1.823801  -5.350055  1.210251
N    0.189829  -6.650870  2.350792
H    -0.928123  -0.974229  0.480180
H    -0.950942  0.082174  1.871456
H    -1.580118  -1.921620  2.846362
H    0.117480  -1.895464  3.233895
H    0.137732  -3.316763  0.791731
H    -1.402627  -3.793516  1.481956
H    -0.179856  -4.488015  3.480905
H    2.069251  -6.189773  0.682172
H    0.542635  -7.547600  2.030945
H    -0.701706  -6.662661  2.833965
O    1.422744  1.181927  2.936058
H    1.874326  1.326775  3.795067
Ba    3.080680  -3.214716  2.137360
