27
Energy: -241644.289061 eV PBE+vdW (tier 2 basis)
N    0.273435  -0.098610  0.299646
C    -0.230576  0.011149  1.663829
C    0.899794  0.434597  2.602214
O    2.055876  0.571775  2.264737
H    -0.313499  0.413697  -0.354551
H    1.215479  0.295424  0.252889
H    -1.020633  0.772825  1.766595
C    -0.840915  -1.340736  2.127922
C    0.200720  -2.459435  2.058963
C    -0.414175  -3.848301  2.164242
N    0.640060  -4.874714  1.990511
C    0.446728  -6.182804  1.982386
N    -0.685547  -6.837081  2.149541
N    1.578683  -7.069641  1.750938
H    -1.672745  -1.563659  1.442687
H    -1.259556  -1.240411  3.138770
H    0.947601  -2.331553  2.859657
H    0.717253  -2.358606  1.088848
H    -1.171512  -3.997023  1.377560
H    -0.893857  -4.004934  3.143930
H    1.586474  -4.519941  1.860742
H    -1.489770  -6.235561  2.341896
H    2.114642  -6.776953  0.927021
H    2.234715  -7.023706  2.538792
O    0.456571  0.614704  3.869396
H    1.218482  0.922201  4.399990
Ba    -0.214978  -9.272979  1.731897
