27
Energy: -241644.986709 eV PBE+vdW (tier 2 basis)
N    -0.342728  -0.493958  -0.591315
C    -0.248128  -0.133629  0.830362
C    0.813465  0.990625  0.918991
O    1.301384  1.408695  1.976706
H    -1.302519  -0.630360  -0.902777
H    0.188480  -1.334341  -0.822171
H    -1.197021  0.355389  1.106351
C    -0.008446  -1.315936  1.802121
C    -0.485066  -1.109474  3.266205
C    0.602303  -1.115629  4.344633
N    1.475547  0.054953  4.183562
C    2.479025  0.439881  4.938402
N    3.305051  1.452883  4.693526
N    2.769322  -0.207716  6.205577
H    1.053154  -1.607928  1.769839
H    -0.561843  -2.166636  1.385234
H    -1.183633  -1.913474  3.530227
H    -1.062587  -0.177266  3.356686
H    1.200679  -2.039202  4.284183
H    0.118417  -1.095388  5.333986
H    1.322327  0.617528  3.281290
H    3.156835  1.874865  3.771149
H    3.329300  -1.052142  6.044792
H    1.913763  -0.530908  6.666512
O    1.144170  1.497947  -0.238386
H    0.609773  0.918409  -0.890707
Ba    4.439396  2.019959  6.811905
