27
Energy: -241646.08417 eV PBE+vdW (tier 2 basis)
N    0.317515  0.236967  -0.523046
C    0.224800  0.175883  0.969036
C    1.653401  0.219661  1.599961
O    2.512901  0.937861  0.895023
H    0.493545  -0.711321  -0.873389
H    -0.595628  0.488068  -0.911651
H    -0.260143  1.115637  1.284473
C    -0.565849  -1.006704  1.539963
C    -2.073563  -1.008250  1.285258
C    -2.817084  -2.129819  2.026228
N    -2.891791  -1.941917  3.484292
C    -2.258067  -2.649539  4.431135
N    -1.160385  -3.363237  4.146118
N    -2.734810  -2.648149  5.684888
H    -0.356750  -0.981026  2.619919
H    -0.117048  -1.942335  1.159908
H    -2.296936  -1.139639  0.214858
H    -2.512167  -0.039124  1.573419
H    -2.359909  -3.109484  1.831475
H    -3.851612  -2.193853  1.663450
H    -3.591258  -1.285199  3.817489
H    -0.792023  -4.033005  4.810988
H    -2.164039  -2.951211  6.465321
H    -3.689227  -2.376142  5.888388
O    1.889272  -0.340445  2.649656
H    -0.585157  -3.144540  3.342557
Ba    2.613011  1.819201  -1.181859
