27
Energy: -241646.438474 eV PBE+vdW (tier 2 basis)
N    -0.414653  -0.223507  0.948917
C    0.513276  -0.387132  2.079818
C    1.964070  -0.635881  1.667112
O    2.251531  -0.939724  0.455207
H    -0.384960  0.735013  0.597180
H    -0.096785  -0.811188  0.172506
H    0.528052  0.545327  2.665000
C    0.006107  -1.516906  3.005068
C    -1.267660  -1.072530  3.744576
C    -2.300792  -2.167033  3.998368
N    -2.796593  -2.904221  2.807438
C    -3.488032  -2.402264  1.762627
N    -3.189270  -1.210988  1.237911
N    -4.477267  -3.142712  1.231924
H    0.787055  -1.799966  3.722227
H    -0.192980  -2.400621  2.377797
H    -1.746893  -0.242147  3.209709
H    -1.001660  -0.662593  4.729401
H    -3.160362  -1.737545  4.534365
H    -1.874223  -2.945249  4.643533
H    -2.957275  -3.892908  2.972441
H    -3.835813  -0.797922  0.574852
H    -4.843531  -2.946986  0.307672
H    -4.938614  -3.868503  1.767553
O    2.885210  -0.535863  2.555045
H    -2.219883  -0.820136  1.257510
Ba    4.699063  -0.916388  0.949685
