27
Energy: -241645.152064 eV PBE+vdW (tier 2 basis)
N    -1.554219  0.001343  1.896720
C    -0.467385  0.509431  2.801638
C    0.861055  0.480653  2.035926
O    1.934415  0.742934  2.667272
H    -1.779853  -1.058254  2.123275
H    -2.438189  0.503649  2.045453
H    -0.662499  1.577911  2.987634
C    -0.427921  -0.213536  4.156469
C    -0.256651  -1.747122  4.122294
C    -1.546755  -2.578901  4.094029
N    -2.344372  -2.413426  2.855445
C    -3.686685  -1.889107  2.940166
N    -4.100977  -1.024305  3.787329
N    -4.450126  -2.230450  1.846374
H    -1.330859  0.062860  4.720062
H    0.407790  0.238261  4.706236
H    0.285846  -2.042683  5.031113
H    0.396036  -2.048617  3.285194
H    -2.177214  -2.326819  4.957779
H    -1.290659  -3.640463  4.201738
H    -2.290038  -3.238889  2.258601
H    -3.430969  -0.810459  4.527505
H    -5.411129  -1.904303  1.911412
H    -4.369778  -3.169576  1.468767
O    0.854557  0.259725  0.774923
H    -1.259616  0.097889  0.914518
Ba    3.349530  0.802636  0.626890
