27
Energy: -241644.601839 eV PBE+vdW (tier 2 basis)
N    0.561859  0.470674  0.068349
C    0.509417  -0.167963  1.364979
C    1.879872  -0.165881  2.034443
O    2.076870  -0.483200  3.214284
H    -0.363289  0.532514  -0.353349
H    0.964811  1.405539  0.093237
H    -0.147465  0.329966  2.114300
C    -0.047886  -1.607432  1.162051
C    -0.467445  -2.376716  2.425495
C    0.658547  -3.250799  2.996293
N    0.424723  -3.710138  4.382952
C    0.469390  -2.969629  5.487909
N    0.272046  -3.380290  6.734447
N    0.832874  -1.590615  5.419723
H    0.662351  -2.183248  0.550790
H    -0.936929  -1.479073  0.530195
H    -1.327935  -3.019086  2.196158
H    -0.822441  -1.661378  3.183138
H    1.624861  -2.735318  2.965019
H    0.772686  -4.161272  2.396577
H    0.228321  -4.700335  4.509755
H    -0.089411  -4.332232  6.822938
H    -0.011974  -1.019069  5.521033
H    1.289826  -1.266852  4.530342
O    2.869811  0.229531  1.244477
H    3.704928  0.217878  1.755704
Ba    1.691851  -1.803438  8.066882
