27
Energy: -241644.714005 eV PBE+vdW (tier 2 basis)
N    -0.643014  -0.742221  0.828302
C    0.161443  -0.302020  2.023370
C    1.647765  -0.614394  1.814073
O    2.446505  -0.696975  2.708006
H    -1.571249  -0.306967  0.844382
H    -0.169803  -0.459247  -0.036951
H    0.104010  0.797442  2.071500
C    -0.395244  -0.873702  3.332076
C    -0.293001  -2.391338  3.555940
C    -1.238708  -3.287204  2.741273
N    -0.901737  -3.309381  1.315007
C    -0.775317  -4.397298  0.618986
N    -0.414400  -4.507069  -0.674954
N    -1.048194  -5.751941  1.152696
H    -1.440100  -0.539874  3.440249
H    0.159624  -0.372321  4.135824
H    -0.523414  -2.572234  4.615359
H    0.745151  -2.726887  3.415869
H    -2.275394  -2.924493  2.851593
H    -1.212976  -4.292837  3.187057
H    -0.758412  -1.901934  0.876205
H    -0.149393  -3.610465  -1.085656
H    -1.895780  -5.749763  1.727077
H    -0.294740  -6.026240  1.792303
O    1.949473  -0.726122  0.487923
H    2.922064  -0.810058  0.415072
Ba    -0.813632  -6.817365  -1.390280
