27
Energy: -241644.545302 eV PBE+vdW (tier 2 basis)
N    -0.395819  -0.980753  -0.103130
C    -0.411538  -0.613698  1.298969
C    0.864263  0.034673  1.849014
O    0.852694  1.042828  2.558923
H    0.260524  -1.737646  -0.296330
H    -0.161633  -0.199114  -0.713634
H    -1.172696  0.173494  1.414494
C    -0.846492  -1.849802  2.124128
C    -0.613767  -1.886465  3.643461
C    -1.024240  -0.682475  4.506868
N    -2.359091  -0.124727  4.227294
C    -2.595368  1.103379  3.766932
N    -1.736651  1.994309  3.321756
N    -3.955557  1.594968  3.799287
H    -0.320342  -2.722171  1.709956
H    -1.907441  -2.012290  1.888627
H    0.453896  -2.043959  3.860433
H    -1.117203  -2.786855  4.023902
H    -0.308646  0.138050  4.402498
H    -1.018552  -0.983117  5.564021
H    -3.160533  -0.720251  4.424748
H    -0.770922  1.644390  3.115628
H    -4.422947  1.422466  2.903591
H    -4.527574  1.157414  4.526232
O    1.986769  -0.584073  1.486269
H    2.754779  -0.106138  1.861633
Ba    -2.779084  4.219332  3.638103
