27
Energy: -241646.043476 eV PBE+vdW (tier 2 basis)
N    0.876610  0.397613  0.428037
C    0.185055  0.242926  1.745089
C    1.171425  0.586996  2.906474
O    2.019405  1.554792  2.595871
H    1.433739  -0.446052  0.253716
H    0.181307  0.408701  -0.323270
H    -0.589219  1.028790  1.776359
C    -0.481236  -1.112075  2.008562
C    -1.690800  -1.462266  1.139429
C    -2.547376  -2.601211  1.710619
N    -1.878357  -3.911711  1.777291
C    -1.468374  -4.551910  2.883180
N    -1.219515  -3.888445  4.019142
N    -1.297323  -5.882803  2.847600
H    -0.784270  -1.053931  3.066076
H    0.284955  -1.903588  1.954384
H    -1.388894  -1.715969  0.110867
H    -2.361839  -0.592162  1.057279
H    -3.445330  -2.736740  1.093134
H    -2.899906  -2.350977  2.720431
H    -1.863598  -4.456689  0.920558
H    -1.119887  -4.381948  4.898369
H    -0.778788  -6.365542  3.571961
H    -1.748973  -6.454891  2.144013
O    1.106252  0.015184  3.974109
H    -1.051857  -2.889540  4.025757
Ba    2.701932  2.597025  0.712395
