27
Energy: -241644.7713 eV PBE+vdW (tier 2 basis)
N    0.481492  0.217203  0.099125
C    0.492907  -0.202566  1.507656
C    1.951696  -0.383232  2.001708
O    2.867316  0.271887  1.477846
H    0.643512  -0.633398  -0.460121
H    -1.368335  0.424477  -0.552126
H    0.161262  0.667285  2.110272
C    -0.466131  -1.349946  1.919446
C    -0.338310  -2.691316  1.159335
C    -1.601712  -3.070064  0.367889
N    -1.913799  -2.035131  -0.631101
C    -2.792189  -1.021315  -0.460360
N    -2.377736  0.216988  -0.751287
N    -4.029073  -1.280523  -0.018817
H    -1.483535  -0.950154  1.811041
H    -0.390916  -1.519820  3.007405
H    -0.126932  -3.514662  1.855250
H    0.519753  -2.675732  0.466375
H    -2.461436  -3.175293  1.041009
H    -1.468196  -4.030992  -0.144127
H    -1.138996  -1.789681  -1.240193
H    -3.044498  0.972401  -0.870237
H    -4.651825  -0.537238  0.275605
H    -4.424541  -2.209610  -0.114281
O    2.261909  -1.172728  3.010498
H    1.476132  -1.638333  3.357047
Ba    2.384006  1.770024  -0.471686
