27
Energy: -241644.909626 eV PBE+vdW (tier 2 basis)
N    1.676575  -0.093043  1.729638
C    0.338708  -0.145153  2.407275
C    0.195190  -1.499253  3.156491
O    1.316892  -2.023665  3.556710
H    1.879929  0.885075  1.500907
H    1.577029  -0.542166  0.811077
H    0.371691  0.615772  3.206611
C    -0.823874  0.192882  1.459008
C    -2.169395  0.470339  2.169334
C    -3.286641  -0.488925  1.719320
N    -4.435994  -0.529923  2.623257
C    -4.436015  -1.087014  3.865488
N    -5.112057  -0.684765  4.848739
N    -3.560258  -2.354708  3.906138
H    -0.937268  -0.630401  0.734425
H    -0.531309  1.073939  0.871322
H    -2.485734  1.505838  1.988054
H    -2.046911  0.382519  3.257988
H    -2.881269  -1.503735  1.599410
H    -3.669509  -0.207302  0.730414
H    -5.082977  0.255084  2.571853
H    -5.167216  -1.281467  5.674195
H    -3.619911  -2.762598  4.845097
H    -3.905208  -3.052383  3.232362
O    -0.909999  -1.998770  3.376658
H    -2.539512  -2.164824  3.692688
Ba    3.557001  -1.555679  3.199580
