27
Energy: -241644.83594 eV PBE+vdW (tier 2 basis)
N    0.263944  -1.848991  0.018010
C    0.763294  -0.750102  0.868840
C    2.177405  -1.084132  1.371541
O    2.645096  -2.211576  1.428678
H    -0.662382  -1.592210  -0.333722
H    0.858196  -1.924453  -0.811228
H    0.859776  0.189027  0.292610
C    -0.230843  -0.443447  2.028395
C    -0.861203  -1.651261  2.735620
C    0.100271  -2.475993  3.619093
N    -0.188280  -3.920507  3.608208
C    0.136453  -4.779717  2.638905
N    -0.132199  -6.073207  2.612295
N    0.872399  -4.334575  1.491423
H    -1.047674  0.153968  1.598866
H    0.259428  0.219092  2.757270
H    -1.318279  -2.313508  1.987817
H    -1.695332  -1.287081  3.349587
H    0.037686  -2.159917  4.666218
H    1.146580  -2.339712  3.326857
H    -0.709921  -4.292141  4.398787
H    -0.676103  -6.421600  3.404260
H    1.686291  -3.726978  1.729933
H    0.344007  -3.624287  0.914263
O    2.922048  -0.056208  1.789088
H    2.491094  0.805453  1.633417
Ba    1.227581  -6.890714  0.664818
