27
Energy: -241646.64297 eV PBE+vdW (tier 2 basis)
N    -0.572448  0.653729  1.555176
C    0.209556  0.154017  2.694252
C    1.717555  0.408059  2.571731
O    2.231068  0.728858  1.442357
H    -0.535479  1.674439  1.522596
H    -0.143893  0.337254  0.680712
H    -0.111454  0.698410  3.596246
C    -0.025123  -1.353801  2.951182
C    -1.408674  -1.732756  3.518557
C    -2.534871  -2.026226  2.522858
N    -2.974835  -0.828386  1.806719
C    -4.165116  -0.685430  1.230371
N    -4.520740  0.513107  0.728059
N    -5.031307  -1.707613  1.140559
H    0.731773  -1.674907  3.678713
H    0.178809  -1.914657  2.023632
H    -1.745628  -0.970483  4.237667
H    -1.283354  -2.655983  4.101110
H    -3.387446  -2.432677  3.086414
H    -2.206471  -2.801028  1.808011
H    -2.225341  -0.112696  1.638115
H    -5.336377  0.619119  0.138970
H    -5.997358  -1.557764  0.877731
H    -4.744738  -2.659105  1.327477
O    2.452299  0.283625  3.616469
H    -4.012794  1.349902  0.979862
Ba    4.516842  0.881380  2.431782
