27
Energy: -241644.679901 eV PBE+vdW (tier 2 basis)
N    -1.496603  1.062464  1.424511
C    -0.491170  0.091235  1.780354
C    0.253686  -0.614477  0.638482
O    1.374512  -1.122585  0.750750
H    -2.279347  0.655745  0.913616
H    -1.125624  1.836457  0.876747
H    0.301173  0.627904  2.327614
C    -1.134154  -0.955603  2.732659
C    -0.228508  -2.064973  3.283764
C    0.979290  -1.508192  4.045414
N    1.973836  -2.526685  4.442726
C    2.863782  -3.124722  3.654563
N    3.784596  -4.011504  4.014334
N    2.957882  -2.775748  2.276458
H    -1.978779  -1.427647  2.209445
H    -1.573604  -0.371066  3.553057
H    0.111826  -2.717782  2.466332
H    -0.819951  -2.701854  3.956338
H    0.659152  -1.021743  4.974860
H    1.499084  -0.738115  3.460474
H    2.002988  -2.775472  5.428817
H    3.687144  -4.371863  4.965739
H    2.581043  -3.546426  1.714774
H    2.418248  -1.940102  1.956616
O    -0.423481  -0.637394  -0.507958
H    0.110891  -1.096770  -1.187029
Ba    5.646545  -3.570564  2.395782
