27
Energy: -241645.465205 eV PBE+vdW (tier 2 basis)
N    -0.377700  0.482577  2.433754
C    0.681861  -0.481612  2.391600
C    2.021352  -0.160768  3.063946
O    2.862980  -1.057229  3.282832
H    -0.687109  0.719459  3.374183
H    -0.170583  1.342063  1.926661
H    0.347338  -1.373385  2.950796
C    0.955396  -0.901303  0.918116
C    -0.070247  -1.891789  0.351777
C    0.291162  -3.368311  0.480363
N    0.401231  -3.830233  1.913730
C    0.607378  -5.241394  2.044835
N    1.861849  -5.610555  2.028479
N    -0.471689  -6.021531  2.203237
H    1.977524  -1.304385  0.800353
H    0.952637  0.020076  0.318729
H    -0.195976  -1.707719  -0.724367
H    -1.057851  -1.687843  0.794949
H    1.257079  -3.576023  -0.007261
H    -0.459177  -3.975594  -0.049641
H    -0.450210  -3.550155  2.407964
H    2.000825  -6.623412  2.006109
H    -0.382861  -7.020773  2.363683
H    -1.412743  -5.669720  2.063165
O    2.212947  1.093182  3.393684
H    3.087214  1.215933  3.822705
Ba    3.260674  -3.511826  2.697045
