27
Energy: -241644.21967 eV PBE+vdW (tier 2 basis)
N    -0.825558  0.160304  -0.180542
C    -0.733585  0.462166  1.238859
C    0.240393  1.574060  1.686037
O    0.726108  1.640364  2.797870
H    -1.338038  0.882966  -0.683464
H    0.097707  0.104333  -0.611806
H    -1.725526  0.828140  1.559394
C    -0.418364  -0.816576  2.039338
C    -1.557667  -1.832511  1.967188
C    -1.218969  -3.179753  2.601851
N    -0.847893  -2.990789  4.025987
C    -0.938145  -3.849980  5.027148
N    -0.698436  -3.631219  6.311671
N    -1.290416  -5.225907  4.765234
H    -0.193785  -0.492769  3.069840
H    0.509173  -1.258629  1.637852
H    -1.801661  -2.014722  0.910310
H    -2.468668  -1.426981  2.435212
H    -0.369579  -3.646126  2.077137
H    -2.081290  -3.858243  2.548492
H    -0.485996  -2.058307  4.238377
H    -0.540709  -2.649404  6.550660
H    -0.973473  -5.535816  3.842104
H    -2.310758  -5.334872  4.764687
O    0.461218  2.475304  0.708867
H    1.047311  3.167790  1.075406
Ba    -0.315477  -5.858605  7.386321
