27
Energy: -241644.270186 eV PBE+vdW (tier 2 basis)
N    0.114930  0.843004  0.854734
C    0.293976  -0.075369  1.959988
C    1.472500  -1.039285  1.768860
O    1.766703  -1.633472  0.772369
H    -0.028468  0.348138  -0.027301
H    0.913847  1.464202  0.731369
H    0.485807  0.532771  2.858367
C    -1.013502  -0.875316  2.142811
C    -1.105210  -1.894928  3.286134
C    -1.045902  -1.324160  4.711681
N    0.346010  -1.263037  5.275235
C    0.787651  -0.049738  5.852691
N    0.127915  0.307300  6.939777
N    1.846059  0.542481  5.299564
H    -1.203464  -1.419297  1.205309
H    -1.819068  -0.132568  2.233308
H    -0.355144  -2.696922  3.181721
H    -2.074484  -2.403222  3.185650
H    -1.673977  -1.992085  5.348226
H    -1.501675  -0.326457  4.768865
H    1.023196  -1.628464  4.595140
H    0.352071  1.238957  7.293902
H    2.229627  0.186613  4.418780
H    2.298121  1.337124  5.741284
O    2.240883  -1.180819  2.949099
H    2.993989  -1.759336  2.704132
Ba    -0.567393  -1.923421  7.860261
