27
Energy: -241644.243296 eV PBE+vdW (tier 2 basis)
N    0.081232  -0.677703  0.160935
C    0.062873  -0.543589  1.615689
C    1.395713  -0.670484  2.373492
O    1.599631  -0.145751  3.444586
H    0.721261  0.004030  -0.248221
H    0.451655  -1.592693  -0.105662
H    -0.272580  0.477856  1.856780
C    -0.923289  -1.553049  2.245530
C    -2.303156  -1.585315  1.574985
C    -2.954274  -0.207686  1.500420
N    -4.320599  -0.317893  0.948464
C    -5.076779  0.704371  0.583099
N    -4.790748  1.989205  0.655571
N    -6.388949  0.452555  0.006512
H    -1.018654  -1.324314  3.316289
H    -0.496355  -2.564962  2.182004
H    -2.950125  -2.270106  2.146696
H    -2.208440  -1.978727  0.552796
H    -2.366754  0.438557  0.829452
H    -3.014381  0.261022  2.496137
H    -4.701625  -1.259212  0.866796
H    -3.888844  2.189711  1.093773
H    -6.343924  -0.269526  -0.719977
H    -7.029335  0.089552  0.721509
O    2.283948  -1.455508  1.718605
H    3.087457  -1.510736  2.274228
Ba    -6.620675  3.238335  -0.531359
