27
Energy: -241644.313501 eV PBE+vdW (tier 2 basis)
N    0.814989  -0.285330  0.136789
C    -0.022648  -0.671434  1.344639
C    0.941627  -1.012035  2.480450
O    0.476078  -1.145812  3.653222
H    0.358802  -0.617318  -0.728070
H    0.959028  0.728818  0.054861
H    -0.631223  0.197315  1.625709
C    -0.916351  -1.878417  0.995669
C    -1.888850  -1.646541  -0.167732
C    -2.987294  -0.593258  0.095137
N    -4.061717  -0.617676  -0.883034
C    -4.776734  -1.810038  -1.130084
N    -5.143237  -2.266176  -2.267114
N    -5.056134  -2.526487  0.039037
H    -1.485211  -2.117157  1.905708
H    -0.272546  -2.749308  0.789654
H    -2.385581  -2.609855  -0.354994
H    -1.364523  -1.419712  -1.117540
H    -2.580938  0.430838  0.099938
H    -3.398207  -0.763392  1.102284
H    -3.875816  -0.097049  -1.734726
H    -4.768452  -1.730198  -3.054477
H    -5.640004  -3.330971  -0.181657
H    -5.474819  -1.967255  0.780339
O    2.178853  -1.196320  2.204821
H    1.745314  -0.731505  0.248347
Ba    2.654828  -1.804224  4.677146
