27
Energy: -241645.090121 eV PBE+vdW (tier 2 basis)
N    -1.097121  -0.694989  0.673347
C    -0.513157  -0.055430  1.854281
C    0.669409  0.856193  1.460606
O    0.983440  1.024197  0.272293
H    -0.848564  -1.692319  0.722985
H    -4.929997  -0.219338  1.177875
H    -1.239351  0.678474  2.268969
C    -0.153003  -1.024521  3.007581
C    -1.324238  -1.478721  3.894112
C    -2.370996  -2.421523  3.289064
N    -3.220072  -1.762535  2.291112
C    -4.524003  -1.986574  2.133359
N    -5.233556  -1.173795  1.319896
N    -5.152849  -3.000892  2.744912
H    0.584219  -0.562848  3.683700
H    0.369123  -1.894618  2.575453
H    -1.838004  -0.599800  4.313505
H    -0.894709  -2.014458  4.752762
H    -3.009891  -2.774241  4.109170
H    -1.883636  -3.306536  2.846668
H    -2.694608  -1.230943  1.551161
H    -6.197137  -1.386104  1.091335
H    -6.163605  -3.036161  2.802909
H    -4.640886  -3.770148  3.157329
O    1.325213  1.556083  2.368030
H    1.025887  1.359126  3.276531
Ba    -0.381177  0.090516  -1.589448
