27
Energy: -241645.572819 eV PBE+vdW (tier 2 basis)
N    0.064055  1.961282  0.832883
C    0.116993  0.736901  1.672581
C    1.564956  0.262377  1.705510
O    2.350280  0.505874  0.788684
H    -0.919198  2.183876  0.650435
H    0.413139  2.759402  1.374028
H    -0.197932  0.941793  2.710489
C    -0.864625  -0.308263  1.060595
C    -0.661420  -1.820421  1.270656
C    0.330469  -2.527619  0.316876
N    0.100318  -2.129110  -1.080961
C    0.887548  -1.299497  -1.806692
N    0.510920  -0.409560  -2.697555
N    2.277534  -1.275963  -1.568992
H    -0.897973  -0.103809  -0.021237
H    -1.859273  -0.042321  1.443109
H    -1.646920  -2.288948  1.133272
H    -0.382661  -2.067775  2.305578
H    0.210436  -3.614264  0.414578
H    1.369537  -2.305481  0.587030
H    -0.877799  -2.131601  -1.364435
H    -0.479003  -0.459279  -2.949964
H    2.782121  -1.433721  -2.442996
H    2.626466  -1.912866  -0.855630
O    1.986869  -0.466177  2.726142
H    1.326081  -0.534743  3.442560
Ba    1.862913  1.570038  -1.524919
