27
Energy: -241643.713694 eV PBE+vdW (tier 2 basis)
N    0.698432  -1.036561  0.381034
C    0.229932  -0.359712  1.628790
C    1.450925  0.122505  2.391906
O    2.544455  -0.471920  2.283943
H    -0.061401  -1.645318  0.057966
H    0.791230  -0.334047  -0.361634
H    -0.420509  0.495960  1.385900
C    -0.563516  -1.370181  2.501382
C    -1.173178  -0.843214  3.802853
C    -2.240590  0.259005  3.614764
N    -3.056949  0.392883  4.795300
C    -4.054098  -0.566459  5.069688
N    -4.358421  -1.595196  4.351897
N    -4.725461  -0.308687  6.237245
H    0.096403  -2.226935  2.723940
H    -1.376325  -1.751508  1.860676
H    -0.403450  -0.514313  4.517108
H    -1.670825  -1.697392  4.283870
H    -2.843727  0.034584  2.709740
H    -1.782698  1.245158  3.429575
H    -3.288702  1.341251  5.074533
H    -3.935278  -1.570179  3.421626
H    -5.423422  -1.001136  6.486042
H    -4.226427  0.110770  7.012961
O    1.376855  1.129551  3.224264
H    0.488945  1.540327  3.252361
Ba    3.212898  -2.272020  0.786412
