27
Energy: -241646.239358 eV PBE+vdW (tier 2 basis)
N    -0.474753  1.923784  0.848839
C    -0.293063  1.000666  1.969406
C    0.936724  1.528950  2.708224
O    0.792909  2.075767  3.859218
H    0.113639  1.694379  0.049445
H    -1.443737  1.998884  0.549770
H    -1.137633  1.148886  2.656574
C    -0.173250  -0.504656  1.637779
C    -1.488581  -1.069843  1.086838
C    -1.523842  -2.584278  0.874541
N    -0.685539  -3.001469  -0.261054
C    -0.419260  -4.272617  -0.589515
N    -0.956480  -5.279472  0.110137
N    0.410087  -4.544057  -1.609721
H    0.098916  -1.049560  2.556822
H    0.660600  -0.648471  0.932082
H    -1.768109  -0.566976  0.146472
H    -2.302017  -0.843112  1.792482
H    -2.566486  -2.892188  0.692468
H    -1.163727  -3.099682  1.778282
H    -0.455816  -2.290871  -0.948463
H    -1.721759  -5.125277  0.753949
H    0.958544  -3.818398  -2.052971
H    0.481410  -5.476902  -1.997350
O    2.083380  1.517669  2.130338
H    -0.662121  -6.237353  -0.037094
Ba    2.902011  3.282596  3.653053
