27
Energy: -241644.839685 eV PBE+vdW (tier 2 basis)
N    0.329774  0.623014  0.162494
C    0.134837  -0.316904  1.316430
C    1.243101  -1.404464  1.281507
O    2.380184  -1.013849  0.785712
H    -0.071966  0.188157  -0.676418
H    -0.258857  1.447100  0.320744
H    0.349831  0.273390  2.223957
C    -1.282400  -0.888064  1.456792
C    -1.652265  -1.983368  0.430875
C    -2.173654  -3.266552  1.119029
N    -1.971947  -4.493411  0.351463
C    -0.785149  -5.140246  0.188054
N    -0.446361  -5.791287  -0.837305
N    0.089777  -5.047428  1.448488
H    -1.999735  -0.056037  1.425426
H    -1.358963  -1.293442  2.475782
H    -0.772672  -2.260249  -0.170683
H    -2.404693  -1.621734  -0.282117
H    -3.247342  -3.189193  1.329445
H    -1.688926  -3.372911  2.099456
H    -2.589010  -4.644364  -0.444503
H    0.383392  -6.381717  -0.774819
H    0.876109  -5.698205  1.347879
H    -0.437808  -5.313351  2.291437
O    1.032102  -2.529829  1.740126
H    0.483692  -4.069291  1.585796
Ba    3.081951  0.963149  -0.217635
