27
Energy: -241645.225844 eV PBE+vdW (tier 2 basis)
N    -1.006993  0.903378  2.440481
C    -0.282506  -0.381265  2.555253
C    1.237195  -0.233594  2.426199
O    1.969200  -1.272799  2.579943
H    -2.501290  0.760949  2.944063
H    -0.537534  1.617422  3.004719
H    -0.457867  -0.769326  3.570215
C    -0.797354  -1.422197  1.532856
C    -2.321546  -1.571477  1.414557
C    -3.076896  -2.251549  2.567251
N    -2.874994  -1.715020  3.931355
C    -3.331091  -0.530343  4.444854
N    -3.515471  -0.115828  5.629006
N    -3.509036  0.536601  3.421305
H    -0.335879  -2.387766  1.779627
H    -0.415705  -1.146549  0.536610
H    -2.518238  -2.200703  0.533930
H    -2.774921  -0.604387  1.150551
H    -2.749066  -3.296513  2.629124
H    -4.151083  -2.287555  2.320066
H    -2.782665  -2.433548  4.643320
H    -3.391346  -0.820814  6.360289
H    -3.853386  1.350646  3.947570
H    -4.201801  0.295978  2.702672
O    1.754462  0.911377  2.179859
H    -0.958328  1.250890  1.477648
Ba    4.076941  -0.030621  2.223872
