27
Energy: -241646.33467 eV PBE+vdW (tier 2 basis)
N    0.696610  -0.026027  0.585889
C    0.265417  0.248558  1.996241
C    1.512346  0.221214  2.925143
O    2.595425  0.707593  2.372285
H    0.817809  -1.038590  0.474333
H    -0.078801  0.205867  -0.042394
H    -0.064428  1.301164  2.007577
C    -0.899648  -0.602832  2.516095
C    -0.585449  -2.092433  2.702644
C    -1.588910  -2.846417  3.587349
N    -1.945981  -2.221188  4.880325
C    -1.171495  -2.127681  5.981604
N    0.144752  -1.929382  5.880243
N    -1.750753  -2.228819  7.188631
H    -1.768060  -0.471240  1.852125
H    -1.195230  -0.166108  3.480854
H    0.424227  -2.221079  3.113969
H    -0.589073  -2.623526  1.737771
H    -1.213274  -3.862715  3.773584
H    -2.544970  -2.948310  3.059714
H    -2.941778  -2.135032  5.053485
H    0.718489  -2.016441  6.712028
H    -1.284316  -1.896885  8.024936
H    -2.652388  -2.675411  7.307533
O    1.445970  -0.190724  4.077265
H    0.547957  -1.372791  5.109342
Ba    3.201658  1.234091  0.223611
