27
Energy: -241646.438157 eV PBE+vdW (tier 2 basis)
N    0.668966  0.261936  -0.359233
C    -0.124147  -0.099433  0.865080
C    0.797291  -0.918620  1.808188
O    2.035071  -0.494227  1.841427
H    0.663370  -0.549037  -0.988886
H    0.154103  0.980708  -0.876984
H    -0.302671  0.852062  1.395126
C    -1.486946  -0.749612  0.552148
C    -2.624950  -0.425602  1.541678
C    -2.771793  -1.299303  2.793059
N    -3.278900  -2.646290  2.493112
C    -2.720355  -3.818400  2.839522
N    -1.420499  -3.906471  3.118164
N    -3.493159  -4.919025  2.877928
H    -1.362490  -1.837507  0.439739
H    -1.805643  -0.376955  -0.432448
H    -3.577383  -0.457780  0.991675
H    -2.531464  0.617418  1.882445
H    -3.489261  -0.820770  3.475459
H    -1.828067  -1.396570  3.337625
H    -4.229115  -2.697211  2.137861
H    -1.053080  -4.733300  3.572178
H    -4.501256  -4.856174  2.945105
H    -3.084103  -5.844160  2.919087
O    0.372749  -1.859667  2.467446
H    -0.766187  -3.147901  2.885132
Ba    3.320851  0.788668  0.437128
