27
Energy: -241644.630327 eV PBE+vdW (tier 2 basis)
N    0.024169  0.711555  0.344953
C    0.319529  0.137588  1.669365
C    1.791501  -0.309082  1.662122
O    2.186857  -1.454043  1.466309
H    -0.895467  1.156346  0.359627
H    0.685051  1.447716  0.091142
H    0.245083  0.879826  2.491193
C    -0.661800  -1.008616  2.027863
C    -1.381162  -1.766026  0.892374
C    -0.532323  -2.404928  -0.215654
N    0.576867  -3.199919  0.318079
C    0.836412  -4.471967  0.136468
N    0.157929  -5.415457  -0.508082
N    2.092574  -4.981896  0.670619
H    -1.455550  -0.573257  2.649941
H    -0.141200  -1.715284  2.690200
H    -2.083602  -1.094624  0.379505
H    -2.000293  -2.540224  1.369267
H    -0.083857  -1.610383  -0.829560
H    -1.163970  -3.022288  -0.867455
H    1.257277  -2.603866  0.866647
H    -0.762949  -5.115765  -0.833264
H    1.967495  -5.237628  1.656434
H    2.817446  -4.256700  0.665186
O    2.710817  0.634659  1.874494
H    2.305637  1.491154  2.107174
Ba    1.781307  -7.245860  -0.954382
