27
Energy: -241645.937658 eV PBE+vdW (tier 2 basis)
N    -0.614730  -1.168597  0.040448
C    -0.330565  -0.561127  1.363131
C    1.180681  -0.326055  1.455251
O    1.974298  -1.069644  0.870945
H    -1.543595  -1.598023  0.077923
H    -0.697052  -0.420945  -0.655112
H    -0.864087  0.397680  1.482209
C    -0.714207  -1.493068  2.540427
C    -2.191539  -1.961702  2.591098
C    -2.443852  -3.453972  2.323099
N    -2.323132  -3.865657  0.913596
C    -1.189676  -4.302092  0.318670
N    -0.012402  -4.496817  0.859852
N    -1.211243  -4.421242  -1.085255
H    -0.482807  -0.948018  3.465311
H    -0.038071  -2.359035  2.536389
H    -2.829100  -1.356375  1.927192
H    -2.575936  -1.766613  3.601363
H    -3.467682  -3.702259  2.627418
H    -1.789943  -4.079756  2.947892
H    -3.197478  -4.021610  0.419812
H    -0.035104  -4.560486  1.878724
H    -0.900620  -5.341807  -1.398695
H    -2.084221  -4.167332  -1.545944
O    1.655442  0.638957  2.215225
H    0.958401  1.200339  2.607568
Ba    1.494155  -3.032176  -0.707092
