27
Energy: -241644.808201 eV PBE+vdW (tier 2 basis)
N    0.868101  0.321363  0.627241
C    0.103067  0.125921  1.866705
C    1.080128  0.148886  3.042866
O    1.261249  -0.740498  3.876023
H    1.425301  1.175337  0.681599
H    0.224471  0.456579  -0.154548
H    -0.577640  0.972699  2.096891
C    -0.780009  -1.136212  1.796530
C    -0.249679  -2.352750  1.015537
C    1.100536  -2.930085  1.455394
N    1.145425  -3.215521  2.895026
C    1.105365  -4.389032  3.481108
N    1.010070  -5.607224  2.960958
N    1.235551  -4.430170  4.930599
H    -1.721683  -0.842929  1.311849
H    -1.065935  -1.420379  2.820007
H    -0.135647  -2.096543  -0.046298
H    -1.017522  -3.139750  1.062283
H    1.898920  -2.202056  1.252761
H    1.339854  -3.839057  0.887778
H    1.140171  -2.333269  3.468381
H    0.833604  -5.615263  1.954692
H    1.831242  -3.669071  5.270963
H    0.317723  -4.278787  5.363599
O    1.727872  1.311630  3.103231
H    2.332578  1.306982  3.872968
Ba    1.768578  -7.189342  4.725723
