27
Energy: -241646.384209 eV PBE+vdW (tier 2 basis)
N    1.298055  -3.041896  0.857997
C    0.393985  -1.826351  0.714591
C    1.320092  -0.605607  0.882077
O    1.015304  0.470997  0.310769
H    0.807373  -3.859626  1.243745
H    1.727183  -3.319481  -0.034485
H    -0.046911  -1.839067  -0.288784
C    -0.690248  -1.885453  1.808504
C    -1.642095  -0.662970  1.837290
C    -1.601908  0.157131  3.135346
N    -0.305016  0.791199  3.371080
C    -0.058810  2.094086  3.684704
N    1.180626  2.549516  3.508018
N    -1.087390  2.857033  4.112464
H    -0.191309  -2.015683  2.783614
H    -1.277536  -2.800665  1.642839
H    -2.673243  -1.016578  1.712157
H    -1.440360  0.003692  0.988348
H    -1.879763  -0.471426  3.996374
H    -2.357739  0.947005  3.052495
H    0.502944  0.186687  3.471566
H    1.323418  3.416245  4.032595
H    -0.962422  3.854299  4.234622
H    -1.914541  2.450501  4.532719
O    2.322827  -0.763091  1.660398
H    2.059765  -2.737643  1.503345
Ba    2.780149  1.892612  1.595951
