27
Energy: -241644.995948 eV PBE+vdW (tier 2 basis)
N    0.038562  -0.851257  -0.262853
C    -0.124325  -0.137720  1.013969
C    1.301161  0.272808  1.467774
O    1.542368  1.006125  2.433759
H    -0.302788  -0.320599  -1.062674
H    -0.413336  -1.764677  -0.272797
H    -0.680878  0.802086  0.870648
C    -0.891027  -1.004568  2.040237
C    -1.155881  -0.378808  3.424352
C    -0.055720  -0.717330  4.440913
N    -0.091871  0.080766  5.686018
C    0.253240  1.360834  5.832716
N    0.324542  2.044494  6.967057
N    0.678634  2.126366  4.709860
H    -0.373244  -1.971346  2.153943
H    -1.860100  -1.233653  1.576773
H    -2.116652  -0.746031  3.808489
H    -1.268849  0.709505  3.318887
H    0.941758  -0.615991  3.998027
H    -0.152152  -1.761935  4.759854
H    -0.317440  -0.423699  6.539926
H    -0.057928  1.567724  7.786333
H    -0.070441  2.772165  4.442368
H    0.946810  1.594853  3.835276
O    2.250548  -0.222661  0.719219
H    1.711501  -0.723795  -0.000371
Ba    2.191700  3.651364  6.439941
