27
Energy: -241645.306997 eV PBE+vdW (tier 2 basis)
N    0.703804  0.528950  0.353533
C    0.024410  -0.474032  1.239650
C    1.025813  -1.567964  1.663905
O    2.266090  -1.388059  1.331193
H    0.517569  0.260961  -0.620161
H    0.219672  1.425612  0.456620
H    -0.238058  0.038982  2.180767
C    -1.273440  -1.046058  0.600167
C    -2.513270  -1.238438  1.498509
C    -2.648794  -2.530189  2.298810
N    -1.678493  -2.651581  3.463187
C    -1.845641  -1.647085  4.541638
N    -1.144365  -0.591688  4.401547
N    -2.748217  -2.019244  5.481095
H    -1.044175  -1.979794  0.063720
H    -1.581606  -0.324725  -0.170738
H    -3.390178  -1.240843  0.834560
H    -2.646802  -0.367663  2.155572
H    -2.454146  -3.409200  1.669895
H    -3.664206  -2.617745  2.704428
H    -1.736352  -3.603163  3.846274
H    -1.291913  0.083660  5.157102
H    -2.925314  -1.418603  6.278076
H    -3.199125  -2.925980  5.494022
O    0.639313  -2.545523  2.317541
H    -0.670309  -2.550492  3.036124
Ba    3.501758  0.406694  0.577446
