27
Energy: -241646.209021 eV PBE+vdW (tier 2 basis)
N    0.135357  -0.200171  0.198372
C    0.010838  -0.231397  1.714482
C    1.132120  -1.187157  2.175357
O    1.545643  -2.027508  1.307642
H    -0.772308  -0.165091  -0.282561
H    0.703633  0.589741  -0.132416
H    0.184273  0.781445  2.096086
C    -1.395198  -0.734388  2.103566
C    -1.798526  -0.558448  3.591537
C    -2.007154  -1.831120  4.440381
N    -0.805858  -2.347928  5.098363
C    0.020588  -3.339112  4.722492
N    1.120259  -3.723211  5.332269
N    -0.192668  -3.992987  3.493860
H    -1.499203  -1.782724  1.779958
H    -2.115505  -0.165658  1.495978
H    -2.755685  -0.021729  3.607865
H    -1.085391  0.098279  4.109030
H    -2.483887  -2.633648  3.859449
H    -2.720693  -1.595402  5.240747
H    -0.486249  -1.809253  5.898799
H    1.218514  -3.350478  6.278995
H    -0.210666  -5.005919  3.614329
H    -1.002715  -3.691390  2.958601
O    1.522779  -1.129830  3.367284
H    0.645448  -1.091822  -0.025462
Ba    2.744591  -3.453705  3.293434
