27
Energy: -241646.251689 eV PBE+vdW (tier 2 basis)
N    0.523870  -0.923584  0.798478
C    -0.645771  -0.364724  1.596158
C    -0.059464  0.061820  2.952456
O    -0.860309  0.425423  3.852602
H    0.543565  -0.598100  -0.175227
H    0.535817  -1.950997  0.791593
H    -1.388423  -1.160860  1.720030
C    -1.280124  0.872631  0.939063
C    -0.354391  2.099149  0.849880
C    -1.081126  3.447748  0.922282
N    -1.942676  3.639026  2.099719
C    -1.557153  4.309335  3.226660
N    -0.355763  4.108924  3.768951
N    -2.479796  5.143894  3.760460
H    -2.144186  1.106245  1.577062
H    -1.688006  0.601998  -0.045959
H    0.221975  2.094076  -0.087982
H    0.398824  2.082689  1.650164
H    -1.726770  3.573103  0.043136
H    -0.335311  4.252903  0.889508
H    -2.935609  3.691967  1.897597
H    -0.128710  4.927438  4.345887
H    -3.240664  5.523302  3.208292
H    -2.358352  5.528446  4.689188
O    1.211886  0.165791  3.026697
H    1.370772  -0.585750  1.319482
Ba    0.813641  2.043572  4.893417
