27
Energy: -241645.209126 eV PBE+vdW (tier 2 basis)
N    -0.948126  -2.419468  1.392352
C    -0.627411  -0.984561  1.574111
C    0.823856  -0.663640  1.181020
O    1.264010  0.524690  1.358013
H    -0.475373  -2.961817  2.122120
H    -2.475574  -2.820537  1.361613
H    -1.237250  -0.412121  0.854503
C    -0.955881  -0.498140  3.005785
C    -2.321313  0.163992  3.245588
C    -3.592149  -0.666646  3.013313
N    -4.043218  -0.683905  1.612876
C    -4.229003  -1.741198  0.773944
N    -4.757405  -1.858049  -0.374213
N    -3.588444  -2.997929  1.249670
H    -0.195325  0.239355  3.291131
H    -0.825752  -1.348614  3.695625
H    -2.392386  1.091597  2.656669
H    -2.334618  0.484987  4.297326
H    -4.407455  -0.251105  3.622094
H    -3.449990  -1.694065  3.374135
H    -4.500179  0.168445  1.300705
H    -5.194469  -1.008523  -0.740213
H    -3.780675  -3.680731  0.504649
H    -3.995399  -3.351031  2.123845
O    1.557155  -1.569065  0.649275
H    -0.535804  -2.748600  0.513115
Ba    3.477661  0.022684  0.378944
