27
Energy: -241644.985561 eV PBE+vdW (tier 2 basis)
N    1.261860  1.022542  2.132123
C    0.200005  -0.023072  1.921047
C    0.838165  -1.202586  1.144619
O    2.064347  -1.481298  1.482895
H    1.274790  1.620055  1.296517
H    0.947388  1.653163  2.876055
H    -0.029158  -0.431151  2.920120
C    -1.086096  0.543004  1.289038
C    -2.438720  -0.065759  1.706505
C    -2.801563  -1.471661  1.211696
N    -2.273212  -2.537457  2.086771
C    -1.920699  -3.806590  1.723087
N    -1.817603  -4.902371  2.350062
N    -1.424977  -3.911990  0.307920
H    -0.988288  0.514966  0.193403
H    -1.141980  1.607147  1.564732
H    -3.214068  0.609771  1.318410
H    -2.549529  -0.025036  2.802770
H    -2.412757  -1.608092  0.196125
H    -3.897534  -1.560756  1.159150
H    -2.639093  -2.501533  3.036181
H    -2.158359  -4.887410  3.314636
H    -1.041478  -4.864588  0.235923
H    -2.175659  -3.810593  -0.387223
O    0.196944  -1.809626  0.285032
H    -0.675445  -3.180279  0.133139
Ba    3.769971  -0.204728  2.397129
