27
Energy: -241643.669992 eV PBE+vdW (tier 2 basis)
N    0.863735  0.276729  0.884272
C    0.509072  -0.101522  2.286405
C    1.670648  0.281032  3.186551
O    2.840613  0.271984  2.748595
H    0.253222  -0.258714  0.257462
H    0.594653  1.254599  0.725002
H    -0.404558  0.420790  2.612829
C    0.279271  -1.633957  2.364822
C    -0.072264  -2.218024  3.736764
C    -1.388394  -1.680249  4.350163
N    -1.884381  -2.482525  5.451699
C    -2.216428  -3.840108  5.243200
N    -1.918801  -4.822961  6.006579
N    -2.902989  -4.058236  4.048370
H    1.184568  -2.133078  1.972460
H    -0.540324  -1.863368  1.663684
H    0.760690  -2.108537  4.448958
H    -0.202994  -3.299868  3.592518
H    -2.154556  -1.629166  3.562236
H    -1.279545  -0.647142  4.729873
H    -1.406473  -2.336813  6.336498
H    -1.316112  -4.563728  6.792075
H    -3.182230  -5.034792  3.977105
H    -3.696942  -3.438344  3.898180
O    1.484685  0.574573  4.448610
H    0.539642  0.564154  4.706124
Ba    3.646492  -0.014601  0.466621
