27
Energy: -241643.696366 eV PBE+vdW (tier 2 basis)
N    -0.851478  -0.481903  0.297689
C    -0.111390  0.578594  1.052195
C    1.197058  0.871623  0.317173
O    1.388326  0.473615  -0.850352
H    -0.648020  -1.375715  0.764474
H    -1.852713  -0.339723  0.463578
H    -0.696582  1.511037  0.957745
C    0.072014  0.265657  2.551238
C    0.875095  -1.007077  2.841337
C    1.178555  -1.180072  4.335832
N    1.902132  -2.425578  4.554820
C    2.105962  -2.887146  5.877633
N    3.313836  -3.148426  6.219457
N    0.947042  -2.971229  6.633018
H    -0.928454  0.208514  3.005945
H    0.538546  1.135224  3.048013
H    1.829641  -0.993363  2.285231
H    0.333349  -1.910154  2.511076
H    0.242180  -1.205620  4.908818
H    1.742599  -0.295819  4.696112
H    2.828006  -2.420520  4.123809
H    3.388983  -3.588451  7.140553
H    1.063101  -3.354704  7.565081
H    0.118813  -3.323066  6.161374
O    2.128084  1.602085  0.873936
H    1.913629  1.853968  1.795617
Ba    -0.013961  -0.772924  -2.390528
