27
Energy: -241646.099351 eV PBE+vdW (tier 2 basis)
N    0.965137  -0.287903  0.396732
C    0.211280  0.055581  1.629014
C    1.141685  0.825924  2.565203
O    2.369978  0.729619  2.488242
H    0.424714  -0.982751  -0.127520
H    0.985246  0.534732  -0.214664
H    -0.648053  0.708688  1.397695
C    -0.369104  -1.217189  2.305519
C    0.575253  -2.406367  2.551842
C    1.502488  -2.303821  3.778400
N    2.272850  -3.513153  4.005347
C    3.486396  -3.788250  3.467184
N    4.039055  -2.975759  2.563294
N    4.086953  -4.920754  3.895982
H    -1.189785  -1.555569  1.656420
H    -0.854719  -0.923194  3.248558
H    1.159945  -2.646140  1.647468
H    -0.060147  -3.291909  2.696047
H    0.896585  -2.128312  4.678255
H    2.201502  -1.457583  3.730114
H    1.858301  -4.216442  4.605934
H    4.991768  -3.312129  2.387805
H    4.956907  -5.236294  3.487893
H    3.736699  -5.455884  4.681414
O    0.625758  1.582563  3.513541
H    -0.348197  1.650807  3.466824
Ba    3.722172  -0.909216  1.065897
