27
Energy: -241646.104664 eV PBE+vdW (tier 2 basis)
N    0.302059  -0.656590  0.121823
C    0.181845  -0.291155  1.558215
C    1.495782  0.350849  2.005769
O    2.242726  0.919088  1.203938
H    0.808369  -1.546019  0.055504
H    -0.634421  -0.874180  -0.230638
H    0.000671  -1.187378  2.175999
C    -0.990128  0.688766  1.822704
C    -0.949687  2.068223  1.139640
C    -1.545256  2.117043  -0.281014
N    -1.600325  3.453581  -0.838808
C    -0.603866  4.057603  -1.534175
N    0.547583  3.424670  -1.763267
N    -0.853780  5.310148  -1.974220
H    -1.044948  0.838248  2.910089
H    -1.921857  0.160093  1.564664
H    0.065505  2.496297  1.148955
H    -1.542394  2.757947  1.756574
H    -2.573705  1.729677  -0.257628
H    -1.013706  1.468210  -0.996287
H    -2.443436  3.988126  -0.664386
H    1.126919  4.031692  -2.352153
H    -1.753484  5.759672  -1.855253
H    -0.155392  5.831036  -2.487985
O    1.818853  0.354281  3.282975
H    1.199661  -0.155795  3.841171
Ba    1.919363  1.297868  -1.298634
