27
Energy: -241645.574854 eV PBE+vdW (tier 2 basis)
N    0.208900  -0.275132  0.084492
C    0.214289  -0.994095  1.380227
C    1.456916  -1.557207  1.608848
O    2.453499  -1.323126  0.731619
H    1.215271  -0.373103  -0.212466
H    -0.394795  -0.707101  -0.632776
H    -0.423421  2.134029  4.213060
C    -1.086008  -1.360025  2.019098
C    -1.652413  -0.418685  3.106076
C    -0.814058  -0.452610  4.389941
N    -1.470446  0.191530  5.537650
C    -1.355567  1.467387  5.917882
N    -0.687970  2.352843  5.163412
N    -1.898447  1.873023  7.076801
H    -0.970497  -2.361162  2.463293
H    -1.863304  -1.476926  1.244267
H    -2.677231  -0.739856  3.347900
H    -1.737000  0.612562  2.724855
H    0.178447  -0.002758  4.246682
H    -0.626774  -1.493924  4.684225
H    -2.147739  -0.370272  6.043957
H    -0.433860  3.263169  5.525763
H    -2.020841  2.856135  7.286473
H    -2.242741  1.209926  7.760173
O    1.736678  -2.338336  2.629952
H    -0.037181  0.721453  0.131827
Ba    3.916089  -2.908003  1.810993
