27
Energy: -241645.160967 eV PBE+vdW (tier 2 basis)
N    0.125117  -1.052923  0.284067
C    0.299935  -0.630225  1.680764
C    1.701180  -1.057903  2.128762
O    2.562605  -1.394070  1.300490
H    -1.026900  -2.622883  0.344456
H    -0.621166  -0.471872  -0.112917
H    0.347781  0.479739  1.754755
C    -0.792784  -1.068734  2.691740
C    -2.196043  -0.491326  2.436393
C    -3.062356  -1.177892  1.370880
N    -3.334286  -2.589971  1.652435
C    -2.737247  -3.638651  1.071297
N    -1.634018  -3.480867  0.327872
N    -3.265900  -4.863809  1.237508
H    -0.513532  -0.717164  3.700067
H    -0.822981  -2.167230  2.759811
H    -2.123988  0.575170  2.170636
H    -2.751404  -0.516837  3.385197
H    -2.627665  -1.118510  0.366916
H    -4.032920  -0.667096  1.317382
H    -4.061577  -2.794320  2.330915
H    -1.323940  -4.266024  -0.231111
H    -2.750640  -5.699938  0.993183
H    -4.206956  -4.991581  1.590007
O    2.055103  -1.043425  3.398725
H    1.316844  -0.779916  3.981746
Ba    2.146573  -1.324890  -1.147354
