27
Energy: -241646.422197 eV PBE+vdW (tier 2 basis)
N    1.331887  -0.025763  1.620622
C    -0.122428  -0.293779  1.989759
C    -0.069336  -1.018015  3.347083
O    -1.143732  -1.188347  3.977447
H    1.551754  -0.274298  0.648635
H    1.598580  0.955306  1.767145
H    -0.627148  0.673326  2.097299
C    -0.829671  -1.148647  0.923165
C    -0.401798  -2.633314  0.865711
C    -1.371572  -3.564328  1.618429
N    -0.886638  -4.932738  1.693105
C    -0.754041  -5.679992  2.819623
N    -0.693674  -5.130039  4.033511
N    -0.664306  -7.017676  2.626742
H    -0.688370  -0.659310  -0.051858
H    -1.907086  -1.068715  1.125602
H    0.615212  -2.782507  1.261631
H    -0.360172  -2.949595  -0.185405
H    -2.349878  -3.551332  1.111571
H    -1.559559  -3.217000  2.638223
H    -0.831276  -5.437348  0.814311
H    -0.782819  -5.894795  4.711485
H    -0.388991  -7.634830  3.379282
H    -0.903335  -7.455338  1.745302
O    1.066104  -1.484780  3.707347
H    1.877547  -0.627531  2.286954
Ba    -0.162178  -3.047964  5.483236
