27
Energy: -241645.011064 eV PBE+vdW (tier 2 basis)
N    0.872577  0.455135  0.641568
C    -0.168319  0.038343  1.639303
C    0.225049  -1.340522  2.236273
O    1.506077  -1.547124  2.335802
H    0.687356  -0.034797  -0.241312
H    0.720017  1.443010  0.414928
H    -0.074390  0.745314  2.481679
C    -1.618846  0.106124  1.140503
C    -2.047155  -1.029637  0.182762
C    -3.314603  -1.753649  0.690499
N    -3.480495  -3.116670  0.185691
C    -2.843164  -4.228306  0.649346
N    -2.588432  -5.369823  0.163940
N    -2.420032  -4.124998  2.094115
H    -1.784848  1.091859  0.683645
H    -2.258771  0.095002  2.034534
H    -1.245527  -1.777991  0.087871
H    -2.227668  -0.646493  -0.830295
H    -4.218037  -1.193007  0.419227
H    -3.301382  -1.779980  1.788260
H    -3.841723  -3.210631  -0.759579
H    -2.844287  -5.491956  -0.819112
H    -2.009063  -5.046776  2.299319
H    -3.227272  -3.982304  2.716548
O    -0.641212  -2.132165  2.612049
H    -1.706142  -3.367868  2.291161
Ba    3.370004  -0.351732  1.639765
