27
Energy: -241646.399755 eV PBE+vdW (tier 2 basis)
N    0.335236  -0.333653  0.165065
C    -0.104775  -0.008272  1.583327
C    0.935881  -0.669657  2.502627
O    1.509712  -1.719392  2.062709
H    0.995378  0.359721  -0.210777
H    0.835109  -1.247303  0.242013
H    -0.078256  1.079441  1.713553
C    -1.529669  -0.560936  1.810981
C    -1.939236  -0.675018  3.293525
C    -1.678465  -2.079694  3.860810
N    -1.817505  -2.128036  5.309399
C    -1.026542  -2.837788  6.157559
N    0.229468  -3.156932  5.842089
N    -1.584476  -3.170571  7.345071
H    -1.605560  -1.553883  1.335979
H    -2.228716  0.098418  1.278388
H    -3.011051  -0.450113  3.373856
H    -1.415611  0.075440  3.900322
H    -0.673829  -2.438731  3.614755
H    -2.374337  -2.798017  3.394566
H    -2.717004  -1.835779  5.678666
H    0.544680  -3.871611  6.505898
H    -1.015182  -3.505591  8.111409
H    -2.581991  -3.111285  7.510448
O    1.105762  -0.182141  3.652869
H    -0.453761  -0.411377  -0.490110
Ba    2.307466  -2.239589  4.597529
