27
Energy: -241646.000568 eV PBE+vdW (tier 2 basis)
N    0.443309  -0.569941  -0.056160
C    0.039180  -0.232381  1.334812
C    1.284874  0.042497  2.180085
O    2.428615  -0.174443  1.766502
H    -0.195905  -0.099404  -0.700539
H    0.294927  -1.572186  -0.200015
H    -0.507950  0.723020  1.286013
C    -0.910805  -1.258013  2.024351
C    -0.328692  -2.542027  2.649561
C    0.172021  -3.649631  1.715970
N    1.417065  -3.252977  1.050136
C    1.966803  -3.826833  -0.069208
N    2.968873  -3.174482  -0.649684
N    1.404156  -4.955156  -0.544551
H    -1.693058  -1.506750  1.290703
H    -1.448764  -0.725512  2.823796
H    -1.131948  -2.985308  3.254606
H    0.463068  -2.297644  3.378210
H    -0.582549  -3.868206  0.945579
H    0.313562  -4.566832  2.311048
H    2.101342  -2.801580  1.649876
H    3.457231  -3.771014  -1.321995
H    1.712996  -5.349064  -1.425729
H    0.843105  -5.559041  0.045645
O    1.146605  0.515520  3.403655
H    0.216611  0.681051  3.653874
Ba    3.283951  -0.600872  -0.593620
