27
Energy: -241646.476727 eV PBE+vdW (tier 2 basis)
N    0.342117  -0.286623  -0.334175
C    0.213525  -0.320981  1.137395
C    1.432344  0.323823  1.792901
O    1.394191  0.616226  3.040522
H    -0.106380  -1.115972  -0.728700
H    -0.284032  1.153292  -1.482590
H    0.273072  -1.361997  1.516272
C    -1.119719  0.257484  1.651405
C    -1.509000  1.604174  1.018542
C    -2.459989  1.419190  -0.180145
N    -2.466241  2.535663  -1.124683
C    -1.590324  2.664231  -2.131270
N    -0.542186  1.840287  -2.224558
N    -1.773461  3.636219  -3.043472
H    -1.042358  0.348384  2.741113
H    -1.911514  -0.485088  1.472166
H    -0.608214  2.145882  0.691734
H    -1.994659  2.245173  1.765537
H    -3.491577  1.284764  0.167831
H    -2.207008  0.512042  -0.744367
H    -3.146417  3.276284  -0.993924
H    -0.006548  1.818580  -3.083707
H    -2.662541  4.111730  -3.135020
H    -1.073583  3.834215  -3.746827
O    2.513814  0.481437  1.119637
H    1.335585  -0.360137  -0.570519
Ba    3.811025  1.006416  3.188531
