27
Energy: -241645.638077 eV PBE+vdW (tier 2 basis)
N    0.340488  0.825748  0.087402
C    0.493141  0.036000  1.336104
C    1.470496  -1.116073  1.092231
O    2.014354  -1.306547  0.001720
H    -0.572035  0.644276  -0.345700
H    0.317910  1.816736  0.338133
H    1.021185  0.690981  2.049858
C    -0.831536  -0.388758  2.048828
C    -1.556416  -1.709129  1.712209
C    -2.230957  -1.887913  0.343614
N    -1.265825  -2.170655  -0.724024
C    -0.951853  -1.437544  -1.810677
N    0.088690  -1.672085  -2.598433
N    -1.668534  -0.280255  -2.062183
H    -1.524620  0.459610  1.940134
H    -0.621921  -0.418937  3.129493
H    -2.354782  -1.807775  2.462367
H    -0.899844  -2.575668  1.892616
H    -2.824526  -1.001312  0.087715
H    -2.940295  -2.724934  0.403281
H    -0.689280  -2.995283  -0.580411
H    0.455091  -2.618727  -2.454676
H    -1.655334  -0.028057  -3.047894
H    -2.610886  -0.226970  -1.684264
O    1.773155  -1.929035  2.089373
H    1.332001  -1.691898  2.928137
Ba    1.995550  0.038373  -2.160662
