27
Energy: -241646.370246 eV PBE+vdW (tier 2 basis)
N    -0.723095  0.698241  0.039454
C    -0.433147  0.318284  1.462714
C    1.008625  0.779020  1.819624
O    1.340589  1.930098  1.286635
H    -1.721765  0.550081  -0.136789
H    -0.255789  0.025206  -0.578371
H    -1.092731  0.953770  2.078419
C    -0.734724  -1.139905  1.832106
C    0.279095  -2.194260  1.329314
C    0.792076  -3.046047  2.505601
N    2.013824  -3.799165  2.226154
C    3.253758  -3.391579  2.542638
N    3.489317  -2.131970  2.915757
N    4.267410  -4.272872  2.474387
H    -1.751880  -1.382833  1.493150
H    -0.783914  -1.175687  2.930108
H    1.142153  -1.710307  0.850037
H    -0.172953  -2.847296  0.570944
H    0.026927  -3.768157  2.819941
H    0.989538  -2.401472  3.371449
H    1.925490  -4.710223  1.788909
H    4.374333  -1.889754  3.344156
H    5.230459  -3.970224  2.548307
H    4.098336  -5.271022  2.464488
O    1.727448  0.116640  2.557510
H    2.802765  -1.376391  2.808320
Ba    0.375909  3.262676  -0.320222
