27
Energy: -241644.820787 eV PBE+vdW (tier 2 basis)
N    -0.435207  0.648765  1.868211
C    0.291605  -0.466303  2.456893
C    1.787102  -0.356841  2.202842
O    2.578348  -1.303486  2.162409
H    -1.380380  0.700134  2.248611
H    0.014781  1.543369  2.056124
H    0.269242  -0.471843  3.572996
C    -0.333237  -1.810287  2.021181
C    -0.577850  -1.975995  0.512700
C    0.563914  -2.583047  -0.306841
N    0.843143  -3.979205  0.089360
C    1.928920  -4.476063  0.673169
N    2.098507  -5.703636  1.133519
N    3.092224  -3.645242  0.865951
H    -1.305356  -1.869170  2.529932
H    0.257672  -2.638693  2.440187
H    -0.804155  -0.989529  0.081374
H    -1.479285  -2.586273  0.352968
H    1.488114  -2.003799  -0.212401
H    0.296032  -2.594530  -1.372105
H    0.057256  -4.620011  -0.020544
H    1.289451  -6.320006  1.031691
H    3.430394  -3.294643  -0.036548
H    2.842348  -2.781381  1.416072
O    2.199690  0.906142  2.118904
H    3.174943  0.926123  2.040733
Ba    4.405947  -5.694019  2.126360
