27
Energy: -241644.218921 eV PBE+vdW (tier 2 basis)
N    -0.649285  0.219085  -0.262736
C    -0.200763  0.145120  1.122216
C    1.318281  0.307716  1.182262
O    2.033948  0.428603  0.212020
H    -1.433642  0.858658  -0.366028
H    0.114988  0.557382  -0.851065
H    -0.620636  0.946620  1.752572
C    -0.631161  -1.204956  1.760575
C    -0.055557  -2.383950  0.973126
C    -0.727445  -3.708201  1.313657
N    -0.199934  -4.769876  0.419017
C    -0.202185  -6.080451  0.605826
N    0.366482  -7.013360  -0.142506
N    -0.933208  -6.641832  1.717023
H    -1.730842  -1.235250  1.726536
H    -0.329407  -1.237252  2.816441
H    1.028687  -2.470255  1.146814
H    -0.213663  -2.158164  -0.096718
H    -1.816934  -3.629011  1.169093
H    -0.531606  -3.997044  2.356780
H    0.242026  -4.421238  -0.432680
H    0.973424  -6.651670  -0.881816
H    -1.751422  -6.077420  1.963748
H    -0.341090  -6.660499  2.554988
O    1.774462  0.279903  2.458123
H    2.738985  0.437478  2.420932
Ba    -0.743601  -9.189268  0.413493
