27
Energy: -241645.877001 eV PBE+vdW (tier 2 basis)
N    0.714620  -0.676595  -0.848568
C    -0.231852  -0.190644  0.162220
C    0.444277  1.028230  0.824712
O    -0.124361  1.727000  1.691263
H    0.989879  -1.648619  -0.713258
H    0.396875  -0.558663  -1.809216
H    -1.137253  0.206251  -0.326179
C    -0.621670  -1.240349  1.226253
C    -1.896018  -2.044330  0.936006
C    -3.215402  -1.264476  1.089513
N    -3.297439  -0.580587  2.387298
C    -3.272347  0.735421  2.660183
N    -3.103808  1.297322  3.837601
N    -3.372190  1.689325  1.612229
H    -0.722823  -0.738926  2.198786
H    0.225346  -1.931746  1.347245
H    -1.919328  -2.905472  1.620479
H    -1.875848  -2.476645  -0.075528
H    -4.065191  -1.954460  0.998570
H    -3.344265  -0.528763  0.285023
H    -3.181248  -1.187346  3.196946
H    -3.145028  0.647447  4.625758
H    -4.242671  2.217231  1.708506
H    -3.333508  1.303591  0.670842
O    1.639157  1.267356  0.402913
H    1.752106  0.507536  -0.309278
Ba    -1.435869  3.196033  3.176490
