27
Energy: -241646.075301 eV PBE+vdW (tier 2 basis)
N    0.265309  0.069999  0.284738
C    0.155256  -0.289185  1.752422
C    1.625045  -0.658248  2.134454
O    1.810638  -1.075574  3.340000
H    -0.075902  1.009638  0.057233
H    -0.209115  -0.604534  -0.326684
H    -0.098929  0.638598  2.283623
C    -0.883187  -1.396445  2.048059
C    -2.010699  -1.041643  3.038597
C    -1.592767  -0.550074  4.432555
N    -0.562464  -1.410660  5.015020
C    -0.183102  -1.459883  6.318338
N    1.090617  -1.769119  6.593411
N    -1.101163  -1.202856  7.271709
H    -0.353398  -2.295898  2.390695
H    -1.366499  -1.700086  1.107615
H    -2.629189  -1.943094  3.148103
H    -2.663110  -0.270913  2.602612
H    -2.489533  -0.537041  5.063986
H    -1.231553  0.493730  4.391992
H    0.228244  -1.543032  4.384540
H    1.190141  -1.981241  7.589998
H    -0.851314  -1.243940  8.251409
H    -2.090083  -1.158677  7.060238
O    2.488383  -0.512811  1.264779
H    1.325766  0.002464  0.138480
Ba    3.244894  -1.705663  5.208188
