27
Energy: -241645.890826 eV PBE+vdW (tier 2 basis)
N    -0.374855  0.006230  1.063997
C    0.096360  -0.171282  2.462904
C    1.423420  -0.932078  2.404068
O    1.613971  -1.789100  1.535845
H    -1.336417  0.355330  1.097849
H    0.155935  0.772498  0.636585
H    0.230110  0.802025  2.964447
C    -0.870901  -1.055708  3.291514
C    -2.355596  -0.631562  3.297757
C    -3.284668  -1.792602  2.907112
N    -2.955805  -2.291446  1.569846
C    -2.782579  -3.598550  1.186403
N    -2.059140  -3.811912  0.092915
N    -3.296243  -4.566072  1.971689
H    -0.488180  -1.095266  4.319891
H    -0.793220  -2.083244  2.903927
H    -2.551477  0.223902  2.630647
H    -2.647303  -0.274920  4.293796
H    -4.335170  -1.472881  2.963207
H    -3.151211  -2.616754  3.619657
H    -3.103835  -1.654774  0.794218
H    -2.217050  -4.751731  -0.280310
H    -3.079501  -5.539183  1.789484
H    -4.082681  -4.387175  2.586219
O    2.347073  -0.733537  3.320959
H    2.125100  -0.012331  3.941981
Ba    0.078651  -2.434073  -0.431287
