27
Energy: -241644.729033 eV PBE+vdW (tier 2 basis)
N    -2.067979  0.137932  1.420354
C    -0.834455  -0.162198  2.108927
C    0.371556  0.740222  1.820993
O    1.279840  0.937190  2.638989
H    -2.387177  1.092527  1.576095
H    -2.002292  -0.013282  0.413957
H    -1.021817  -0.031436  3.188741
C    -0.473355  -1.647917  1.844922
C    0.767651  -2.256330  2.514949
C    0.807985  -2.236874  4.050481
N    1.297538  -0.937359  4.553061
C    1.827712  -0.682782  5.728864
N    2.368967  0.462640  6.130969
N    1.844554  -1.687559  6.780085
H    -0.366409  -1.782010  0.757832
H    -1.370021  -2.215183  2.133174
H    1.699019  -1.814075  2.129357
H    0.804298  -3.312379  2.214151
H    1.481922  -3.030406  4.403442
H    -0.195465  -2.439427  4.460509
H    1.281909  -0.139914  3.846841
H    2.433251  1.163862  5.388247
H    2.599789  -2.360653  6.607102
H    0.982718  -2.241428  6.781890
O    0.369740  1.293916  0.615413
H    1.179190  1.834977  0.507517
Ba    2.644035  0.343197  8.593093
