27
Energy: -241645.3815 eV PBE+vdW (tier 2 basis)
N    0.656786  -0.353994  1.068694
C    0.448113  -0.428341  2.496107
C    1.644116  -1.024694  3.221064
O    1.634664  -1.326427  4.435080
H    -0.127777  0.109209  0.611100
H    1.504703  0.148607  0.810121
H    0.352226  0.560732  3.006707
C    -0.842799  -1.213500  2.823849
C    -0.984755  -2.558053  2.080423
C    -1.676165  -3.666849  2.887619
N    -0.778884  -4.252653  3.898975
C    -0.598378  -3.904652  5.178881
N    0.370643  -4.301208  5.983257
N    -1.439324  -2.935730  5.779655
H    -1.697238  -0.564513  2.587757
H    -0.863195  -1.343098  3.914209
H    -0.001054  -2.923892  1.748657
H    -1.552571  -2.411752  1.152913
H    -1.977073  -4.486972  2.223842
H    -2.602465  -3.322417  3.369900
H    -0.069748  -4.877844  3.522145
H    0.913689  -5.091255  5.627871
H    -1.890163  -3.327597  6.609332
H    -2.151408  -2.536441  5.169606
O    2.724882  -1.141580  2.481747
H    3.486140  -1.456961  3.011732
Ba    1.117393  -1.982691  6.817950
