27
Energy: -241646.138864 eV PBE+vdW (tier 2 basis)
N    -1.351806  0.086375  -0.911085
C    -0.768921  0.101608  0.490699
C    0.130436  -1.175630  0.502134
O    1.003231  -1.252666  1.449667
H    -0.893442  0.744771  -1.550883
H    -2.363296  0.261576  -0.933311
H    -0.144191  0.998452  0.591910
C    -1.937827  0.114191  1.500058
C    -1.651182  -0.038830  3.005568
C    -0.764471  1.016357  3.689581
N    0.657263  0.719053  3.500068
C    1.604757  0.624857  4.461686
N    2.640711  -0.200770  4.254439
N    1.453355  1.356319  5.586165
H    -2.628269  -0.698701  1.221736
H    -2.482502  1.059895  1.346173
H    -1.253003  -1.040649  3.222939
H    -2.635559  -0.003009  3.492623
H    -0.985197  1.006954  4.765406
H    -1.004093  2.026601  3.320268
H    0.869765  0.162447  2.670620
H    3.385776  -0.006174  4.928324
H    2.104696  1.261104  6.354801
H    0.818760  2.144602  5.623738
O    -0.052160  -1.997894  -0.398086
H    -1.126155  -0.912239  -1.215913
Ba    2.919179  -2.171945  2.649572
