27
Energy: -241645.131878 eV PBE+vdW (tier 2 basis)
N    0.280654  -0.062450  0.543710
C    -0.069724  -0.391054  1.963355
C    0.780754  0.446280  2.941652
O    1.926139  0.858277  2.484882
H    0.047766  -0.869851  -0.043697
H    -0.355770  0.671985  0.217304
H    -1.122007  -0.134657  2.151840
C    0.139362  -1.904284  2.205693
C    -0.011936  -2.389752  3.654350
C    -1.415404  -2.191111  4.257773
N    -1.459236  -2.407709  5.706086
C    -0.985141  -1.546279  6.654401
N    -0.569051  -1.681438  7.840892
N    -1.071499  -0.098196  6.244079
H    1.150716  -2.176315  1.860471
H    -0.566719  -2.446127  1.555475
H    0.731506  -1.891450  4.293146
H    0.237992  -3.459897  3.682303
H    -2.135378  -2.886201  3.806545
H    -1.803375  -1.186053  4.042481
H    -1.466575  -3.378716  6.007383
H    -0.476328  -2.647193  8.165785
H    -0.663627  0.413522  7.039528
H    -2.051683  0.197299  6.140315
O    0.377183  0.661213  4.088274
H    -0.542177  0.154490  5.355397
Ba    2.904695  0.976074  0.393357
