27
Energy: -241644.173652 eV PBE+vdW (tier 2 basis)
N    -0.579152  0.555496  -0.444592
C    -0.654223  0.255486  0.980794
C    0.308783  0.980243  1.938455
O    0.083958  1.114079  3.120533
H    -0.744367  1.548726  -0.609911
H    0.361595  0.370411  -0.799252
H    -1.649093  0.566086  1.339123
C    -0.485838  -1.261543  1.225161
C    -1.383594  -2.141820  0.346610
C    -2.866582  -1.813259  0.504933
N    -3.675867  -2.730929  -0.331024
C    -4.939393  -3.090158  -0.164074
N    -5.633857  -3.981578  -0.854227
N    -5.738149  -2.443477  0.851150
H    -0.659934  -1.467352  2.290824
H    0.557986  -1.545245  1.023350
H    -1.210901  -3.197422  0.605202
H    -1.108895  -1.996447  -0.709321
H    -3.054989  -0.779610  0.176517
H    -3.177397  -1.922632  1.554016
H    -3.178924  -3.138496  -1.123860
H    -5.081470  -4.527654  -1.519277
H    -5.457360  -1.469181  0.996549
H    -5.604919  -2.910793  1.755206
O    1.428082  1.412234  1.313412
H    1.994752  1.834972  1.989949
Ba    -8.060986  -3.528087  -0.420117
