27
Energy: -241644.956714 eV PBE+vdW (tier 2 basis)
N    1.399349  -0.951378  -0.536190
C    0.744922  -0.294737  0.599947
C    1.786898  0.139626  1.645464
O    2.819188  -0.529322  1.815848
H    0.012730  -1.130557  -1.743868
H    1.756881  -0.200494  -1.142729
H    0.166866  0.596922  0.293375
C    -0.208799  -1.268156  1.350797
C    -1.252396  -1.991889  0.493035
C    -2.461858  -1.195268  0.004136
N    -2.237401  -0.061207  -0.932791
C    -1.775864  -0.168760  -2.200799
N    -0.740807  -0.967405  -2.471234
N    -2.353433  0.563626  -3.166446
H    -0.701540  -0.732814  2.177434
H    0.410222  -2.041344  1.838830
H    -1.682869  -2.793220  1.112827
H    -0.766236  -2.508085  -0.344383
H    -2.973854  -0.745140  0.864151
H    -3.172545  -1.895647  -0.460079
H    -2.886178  0.708516  -0.795164
H    -0.510946  -1.147364  -3.442597
H    -1.898957  0.713389  -4.060096
H    -3.293822  0.927936  -3.063319
O    1.602302  1.200237  2.410162
H    0.775457  1.669948  2.189672
Ba    3.396833  -2.327075  0.154443
