27
Energy: -241645.871936 eV PBE+vdW (tier 2 basis)
N    -0.076572  0.171798  0.613549
C    -0.637052  -0.195484  1.981371
C    0.319957  0.473921  2.996311
O    0.725518  1.638863  2.663143
H    0.341776  1.118482  0.727573
H    0.665628  -0.479562  0.320489
H    -1.556316  0.402841  2.067230
C    -0.954383  -1.684581  2.075589
C    -1.587138  -2.207838  3.387098
C    -2.797181  -1.460353  4.007572
N    -2.424561  -0.609174  5.146902
C    -2.171969  0.716164  5.169811
N    -1.470148  1.341556  6.105404
N    -2.604675  1.486412  4.104465
H    -0.035615  -2.267705  1.905188
H    -1.634910  -1.924660  1.242337
H    -0.806764  -2.291971  4.152918
H    -1.908431  -3.234642  3.168285
H    -3.513751  -2.199460  4.386448
H    -3.355183  -0.874396  3.265329
H    -2.017131  -1.123361  5.922830
H    -1.323811  0.736337  6.919431
H    -2.776850  2.450350  4.379785
H    -3.395763  1.117466  3.583476
O    0.551345  -0.069562  4.104646
H    -0.790967  0.186911  -0.125294
Ba    0.838696  2.260766  5.243583
