27
Energy: -241645.248388 eV PBE+vdW (tier 2 basis)
N    0.853426  0.980853  0.221301
C    0.044700  0.260906  1.263103
C    0.983159  -0.090365  2.449951
O    2.205001  -0.385541  2.106571
H    0.867520  1.976063  0.474934
H    0.334566  0.960101  -0.661839
H    -0.231499  -0.709215  0.814293
C    -1.227862  1.028924  1.672234
C    -2.476833  0.210500  2.061558
C    -2.415511  -0.745613  3.250440
N    -1.912943  -0.084696  4.523386
C    -2.651467  1.129437  4.989285
N    -2.063756  2.220616  4.721856
N    -3.846262  0.828460  5.561616
H    -1.542013  1.636024  0.810246
H    -0.984454  1.743091  2.473269
H    -2.799537  -0.405695  1.207789
H    -3.292509  0.928841  2.225011
H    -1.722686  -1.579845  3.081990
H    -3.409435  -1.163129  3.449880
H    -1.865685  -0.787769  5.272935
H    -2.562599  3.052207  5.050387
H    -4.083079  -0.105354  5.876771
H    -4.397001  1.578450  5.965212
O    0.577597  -0.105121  3.611550
H    -0.907069  0.181898  4.302001
Ba    3.516269  0.041766  0.264007
