27
Energy: -241645.378888 eV PBE+vdW (tier 2 basis)
N    0.509533  -0.581004  0.951990
C    -0.175311  -0.318816  2.210838
C    0.820704  -0.596536  3.335557
O    1.074634  -1.734422  3.799545
H    1.235058  0.095896  0.721915
H    0.863159  -1.529496  0.843328
H    -0.410905  0.753787  2.236388
C    -1.458776  -1.143209  2.344278
C    -2.474995  -0.569703  3.352899
C    -3.328857  -1.611800  4.092547
N    -2.589193  -2.237964  5.201856
C    -1.809097  -3.326529  5.194580
N    -0.967989  -3.707871  6.137580
N    -1.757406  -4.160041  4.050365
H    -1.165848  -2.172542  2.602423
H    -1.908875  -1.194320  1.344442
H    -3.153265  0.116755  2.828185
H    -1.968908  0.046737  4.113792
H    -3.718214  -2.388079  3.418413
H    -4.211890  -1.135759  4.536312
H    -2.492555  -1.650856  6.027543
H    -1.073439  -3.205972  7.022133
H    -2.321548  -3.851447  3.259646
H    -2.024189  -5.114994  4.299763
O    1.490432  0.475723  3.715243
H    2.214108  0.247502  4.335330
Ba    1.099454  -4.103613  4.651264
