27
Energy: -241644.16878 eV PBE+vdW (tier 2 basis)
N    -0.258581  -0.138240  -0.149798
C    0.163602  -0.898361  1.018979
C    1.603905  -1.458003  1.024358
O    1.960772  -2.400333  1.697853
H    -0.017537  -0.624811  -1.014379
H    0.205909  0.767875  -0.190300
H    0.140620  -0.208472  1.881542
C    -0.816913  -2.050487  1.301179
C    -2.216930  -1.530796  1.630259
C    -3.222474  -2.671410  1.755763
N    -4.575069  -2.133028  2.037328
C    -5.573140  -2.716699  2.685597
N    -6.735511  -2.190947  3.037222
N    -5.472497  -4.110429  3.046782
H    -0.413160  -2.662035  2.119204
H    -0.857080  -2.699821  0.410599
H    -2.528102  -0.838494  0.830150
H    -2.194316  -0.960170  2.572449
H    -2.936936  -3.347609  2.574371
H    -3.258655  -3.253541  0.821182
H    -4.729462  -1.177931  1.712785
H    -6.807270  -1.181971  2.887656
H    -4.900367  -4.641539  2.384162
H    -5.012486  -4.206819  3.959042
O    2.421421  -0.750266  0.214777
H    3.317962  -1.132159  0.303475
Ba    -8.308097  -4.099763  3.480485
