27
Energy: -241646.416512 eV PBE+vdW (tier 2 basis)
N    0.563400  -0.511481  -0.337599
C    0.255333  -0.145731  1.049424
C    1.482621  0.134789  1.923063
O    1.315839  0.702567  3.061829
H    1.210175  0.163992  -0.750106
H    -0.970957  -0.436408  -1.329600
H    -0.328286  0.787890  1.037583
C    -0.581240  -1.250835  1.738937
C    -1.793904  -1.769233  0.955297
C    -3.033163  -0.878622  0.866459
N    -2.946931  0.414274  0.129386
C    -2.783776  0.546152  -1.209312
N    -1.850915  -0.164995  -1.841273
N    -3.548267  1.428946  -1.873392
H    -0.891550  -0.880473  2.725913
H    0.081206  -2.111877  1.925550
H    -2.145521  -2.675542  1.471651
H    -1.497873  -2.118390  -0.042170
H    -3.348932  -0.593659  1.878172
H    -3.851767  -1.470506  0.429744
H    -3.513710  1.147931  0.544686
H    -1.840354  -0.178137  -2.855403
H    -3.302353  1.741962  -2.805678
H    -4.441308  1.735173  -1.505193
O    2.650914  -0.213465  1.527326
H    1.051706  -1.410489  -0.367978
Ba    3.711487  0.584914  3.627300
