27
Energy: -241645.016519 eV PBE+vdW (tier 2 basis)
N    0.329274  0.372230  0.435854
C    0.358217  -0.079843  1.836504
C    1.738397  -0.750864  2.054180
O    2.158771  -1.128789  3.150656
H    0.373674  1.385870  0.344796
H    -0.490465  0.045300  -0.073798
H    0.323712  0.776938  2.527509
C    -0.841714  -1.003829  2.147600
C    -0.953022  -1.532057  3.593195
C    -0.373082  -2.945795  3.759304
N    -0.226024  -3.362978  5.164830
C    0.829103  -3.043740  5.918179
N    1.841776  -2.281186  5.586331
N    0.968105  -3.650193  7.216622
H    -0.843607  -1.843746  1.433196
H    -1.742048  -0.416122  1.923577
H    -2.010816  -1.550746  3.888404
H    -0.453468  -0.837867  4.283802
H    0.616722  -3.025833  3.292817
H    -1.021256  -3.688257  3.277206
H    -1.005195  -3.848551  5.601072
H    1.771278  -1.762170  4.680814
H    0.444015  -4.521793  7.322396
H    0.657651  -3.011798  7.954577
O    2.439511  -0.875260  0.953894
H    1.829491  -0.421889  0.262876
Ba    3.827780  -3.060410  6.803803
