27
Energy: -241646.491625 eV PBE+vdW (tier 2 basis)
N    0.613057  0.006774  0.581527
C    -0.576756  0.312725  1.480601
C    -0.228753  -0.348325  2.831191
O    -0.797245  0.061192  3.879793
H    0.340625  -0.151232  -0.397210
H    1.323053  0.749875  0.601085
H    -0.650942  1.400763  1.593729
C    -1.852410  -0.268522  0.832718
C    -3.192843  0.136432  1.496105
C    -3.952115  -1.008231  2.176082
N    -3.221368  -1.477084  3.347459
C    -3.271670  -2.696358  3.934635
N    -2.351143  -2.994213  4.856201
N    -4.224419  -3.560969  3.520869
H    -1.758292  -1.365313  0.793680
H    -1.865557  0.083740  -0.209966
H    -3.854109  0.551362  0.725521
H    -3.041223  0.951770  2.219334
H    -4.078795  -1.844574  1.472295
H    -4.957550  -0.649290  2.450462
H    -2.681683  -0.771986  3.840449
H    -2.625213  -3.838785  5.364312
H    -4.246681  -4.505953  3.882775
H    -5.057919  -3.242499  3.041702
O    0.593283  -1.321883  2.789909
H    1.034107  -0.859765  0.991643
Ba    -0.016790  -2.016885  5.312452
