27
Energy: -241645.037778 eV PBE+vdW (tier 2 basis)
N    1.001812  -1.144660  1.250007
C    0.413703  0.076060  1.847984
C    1.381445  0.670963  2.873080
O    2.318175  0.086198  3.404499
H    0.342207  -1.510336  0.557860
H    1.833327  -0.880735  0.715147
H    0.276487  0.870192  1.095885
C    -0.998702  -0.201859  2.436728
C    -1.182953  -1.522624  3.195279
C    -0.421440  -1.631079  4.535039
N    0.101457  -2.982585  4.797261
C    1.196572  -3.518160  4.252056
N    1.627654  -4.757433  4.413514
N    2.050661  -2.728153  3.415348
H    -1.703095  -0.203616  1.592753
H    -1.290964  0.657124  3.056469
H    -0.884906  -2.361824  2.551100
H    -2.256780  -1.663659  3.375533
H    -1.072656  -1.382962  5.380435
H    0.418652  -0.930817  4.587105
H    -0.466958  -3.590130  5.383198
H    1.023322  -5.358716  4.977005
H    1.566103  -2.383780  2.524390
H    2.265004  -1.797050  3.819977
O    1.074143  1.945787  3.121476
H    1.702804  2.305459  3.780678
Ba    3.903015  -4.706498  3.360163
