27
Energy: -241645.160263 eV PBE+vdW (tier 2 basis)
N    2.754851  -0.896977  -0.873736
C    1.759642  0.085919  -0.417710
C    2.217386  0.688366  0.910325
O    3.259745  0.319264  1.472725
H    1.906228  -2.541491  -1.329827
H    2.797815  -0.802143  -1.894794
H    1.728632  0.947042  -1.113954
C    0.278566  -0.399033  -0.300451
C    -0.083645  -1.306288  0.885674
C    0.374944  -2.768845  0.824413
N    -0.264069  -3.540599  -0.244578
C    0.300521  -3.898694  -1.405556
N    1.497561  -3.411452  -1.756383
N    -0.340458  -4.766747  -2.206020
H    0.016027  -0.872049  -1.258148
H    -0.375790  0.487486  -0.257626
H    -1.177879  -1.298801  0.999997
H    0.299379  -0.885918  1.829459
H    0.126126  -3.264741  1.772318
H    1.460630  -2.852590  0.698065
H    -1.220577  -3.841012  -0.084403
H    1.927574  -3.760606  -2.604483
H    -0.029579  -4.941246  -3.153329
H    -1.140673  -5.297233  -1.883166
O    1.508282  1.633279  1.502584
H    0.714230  1.877598  0.989080
Ba    4.950383  -1.072984  0.282058
