27
Energy: -241644.672619 eV PBE+vdW (tier 2 basis)
N    -0.497379  -0.079135  -0.304543
C    -0.417621  0.022657  1.140372
C    1.016860  0.276910  1.579588
O    1.312225  0.910445  2.600414
H    -0.012566  -0.902128  -0.663078
H    -1.465449  -0.122956  -0.619865
H    -0.968124  0.933377  1.426823
C    -1.015908  -1.187752  1.930508
C    -0.984330  -1.186501  3.469865
C    -1.668261  -0.009130  4.182253
N    -0.775541  1.165397  4.242160
C    -0.832379  2.176464  5.080644
N    0.049707  3.163724  5.199893
N    -1.953465  2.339814  5.990690
H    -0.510778  -2.100388  1.581695
H    -2.060408  -1.271941  1.593124
H    0.043667  -1.282302  3.851406
H    -1.501674  -2.097179  3.802400
H    -1.928814  -0.310304  5.206974
H    -2.603290  0.260940  3.663441
H    0.059475  1.138142  3.579385
H    0.884894  3.033427  4.622754
H    -1.831222  1.730893  6.807665
H    -2.834350  2.044721  5.559425
O    1.930301  -0.283115  0.802171
H    2.822295  -0.096617  1.161150
Ba    -1.009824  4.968672  6.528080
