27
Energy: -241644.711436 eV PBE+vdW (tier 2 basis)
N    0.287030  0.766568  0.555808
C    0.205050  0.166432  1.880461
C    1.609515  -0.079976  2.427008
O    1.930223  -0.985544  3.203701
H    0.895167  1.584612  0.540667
H    -0.635503  1.065119  0.240555
H    -0.245635  0.840813  2.650159
C    -0.642112  -1.129521  1.808681
C    -1.651334  -1.384543  2.939641
C    -1.083251  -1.515289  4.361516
N    0.064581  -2.426777  4.419111
C    0.089990  -3.656650  4.875537
N    -0.875270  -4.401918  5.400901
N    1.370416  -4.349585  4.882066
H    0.023195  -1.994915  1.675355
H    -1.213504  -1.072120  0.873577
H    -2.211395  -2.298821  2.692185
H    -2.393594  -0.572601  2.970512
H    -1.860286  -1.838265  5.067012
H    -0.713061  -0.545575  4.723886
H    0.909715  -2.006306  3.941704
H    -1.804960  -3.983273  5.337332
H    2.145066  -3.693946  5.024002
H    1.534698  -4.777172  3.963808
O    2.488287  0.827009  2.016977
H    3.360348  0.637954  2.419522
Ba    0.255207  -6.240401  6.645988
