27
Energy: -241644.263413 eV PBE+vdW (tier 2 basis)
N    1.115786  -0.625348  0.335629
C    0.120653  -0.199796  1.313744
C    0.759617  -0.101997  2.698374
O    1.834769  -0.585093  2.989975
H    1.097959  -0.036853  -0.494239
H    2.051093  -0.575837  0.742277
H    -0.315449  0.783990  1.083453
C    -1.054324  -1.224638  1.360142
C    -0.514583  -2.620565  1.683110
C    -1.479096  -3.752255  1.369249
N    -0.840229  -5.127135  1.452725
C    -0.385594  -5.515416  2.753160
N    -1.330921  -6.049570  3.494906
N    0.905794  -5.365774  3.053327
H    -1.516113  -1.221708  0.361294
H    -1.815746  -0.899071  2.082274
H    -0.211744  -2.673257  2.740370
H    0.393408  -2.741938  1.061633
H    -1.864898  -3.663954  0.342646
H    -2.338871  -3.739897  2.064734
H    -0.078441  -5.166040  0.769815
H    -1.069318  -6.236711  4.464901
H    1.518289  -4.783497  2.488854
H    1.287940  -5.706543  3.931813
O    -0.040430  0.549085  3.569715
H    0.433155  0.601638  4.424407
Ba    -3.071244  -6.745838  1.795697
