27
Energy: -241646.230636 eV PBE+vdW (tier 2 basis)
N    0.461656  0.120157  0.217941
C    0.357382  0.224464  1.673479
C    1.803950  0.214812  2.169414
O    2.314867  1.292888  2.639855
H    0.554654  -0.842460  -0.102326
H    -0.310573  0.569010  -0.267593
H    -0.027956  1.227018  1.905200
C    -0.510512  -0.829882  2.397029
C    -2.002330  -0.671275  2.079589
C    -2.929103  -1.597020  2.879331
N    -2.861948  -3.018423  2.506920
C    -3.704854  -3.657599  1.686206
N    -3.701202  -4.999718  1.642149
N    -4.550079  -2.979427  0.898651
H    -0.360851  -0.724330  3.484744
H    -0.146218  -1.833304  2.122779
H    -2.178052  -0.808990  1.000554
H    -2.313862  0.359002  2.313446
H    -3.975352  -1.274951  2.787527
H    -2.693109  -1.542436  3.951015
H    -2.137773  -3.581779  2.939482
H    -3.296242  -5.550822  2.388866
H    -5.335921  -3.440749  0.456309
H    -4.469548  -1.979252  0.772420
O    2.523701  -0.838495  2.022792
H    -4.186374  -5.502698  0.909006
Ba    4.589907  0.492158  2.278842
