27
Energy: -241644.817585 eV PBE+vdW (tier 2 basis)
N    -0.432307  1.273624  1.211459
C    0.316236  0.200407  1.960927
C    1.077006  -0.574917  0.873607
O    0.810875  -0.436334  -0.304980
H    -0.426244  0.952704  0.218675
H    0.056003  2.173805  1.243284
H    1.030511  0.671582  2.649199
C    -0.654966  -0.722829  2.717515
C    -1.278597  -0.149936  4.002231
C    -1.933853  1.241860  3.894626
N    -2.693208  1.409680  2.659987
C    -3.977660  1.556030  2.604834
N    -4.733089  1.698135  1.496470
N    -4.867611  1.612661  3.796205
H    -0.099729  -1.631267  2.984974
H    -1.439230  -1.043603  2.014293
H    -0.516817  -0.099143  4.793818
H    -2.025953  -0.880329  4.345296
H    -1.147476  2.016006  3.903109
H    -2.522964  1.421253  4.807506
H    -1.456168  1.388092  1.609266
H    -4.174529  1.647196  0.642701
H    -4.832775  0.719155  4.297081
H    -4.514937  2.302902  4.465992
O    1.993014  -1.389062  1.389439
H    2.436083  -1.877450  0.664301
Ba    -7.043113  2.115560  2.161850
