27
Energy: -241646.316378 eV PBE+vdW (tier 2 basis)
N    1.287021  -0.941296  0.643365
C    0.004499  -0.132443  0.770483
C    -0.155688  0.145965  2.279756
O    -1.120850  0.855925  2.652212
H    1.127012  -1.874504  0.246049
H    2.004575  -0.472038  0.079319
H    0.190089  0.838214  0.290594
C    -1.192188  -0.786358  0.063616
C    -1.643844  -2.209837  0.448144
C    -2.454871  -2.385989  1.748488
N    -1.637737  -2.755224  2.908462
C    -1.721685  -2.188317  4.135164
N    -2.533613  -1.248026  4.544304
N    -0.708074  -2.513443  5.059070
H    -0.970552  -0.779355  -1.014219
H    -2.031412  -0.087123  0.187450
H    -0.808464  -2.932291  0.438511
H    -2.289504  -2.543285  -0.375633
H    -3.220967  -3.158684  1.595526
H    -2.983940  -1.454546  1.984583
H    -1.163560  -3.652761  2.850481
H    -3.342854  -1.100321  3.939854
H    -1.080631  -2.843074  5.949414
H    0.035745  -3.121161  4.722050
O    0.725026  -0.358659  3.059332
H    1.610538  -1.028060  1.644319
Ba    -0.709583  0.499625  5.210870
