27
Energy: -241645.213009 eV PBE+vdW (tier 2 basis)
N    0.032226  -1.217305  0.133299
C    0.205889  -0.407747  1.363405
C    1.636390  -0.501428  1.899019
O    1.943829  0.164145  2.947965
H    -1.271492  -2.234958  0.294700
H    -0.155669  -0.612529  -0.668009
H    0.077828  0.660712  1.126499
C    -0.835408  -0.748489  2.457567
C    -0.997226  -2.255259  2.755844
C    -2.202296  -2.923942  2.094288
N    -2.198925  -2.760090  0.580696
C    -2.446575  -3.977699  -0.244266
N    -3.481282  -3.881135  -0.967433
N    -1.536678  -4.967979  -0.031105
H    -1.799689  -0.312833  2.156693
H    -0.546110  -0.209231  3.367838
H    -1.130696  -2.399178  3.836529
H    -0.077760  -2.807294  2.499409
H    -3.142022  -2.493050  2.458495
H    -2.226399  -3.997618  2.309304
H    -2.976803  -2.154280  0.286952
H    -3.664055  -4.682711  -1.576751
H    -1.612316  -5.821499  -0.572032
H    -0.639415  -4.792874  0.402949
O    2.513526  -1.202173  1.281471
H    0.916539  -1.693438  -0.073486
Ba    4.353586  -0.290390  2.757608
