27
Energy: -241643.867291 eV PBE+vdW (tier 2 basis)
N    -0.420109  0.725033  1.271221
C    0.080319  -0.204674  2.328231
C    1.560741  -0.436048  2.109098
O    2.069211  -0.312239  0.970851
H    -1.426108  0.544580  1.166993
H    -0.377603  1.683017  1.635899
H    -0.086750  0.224801  3.329718
C    -0.649715  -1.577795  2.264466
C    -2.164825  -1.460358  2.439430
C    -2.857951  -2.835202  2.640060
N    -4.300990  -2.714847  2.700590
C    -4.903000  -1.889354  3.672211
N    -5.686975  -0.959179  3.260370
N    -4.501662  -2.188156  4.968945
H    -0.233321  -2.214285  3.060259
H    -0.399894  -2.079459  1.313704
H    -2.637981  -0.981394  1.564705
H    -2.401477  -0.830995  3.311763
H    -2.477363  -3.293715  3.563389
H    -2.607948  -3.519242  1.816882
H    -4.739940  -2.522849  1.801563
H    -6.200568  -0.509609  4.024306
H    -4.997793  -1.680818  5.694994
H    -4.417001  -3.179286  5.183202
O    2.336576  -0.852014  3.080808
H    1.884822  -0.904185  3.946748
Ba    1.153736  0.608825  -1.069982
