27
Energy: -241645.191392 eV PBE+vdW (tier 2 basis)
N    -0.234416  -0.981708  0.593763
C    -0.474804  -0.222473  1.840687
C    0.809061  0.331152  2.473499
O    0.701864  1.178002  3.428855
H    0.245041  -0.374803  -0.077671
H    -1.543096  -1.667913  -0.313315
H    -1.084712  0.657757  1.582102
C    -1.260819  -1.037209  2.890761
C    -2.665723  -1.451231  2.420940
C    -2.739122  -2.845157  1.757231
N    -3.759238  -2.948522  0.708344
C    -3.674728  -2.286552  -0.481887
N    -4.512598  -1.823754  -1.309416
N    -2.255988  -2.169866  -0.978160
H    -1.342689  -0.408049  3.785496
H    -0.674132  -1.921964  3.190098
H    -3.047617  -0.695649  1.716371
H    -3.355630  -1.427695  3.274296
H    -2.964923  -3.620152  2.499059
H    -1.766980  -3.132360  1.332062
H    -4.712764  -3.094137  1.030368
H    -5.489641  -1.864411  -1.007669
H    -2.345093  -1.649242  -1.861676
H    -1.881574  -3.103610  -1.196280
O    1.956393  -0.052710  2.054747
H    0.441208  -1.728323  0.787862
Ba    3.135093  1.440303  3.696398
