27
Energy: -241644.184226 eV PBE+vdW (tier 2 basis)
N    -0.146291  0.471480  -0.034615
C    -0.533655  -0.009978  1.285197
C    0.342379  0.349784  2.501532
O    0.023638  0.080098  3.638393
H    -0.132393  1.491397  -0.054392
H    0.806415  0.178981  -0.260696
H    -1.507696  0.445470  1.531751
C    -0.697188  -1.547448  1.280712
C    -1.535569  -2.081800  0.112670
C    -2.915991  -1.427056  0.026019
N    -3.737045  -1.972496  -1.076000
C    -4.577083  -2.996234  -1.028018
N    -5.346379  -3.466656  -1.996210
N    -4.706370  -3.761038  0.193176
H    -1.122461  -1.849910  2.247681
H    0.296713  -2.016524  1.221746
H    -1.636796  -3.176577  0.219154
H    -1.010825  -1.900135  -0.835658
H    -2.805289  -0.356548  -0.186452
H    -3.480697  -1.513796  0.965178
H    -3.605927  -1.528328  -1.984239
H    -5.348279  -2.903615  -2.849873
H    -5.342783  -3.283745  0.841844
H    -3.811109  -3.837913  0.686208
O    1.485625  0.979116  2.151715
H    1.975876  1.169622  2.977172
Ba    -6.123394  -5.743901  -1.288737
