27
Energy: -241646.47736 eV PBE+vdW (tier 2 basis)
N    -1.408479  -0.706855  1.307701
C    -0.248981  -0.598724  2.217122
C    1.032083  -0.365025  1.420098
O    0.965664  0.049617  0.207115
H    -2.234770  -0.324429  1.772054
H    -1.235187  -0.108023  0.495531
H    -0.310160  0.324484  2.829296
C    -0.132498  -1.774714  3.206897
C    -0.296685  -3.161032  2.561322
C    -1.745327  -3.675291  2.672263
N    -2.104739  -4.688589  1.680912
C    -2.546252  -4.400658  0.448372
N    -2.524210  -3.141976  -0.000414
N    -3.005827  -5.393229  -0.335233
H    -0.884190  -1.637068  3.998417
H    0.839781  -1.691412  3.706336
H    0.377325  -3.882363  3.041043
H    -0.000543  -3.125177  1.501754
H    -2.462438  -2.849851  2.574134
H    -1.919685  -4.115356  3.661872
H    -1.981546  -5.665957  1.921430
H    -2.065371  -2.357658  0.512700
H    -3.237304  -5.230332  -1.306631
H    -3.253473  -6.296242  0.049756
O    2.167030  -0.495283  2.001918
H    -3.035456  -2.909351  -0.843029
Ba    3.408187  0.571924  0.175660
