27
Energy: -241645.044639 eV PBE+vdW (tier 2 basis)
N    1.599792  -1.361280  2.100784
C    0.576997  -0.250020  2.161563
C    0.873764  0.530362  3.444456
O    1.618031  0.111923  4.309743
H    2.541622  -0.974301  2.243746
H    1.572129  -1.805774  1.176256
H    0.793995  0.411875  1.312065
C    -0.873408  -0.785632  2.014373
C    -1.765198  -0.901884  3.260869
C    -1.324003  -1.845785  4.388205
N    -1.109144  -3.227843  3.962001
C    0.079958  -3.862289  3.822802
N    0.188095  -5.125131  3.390261
N    1.283976  -3.256821  4.112877
H    -0.822127  -1.757703  1.497713
H    -1.386306  -0.116105  1.313096
H    -2.756634  -1.217738  2.903949
H    -1.923878  0.092368  3.702755
H    -2.097135  -1.845170  5.168698
H    -0.413225  -1.481636  4.877881
H    -1.942329  -3.779725  3.777579
H    -0.681687  -5.554680  3.076013
H    1.470614  -2.137681  2.873144
H    1.188448  -2.493485  4.787976
O    0.220199  1.691494  3.454746
H    0.439989  2.181626  4.274995
Ba    2.389353  -5.602890  4.425288
