27
Energy: -241645.312009 eV PBE+vdW (tier 2 basis)
N    2.237132  -1.014810  1.918209
C    1.145198  -0.379756  2.619328
C    1.419351  -0.518893  4.118321
O    2.309479  -1.257422  4.550699
H    2.170449  -0.802880  0.919774
H    -2.843699  1.703257  -2.939147
H    1.095209  0.717182  2.431682
C    -0.268758  -0.987366  2.325555
C    -0.769098  -0.807410  0.884224
C    -1.265843  0.612467  0.572048
N    -1.790260  0.769253  -0.790837
C    -3.074477  0.680026  -1.165416
N    -3.439440  1.099185  -2.385827
N    -4.003659  0.188159  -0.335095
H    -1.021131  -0.576351  3.021745
H    -0.204963  -2.063686  2.538239
H    -1.586289  -1.524554  0.711430
H    0.020582  -1.089069  0.170484
H    -0.457245  1.348442  0.677337
H    -2.051785  0.923045  1.275979
H    -1.118554  0.958768  -1.527540
H    -4.339872  0.853253  -2.779935
H    -4.991066  0.302403  -0.531115
H    -3.753923  -0.351293  0.482841
O    0.691981  0.154581  5.001568
H    0.046263  0.741327  4.566440
Ba    4.027130  -2.235411  2.952161
