27
Energy: -241646.414716 eV PBE+vdW (tier 2 basis)
N    -0.267381  -0.052654  1.190428
C    -0.499020  -0.573061  2.551563
C    0.177169  0.322194  3.584496
O    0.338157  -0.103969  4.783241
H    -0.368874  0.965327  1.208819
H    2.244878  0.203682  -1.193194
H    -1.564845  -0.462604  2.842479
C    -0.179168  -2.083030  2.694746
C    0.928779  -2.613064  1.780268
C    2.299751  -1.949478  1.981567
N    3.196003  -2.123116  0.837094
C    3.130579  -1.379165  -0.279360
N    2.197162  -0.432444  -0.406514
N    4.033406  -1.577923  -1.255699
H    -1.092451  -2.649296  2.470453
H    0.045426  -2.284188  3.750729
H    0.624552  -2.494947  0.730824
H    1.022957  -3.696160  1.940312
H    2.812792  -2.360541  2.859702
H    2.202131  -0.867790  2.153182
H    3.783127  -2.949776  0.814381
H    1.366736  -0.352178  0.224035
H    3.920224  -1.159838  -2.170266
H    4.838704  -2.175933  -1.120235
O    0.470998  1.535453  3.281273
H    -0.999114  -0.403896  0.568594
Ba    0.744591  2.148533  5.682031
