27
Energy: -241644.743138 eV PBE+vdW (tier 2 basis)
N    -0.754573  0.928662  0.303502
C    0.068585  0.184513  1.266962
C    1.412342  -0.138537  0.559832
O    2.353812  -0.721951  1.101397
H    -0.990333  1.868492  0.615583
H    -1.616841  0.448607  0.049360
H    0.334001  0.840281  2.111550
C    -0.672869  -1.053150  1.825390
C    0.046276  -1.870949  2.922745
C    0.851509  -3.047384  2.366684
N    1.733285  -3.692826  3.387994
C    2.879604  -2.985060  3.895094
N    3.350538  -3.552524  5.001547
N    3.305239  -1.890982  3.295763
H    -0.955222  -1.714401  0.989852
H    -1.615661  -0.675621  2.243336
H    -0.715463  -2.259039  3.618723
H    0.692554  -1.199208  3.507304
H    1.452308  -2.742173  1.500423
H    0.170340  -3.836479  2.021458
H    2.091256  -4.566619  2.987811
H    4.245168  -3.174198  5.319859
H    4.080234  -1.374016  3.703345
H    2.875357  -1.473003  2.425328
O    1.473416  0.282391  -0.676121
H    0.568595  0.738624  -0.800511
Ba    1.388478  -4.658485  6.041660
