27
Energy: -241644.730038 eV PBE+vdW (tier 2 basis)
N    0.198167  -0.112151  0.359310
C    0.276840  -0.280022  1.804180
C    1.641324  -0.808504  2.226428
O    1.865511  -1.494335  3.224077
H    1.031216  0.335020  -0.020155
H    -0.600186  0.471219  0.109122
H    0.226250  0.681740  2.366718
C    -0.911458  -1.131237  2.303795
C    -1.084255  -2.488911  1.601850
C    -0.371052  -3.689220  2.229191
N    -0.956400  -4.115788  3.519036
C    -0.466362  -3.871298  4.731751
N    0.569887  -3.139882  5.069902
N    -1.087545  -4.532752  5.864402
H    -1.811237  -0.530044  2.111944
H    -0.862531  -1.226437  3.398539
H    -0.719190  -2.390540  0.568226
H    -2.154220  -2.729037  1.516216
H    0.695362  -3.501849  2.396783
H    -0.448459  -4.557486  1.561238
H    -1.846469  -4.606037  3.463803
H    0.974164  -2.536233  4.319753
H    -1.502811  -5.435825  5.620319
H    -1.841464  -3.953703  6.247893
O    2.621799  -0.381038  1.429247
H    3.479767  -0.693479  1.780668
Ba    1.324605  -3.928511  7.288019
