27
Energy: -241644.642186 eV PBE+vdW (tier 2 basis)
N    0.464551  -0.462283  0.018718
C    -0.429870  0.114008  1.000284
C    0.292104  1.120860  1.888315
O    -0.245292  1.761394  2.798807
H    -0.041335  -1.056678  -0.636060
H    0.976837  0.235808  -0.517045
H    -1.271503  0.710178  0.577751
C    -1.064007  -1.050692  1.807848
C    -2.210252  -0.677025  2.765913
C    -1.773839  -0.651068  4.237252
N    -2.778685  -0.011090  5.105312
C    -2.804204  1.261025  5.491772
N    -3.722907  1.853874  6.238432
N    -1.771223  2.164372  5.066488
H    -0.261042  -1.596008  2.325041
H    -1.447782  -1.749128  1.053032
H    -3.035302  -1.394456  2.656935
H    -2.621563  0.306243  2.491907
H    -0.823735  -0.121391  4.364216
H    -1.623662  -1.668670  4.620384
H    -3.581506  -0.583049  5.363375
H    -4.435068  1.229949  6.623637
H    -1.356951  1.941190  4.132007
H    -0.984227  2.119503  5.723678
O    1.570302  1.297008  1.569289
H    1.952187  1.981253  2.155657
Ba    -3.375059  4.299701  5.810355
