27
Energy: -241645.186677 eV PBE+vdW (tier 2 basis)
N    0.209472  0.485588  0.895928
C    0.268603  -0.391552  2.126306
C    1.603062  -1.131348  2.155984
O    2.525809  -0.798977  1.332494
H    1.133740  0.906879  0.731728
H    -0.028890  -0.057555  0.056287
H    0.306751  0.316268  2.970927
C    -0.962838  -1.308859  2.228477
C    -2.331626  -0.627176  2.056332
C    -2.814893  0.291211  3.198881
N    -1.849975  1.255428  3.716307
C    -1.161914  2.228437  3.043048
N    -0.074127  2.699210  3.546138
N    -1.640036  2.500944  1.722655
H    -0.901229  -1.812658  3.202621
H    -0.873054  -2.103291  1.470263
H    -3.081466  -1.424476  1.954054
H    -2.374677  -0.092684  1.094328
H    -3.103229  -0.325349  4.058900
H    -3.742870  0.791978  2.876834
H    -1.526324  1.139357  4.670297
H    0.290413  3.509739  3.040789
H    -1.346595  3.427094  1.410562
H    -2.653889  2.424868  1.613071
O    1.782444  -2.023333  3.046403
H    -0.526791  1.259658  1.028562
Ba    4.179485  -2.359566  2.487408
