27
Energy: -241645.697886 eV PBE+vdW (tier 2 basis)
N    0.357207  -1.104976  -0.846894
C    0.356256  -0.176362  0.289064
C    1.770698  0.290298  0.604956
O    2.792686  -0.277285  0.203740
H    -0.610226  -1.390387  -1.018134
H    0.632540  -0.604973  -1.696089
H    -0.220928  0.742223  0.062658
C    -0.298188  -0.777318  1.575842
C    0.516147  -1.720233  2.485258
C    0.531254  -3.217229  2.143135
N    1.147073  -3.538866  0.854088
C    2.449051  -3.436777  0.570053
N    3.466315  -3.337384  1.393309
N    2.803627  -3.323148  -0.810462
H    -1.236327  -1.258685  1.257710
H    -0.622268  0.073267  2.192053
H    0.079785  -1.652757  3.492267
H    1.548269  -1.352981  2.602732
H    -0.490193  -3.616415  2.108706
H    1.042523  -3.775885  2.939635
H    0.522049  -3.600717  0.057815
H    3.234087  -3.515213  2.372117
H    2.028412  -2.949143  -1.365624
H    3.128292  -4.212121  -1.198201
O    1.925208  1.349831  1.383689
H    1.075679  1.774302  1.616709
Ba    4.907113  -1.656248  0.080080
