27
Energy: -241645.151728 eV PBE+vdW (tier 2 basis)
N    0.080891  -0.270661  0.297993
C    0.205501  0.065973  1.723446
C    1.573952  -0.378808  2.264263
O    2.164109  -1.355823  1.772429
H    -2.137398  1.519494  -1.813153
H    0.378500  0.558148  -0.232368
H    0.113804  1.154044  1.898630
C    -0.855278  -0.640612  2.616843
C    -2.267111  -0.025624  2.608539
C    -3.209619  -0.441810  1.477462
N    -2.733187  0.012298  0.171166
C    -3.518521  0.358806  -0.843163
N    -2.968565  0.953952  -1.928453
N    -4.838163  0.114491  -0.839219
H    -0.500844  -0.631935  3.658742
H    -0.896934  -1.705803  2.330462
H    -2.198376  1.072522  2.640498
H    -2.764416  -0.322444  3.542598
H    -4.194139  0.005135  1.674941
H    -3.338619  -1.537858  1.478551
H    -1.678244  -0.051398  0.038912
H    -3.537410  1.155144  -2.742196
H    -5.460630  0.562806  -1.500743
H    -5.258796  -0.507196  -0.160721
O    2.145993  0.235878  3.282225
H    1.624834  1.001181  3.593062
Ba    1.458767  -2.250556  -0.442002
