27
Energy: -241644.894339 eV PBE+vdW (tier 2 basis)
N    0.835950  0.000324  0.527385
C    0.720643  0.263828  -0.948813
C    1.452770  1.595098  -1.174979
O    1.772917  2.309363  -0.243478
H    1.570282  -0.685083  0.725700
H    1.139747  0.912102  0.932298
H    1.236467  -0.537832  -1.493040
C    -0.743213  0.348946  -1.411778
C    -1.584305  -0.915655  -1.144181
C    -2.420871  -0.892442  0.139451
N    -1.594025  -0.782564  1.347010
C    -2.091764  -0.980773  2.528036
N    -1.456652  -0.919915  3.715899
N    -3.519261  -1.312081  2.765307
H    -0.707314  0.544701  -2.490959
H    -1.219527  1.234038  -0.960187
H    -0.947788  -1.814386  -1.156874
H    -2.289078  -1.043849  -1.976563
H    -3.033822  -1.809206  0.154658
H    -3.121639  -0.039387  0.080834
H    -0.139341  -0.340134  0.971440
H    -0.459049  -0.725901  3.618467
H    -3.724372  -2.235158  2.367254
H    -4.120545  -0.668652  2.240829
O    1.644883  1.846663  -2.466590
H    2.093176  2.712776  -2.563407
Ba    -3.115792  -1.186936  5.494992
