27
Energy: -241646.25063 eV PBE+vdW (tier 2 basis)
N    0.411028  -0.830952  0.629035
C    -0.133060  -0.739230  2.047464
C    0.885302  -1.529808  2.899015
O    1.091000  -1.201172  4.100046
H    1.155023  -0.142506  0.450935
H    0.833746  -1.780832  0.554971
H    -0.164618  0.319815  2.327679
C    -1.531235  -1.415792  2.102566
C    -2.612944  -0.789043  2.999000
C    -2.316478  -0.623706  4.505202
N    -1.505540  -1.670361  5.121893
C    -1.748416  -3.000644  5.182598
N    -0.710321  -3.836582  5.276083
N    -3.039749  -3.407294  5.109973
H    -1.396058  -2.477693  2.352941
H    -1.949934  -1.413386  1.083151
H    -3.500380  -1.423199  2.866682
H    -2.895811  0.201086  2.612569
H    -3.267086  -0.492049  5.042700
H    -1.757725  0.303425  4.683100
H    -0.526096  -1.421363  5.205769
H    -1.040279  -4.771519  5.531243
H    -3.788988  -2.768476  5.352154
H    -3.260223  -4.391790  5.197000
O    1.400407  -2.549335  2.337214
H    -0.318676  -0.708416  -0.085064
Ba    1.824137  -3.642574  4.742692
