27
Energy: -241645.660281 eV PBE+vdW (tier 2 basis)
N    0.870887  -0.044009  0.126845
C    0.378294  0.202632  1.490862
C    1.534790  0.649467  2.382431
O    2.679517  0.193281  2.276067
H    0.069644  -0.241648  -0.477254
H    1.282644  0.810580  -0.257036
H    -0.400787  0.985909  1.504454
C    -0.201408  -1.082014  2.173702
C    -0.911311  -2.119567  1.286283
C    -0.007289  -3.096771  0.495794
N    1.110042  -3.614502  1.291200
C    2.386672  -3.190895  1.271618
N    3.344905  -3.532814  2.102803
N    2.798769  -2.223799  0.301495
H    -0.908736  -0.745538  2.942725
H    0.606006  -1.593641  2.718497
H    -1.613860  -1.649749  0.581427
H    -1.545107  -2.714012  1.960308
H    0.405154  -2.642748  -0.409835
H    -0.609885  -3.952174  0.164342
H    0.867346  -4.269526  2.032116
H    3.097934  -4.273381  2.763715
H    3.123229  -2.683684  -0.552820
H    2.068406  -1.506690  0.076907
O    1.293759  1.498275  3.364437
H    0.378901  1.843065  3.347807
Ba    4.720817  -1.332678  2.074946
