27
Energy: -241644.888715 eV PBE+vdW (tier 2 basis)
N    0.283825  0.631629  0.049576
C    0.577223  0.477452  1.509851
C    2.111942  0.444132  1.733239
O    2.797119  1.149566  0.881322
H    0.367863  -0.283603  -0.405598
H    -0.705537  0.876317  -0.058828
H    0.279815  1.435883  1.971568
C    -0.232050  -0.597357  2.254584
C    -0.125365  -2.084389  1.861101
C    1.206622  -2.824160  2.008608
N    1.870596  -2.620083  3.357045
C    1.037879  -2.872789  4.610771
N    0.868281  -1.994352  5.499698
N    0.464106  -4.106942  4.603403
H    -1.295027  -0.328865  2.160155
H    -0.018509  -0.473398  3.324780
H    -0.436223  -2.236564  0.814914
H    -0.883551  -2.616247  2.452864
H    1.957895  -2.493234  1.279637
H    1.050359  -3.898179  1.856607
H    2.729816  -3.185787  3.402214
H    1.316389  -1.092455  5.334150
H    0.909043  -4.886471  4.131601
H    -0.027222  -4.351794  5.459640
O    2.607860  -0.154324  2.690544
H    2.176769  -1.602116  3.348361
Ba    2.254795  2.383981  -1.000553
