27
Energy: -241645.817364 eV PBE+vdW (tier 2 basis)
N    -1.196791  0.111623  2.916154
C    0.007430  -0.487502  2.277728
C    -0.012216  -0.205058  0.774928
O    -0.951563  0.360978  0.214209
H    -0.888817  0.679686  3.708629
H    -1.753206  -0.634297  3.337716
H    0.883330  0.062713  2.659460
C    0.257540  -1.988198  2.621696
C    -0.392760  -3.126529  1.809604
C    -1.928410  -3.280575  1.793563
N    -2.561712  -2.656386  0.626871
C    -3.427658  -1.626498  0.635652
N    -3.997299  -1.042208  1.665596
N    -3.657667  -0.967043  -0.588622
H    0.011668  -2.102256  3.688759
H    1.344194  -2.160147  2.582680
H    0.016704  -4.052099  2.237794
H    -0.031422  -3.116665  0.769568
H    -2.389161  -2.880659  2.705919
H    -2.184353  -4.347909  1.777650
H    -2.380759  -3.106694  -0.266613
H    -4.007133  -1.611420  2.513115
H    -4.646992  -0.934661  -0.836946
H    -3.086747  -1.262894  -1.379258
O    1.023950  -0.573803  0.039929
H    1.743687  -0.978357  0.561988
Ba    -3.129700  1.365349  1.130430
