27
Energy: -241646.073467 eV PBE+vdW (tier 2 basis)
N    -1.616448  1.058074  1.416714
C    -0.852839  0.353304  2.449135
C    0.617274  0.778156  2.568805
O    1.170081  1.457816  1.634199
H    -3.659954  0.475489  1.723237
H    -1.503085  2.069382  1.510529
H    -1.300014  0.594048  3.426458
C    -0.903303  -1.193406  2.234335
C    -1.225972  -2.059542  3.469228
C    -2.703954  -2.376539  3.755275
N    -3.513113  -1.268004  4.295237
C    -3.984366  -0.232253  3.592346
N    -4.115298  -0.282430  2.254038
N    -4.326183  0.910994  4.211126
H    0.062637  -1.526724  1.830570
H    -1.626909  -1.390480  1.430647
H    -0.754092  -1.633920  4.367518
H    -0.752056  -3.041507  3.325888
H    -2.758669  -3.170164  4.509682
H    -3.194460  -2.793095  2.863131
H    -3.681641  -1.271609  5.296668
H    -4.016375  -1.191993  1.817099
H    -4.989196  1.533555  3.761733
H    -4.164179  1.044198  5.202384
O    1.284787  0.424460  3.607649
H    -1.255478  0.829659  0.487415
Ba    3.360625  1.496905  2.786538
