27
Energy: -241644.908164 eV PBE+vdW (tier 2 basis)
N    -0.036117  1.385162  1.050639
C    0.201953  0.283694  1.991830
C    1.693879  -0.113777  1.837543
O    2.199239  -1.110030  2.370588
H    -0.552711  2.160719  1.459869
H    -0.522909  1.086818  0.205347
H    0.124120  0.702638  3.008464
C    -0.735704  -0.949175  1.860300
C    -1.376851  -1.492845  3.151397
C    -0.437013  -1.872792  4.310973
N    0.723811  -2.645915  3.866366
C    1.098034  -3.868384  4.159789
N    2.152815  -4.508166  3.656595
N    0.411556  -4.675358  5.153219
H    -0.204440  -1.757889  1.338045
H    -1.565643  -0.667610  1.198911
H    -1.978119  -2.371874  2.876658
H    -2.084689  -0.753741  3.555881
H    -1.007088  -2.416286  5.075823
H    -0.040449  -0.968702  4.797302
H    1.363087  -2.066472  3.213999
H    2.616959  -3.991327  2.904657
H    -0.380375  -5.165007  4.723823
H    0.015721  -4.102035  5.902720
O    2.389404  0.705028  1.097472
H    1.685108  1.381516  0.796152
Ba    2.708337  -6.364480  5.187147
