27
Energy: -241644.373172 eV PBE+vdW (tier 2 basis)
N    0.275037  -0.564105  -0.013212
C    -0.029840  0.061507  1.342485
C    1.302648  0.178286  2.089434
O    1.348437  0.878650  3.146339
H    -0.488125  -1.196137  -0.312433
H    0.414475  0.138828  -0.750158
H    -0.437254  1.066056  1.166408
C    -1.031888  -0.792620  2.140258
C    -2.471637  -0.830888  1.605721
C    -2.679412  -1.542687  0.240791
N    -3.964125  -2.153326  0.058689
C    -4.292225  -3.333435  0.750751
N    -3.503448  -4.055604  1.470622
N    -5.618950  -3.677711  0.609608
H    -1.042845  -0.371009  3.155013
H    -0.629205  -1.816398  2.235050
H    -2.888019  0.186576  1.564475
H    -3.063689  -1.374880  2.354826
H    -1.930825  -2.358242  0.126551
H    -2.536984  -0.835892  -0.596077
H    -4.737194  -1.530881  -0.156520
H    -2.583038  -3.636167  1.609503
H    -5.841729  -4.578459  1.021730
H    -6.052152  -3.525074  -0.295507
O    2.315054  -0.470460  1.649240
H    1.160666  -1.095980  0.087454
Ba    3.725198  0.327887  3.670492
