27
Energy: -241646.571523 eV PBE+vdW (tier 2 basis)
N    0.644066  -0.380603  0.191635
C    0.146188  -0.037440  1.536002
C    1.263710  0.266446  2.539203
O    0.955367  0.784281  3.671529
H    -0.527461  -1.410286  -0.799350
H    0.841242  0.474304  -0.332018
H    -0.432848  0.895238  1.460044
C    -0.828739  -1.094160  2.111413
C    -0.306850  -2.531521  2.257934
C    -0.245780  -3.395139  0.985822
N    -1.538126  -3.557893  0.314088
C    -1.902108  -2.993231  -0.849844
N    -1.211978  -1.973575  -1.361339
N    -2.983383  -3.472916  -1.491314
H    -1.733916  -1.083372  1.486936
H    -1.149547  -0.733113  3.097650
H    -0.949581  -3.048890  2.985602
H    0.701341  -2.543722  2.703413
H    0.108868  -4.399832  1.254200
H    0.462994  -3.004682  0.248379
H    -2.198531  -4.205287  0.732113
H    -1.390361  -1.687441  -2.316598
H    -3.401854  -2.967561  -2.262001
H    -3.365413  -4.385620  -1.276955
O    2.485847  0.012710  2.246000
H    1.550007  -0.850475  0.276583
Ba    3.291635  1.091616  4.355569
