27
Energy: -241644.649963 eV PBE+vdW (tier 2 basis)
N    0.452946  1.628403  0.767385
C    -0.085200  0.923417  1.916212
C    0.954863  0.494792  2.953676
O    0.890807  0.807629  4.148732
H    1.024668  2.432561  1.022678
H    1.011046  1.020317  0.167336
H    -0.722085  1.640620  2.459124
C    -0.966406  -0.240577  1.406930
C    -1.424309  -1.352974  2.368349
C    -1.944175  -0.975903  3.767965
N    -2.798292  0.224515  3.793364
C    -2.581627  1.347773  4.476815
N    -3.277896  2.468014  4.411812
N    -1.478393  1.432232  5.402657
H    -0.421041  -0.736942  0.591282
H    -1.832042  0.236834  0.926821
H    -0.604503  -2.065430  2.543427
H    -2.197850  -1.930317  1.843014
H    -1.107595  -0.797093  4.448715
H    -2.520993  -1.814797  4.181343
H    -3.611087  0.212174  3.178198
H    -4.043936  2.464272  3.734917
H    -1.511966  0.655311  6.071323
H    -0.553896  1.297074  4.889361
O    1.955945  -0.221765  2.454040
H    2.600738  -0.426636  3.162558
Ba    -2.215917  3.967550  6.134702
