27
Energy: -241644.862173 eV PBE+vdW (tier 2 basis)
N    -0.599769  0.662657  0.609803
C    -0.250354  -0.200417  1.786349
C    1.276027  -0.152967  1.928070
O    1.947903  0.642301  1.304691
H    0.056716  1.458695  0.585921
H    -0.468115  0.152564  -0.271678
H    -0.666285  0.321783  2.662992
C    -0.884013  -1.590852  1.665788
C    -2.346824  -1.602550  1.174365
C    -3.325324  -0.631165  1.849034
N    -3.175771  0.750964  1.357966
C    -4.131774  1.588084  1.625085
N    -5.272711  1.459667  2.334313
N    -4.070978  2.933138  1.036064
H    -0.813681  -2.060047  2.655848
H    -0.278655  -2.215917  0.992614
H    -2.724717  -2.622561  1.325324
H    -2.394710  -1.442551  0.085180
H    -3.193757  -0.663425  2.946377
H    -4.349110  -0.989402  1.643942
H    -1.662836  0.922577  0.744399
H    -5.332981  0.578971  2.847137
H    -3.587170  2.898999  0.135725
H    -3.508139  3.545322  1.635464
O    1.718229  -1.043295  2.817330
H    2.690840  -0.953127  2.898449
Ba    -6.773728  3.256595  1.627505
