27
Energy: -241645.096586 eV PBE+vdW (tier 2 basis)
N    1.192742  -1.715573  0.617859
C    0.742019  -0.717621  1.611816
C    1.751366  -0.610595  2.751943
O    2.525935  -1.493061  3.124209
H    0.511319  -1.725253  -0.145355
H    2.060057  -1.387333  0.184887
H    0.668460  0.293905  1.179241
C    -0.661759  -1.049494  2.186145
C    -0.781199  -2.301843  3.067980
C    -0.812124  -3.643168  2.296449
N    -0.100675  -4.733666  2.984706
C    1.225837  -4.871749  3.054718
N    1.892281  -5.752678  3.784847
N    2.071349  -4.050393  2.256426
H    -1.362489  -1.103763  1.338000
H    -0.983073  -0.177799  2.771387
H    -1.696740  -2.216608  3.667474
H    0.040482  -2.325033  3.798991
H    -0.384600  -3.532958  1.294145
H    -1.841182  -3.990935  2.153087
H    -0.662079  -5.376833  3.537895
H    1.322230  -6.301011  4.431122
H    2.305913  -3.141567  2.746864
H    1.608314  -3.648254  1.417983
O    1.680116  0.577882  3.344501
H    2.304985  0.605782  4.098320
Ba    4.169344  -5.725681  2.745687
