27
Energy: -241645.494681 eV PBE+vdW (tier 2 basis)
N    0.554214  0.245864  0.592545
C    0.023707  -0.088346  1.885341
C    0.936874  -0.892702  2.815308
O    0.842701  -0.870225  4.064349
H    0.695340  -0.555690  -0.020259
H    1.410105  0.795888  0.625454
H    -0.163550  0.851346  2.432861
C    -1.350439  -0.796744  1.709069
C    -2.215894  -0.942136  2.973700
C    -2.097486  -2.298731  3.673625
N    -2.600131  -2.210292  5.084808
C    -2.328185  -3.337727  5.916305
N    -1.112068  -3.369924  6.400912
N    -3.329572  -4.194433  6.162362
H    -1.202840  -1.773935  1.222923
H    -1.871121  -0.170351  0.974159
H    -3.268352  -0.773391  2.705747
H    -1.972578  -0.127969  3.680552
H    -1.058157  -2.648610  3.725855
H    -2.653215  -3.065784  3.112093
H    -3.593289  -1.967354  5.089975
H    -0.880599  -4.228719  6.904003
H    -4.192616  -4.178176  5.629552
H    -3.222972  -4.954040  6.828335
O    1.848304  -1.618552  2.204609
H    2.411707  -2.093352  2.850737
Ba    -0.282347  -0.907602  6.301958
