27
Energy: -241645.096764 eV PBE+vdW (tier 2 basis)
N    1.316939  0.306978  1.007762
C    0.379300  0.330480  2.154258
C    1.147544  0.242653  3.474117
O    0.493770  0.082745  4.561224
H    1.419458  -1.118015  0.400628
H    0.987317  0.923650  0.261908
H    -0.113654  1.318404  2.219829
C    -0.754694  -0.706792  2.036439
C    -0.362658  -2.193076  1.911263
C    -0.016213  -2.689501  0.505567
N    1.337410  -2.198226  0.054385
C    1.708664  -2.292700  -1.404676
N    2.764082  -2.845549  -1.824052
N    0.859353  -1.568355  -2.195740
H    -1.386871  -0.419964  1.182028
H    -1.388029  -0.583443  2.924011
H    -1.225687  -2.791509  2.235311
H    0.444577  -2.456335  2.615724
H    -0.766191  -2.331837  -0.210492
H    -0.009596  -3.784833  0.455789
H    2.055568  -2.727737  0.559260
H    3.376115  -3.263602  -1.122301
H    1.073407  -1.637574  -3.188077
H    -0.133673  -1.552005  -1.993593
O    2.417886  0.410243  3.485096
H    2.231374  0.658571  1.308470
Ba    2.429156  0.619533  6.001861
