27
Energy: -241644.808611 eV PBE+vdW (tier 2 basis)
N    0.394097  0.014153  0.257605
C    0.136385  -0.060255  1.701728
C    1.449831  0.130740  2.496099
O    2.358284  0.834319  2.023132
H    0.825930  -0.884525  -0.007296
H    -1.128825  -0.601973  -0.464716
H    -0.432416  0.848424  1.986727
C    -0.742930  -1.243985  2.153297
C    -0.284191  -2.652088  1.710303
C    -1.286740  -3.403063  0.816591
N    -1.151006  -3.245966  -0.649775
C    -1.798112  -2.336703  -1.412643
N    -1.929794  -1.076121  -0.988787
N    -2.283311  -2.725700  -2.603811
H    -1.751947  -1.045098  1.766878
H    -0.887568  -1.215237  3.247326
H    -0.137720  -3.277178  2.600886
H    0.697134  -2.631463  1.211658
H    -2.315197  -3.137101  1.098909
H    -1.181267  -4.480243  0.989476
H    -0.871539  -4.089258  -1.141530
H    -2.583263  -0.475441  -1.481203
H    -2.556209  -2.050169  -3.308211
H    -2.491140  -3.699399  -2.795952
O    1.628452  -0.383742  3.695470
H    0.853882  -0.909760  3.975911
Ba    2.084369  1.803324  -0.274840
