27
Energy: -241645.235991 eV PBE+vdW (tier 2 basis)
N    0.995385  1.125523  1.647051
C    -0.014937  0.150531  2.177267
C    0.644650  -1.253911  2.226628
O    1.900210  -1.250579  2.561202
H    0.977899  1.072435  0.621552
H    0.664412  2.073958  1.849807
H    -0.179506  0.428687  3.232447
C    -1.362117  0.195999  1.438232
C    -2.573763  -0.372191  2.228262
C    -3.352149  -1.484492  1.532825
N    -2.613068  -2.799359  1.603307
C    -2.939257  -3.652392  2.822338
N    -4.019683  -3.373212  3.407834
N    -2.000242  -4.624155  2.966084
H    -1.250637  -0.316750  0.469683
H    -1.573358  1.246372  1.194211
H    -3.290558  0.437275  2.414884
H    -2.271765  -0.719537  3.228286
H    -3.516512  -1.266826  0.470396
H    -4.318874  -1.658189  2.018246
H    -2.822611  -3.372209  0.775931
H    -4.234929  -3.953998  4.221055
H    -2.106036  -5.287589  3.725539
H    -1.056399  -4.497354  2.613727
O    0.003689  -2.280769  1.982996
H    -1.571358  -2.594956  1.614334
Ba    3.554240  0.374197  2.554232
