27
Energy: -241645.393327 eV PBE+vdW (tier 2 basis)
N    -1.166726  -0.080623  -0.183337
C    -0.556586  -0.241222  1.127687
C    0.325486  0.971747  1.412914
O    1.376181  1.215485  0.792957
H    -1.827351  0.691756  -0.252213
H    -0.496551  -0.036074  -0.949523
H    -1.376133  -0.259726  1.864979
C    0.192258  -1.585002  1.214678
C    0.471179  -2.136622  2.630972
C    1.908165  -2.060739  3.158171
N    2.376801  -0.690864  3.418413
C    3.334170  0.014820  2.798045
N    3.770307  1.213191  3.127084
N    3.890654  -0.459983  1.584580
H    1.112747  -1.528373  0.610967
H    -0.463144  -2.287049  0.682475
H    0.206075  -3.202742  2.646071
H    -0.205395  -1.671519  3.365956
H    2.608141  -2.553167  2.470120
H    1.979879  -2.616467  4.103575
H    1.963449  -0.235556  4.229200
H    3.495895  1.519923  4.062782
H    4.890431  -0.644818  1.687386
H    3.431174  -1.276989  1.185563
O    -0.066769  1.882125  2.305884
H    -0.915918  1.635350  2.721863
Ba    3.646823  2.322548  0.802696
