27
Energy: -241646.628304 eV PBE+vdW (tier 2 basis)
N    0.500454  0.390184  1.869034
C    0.304117  -1.063718  1.843206
C    1.119781  -1.848252  2.875369
O    1.202724  -3.123515  2.753717
H    -0.365668  1.414271  0.423205
H    0.211334  0.767079  2.775890
H    0.648793  -1.432318  0.863919
C    -1.190923  -1.442886  2.017059
C    -2.159974  -0.564764  1.215996
C    -1.893452  -0.546843  -0.298925
N    -2.450946  0.628868  -0.967930
C    -1.846513  1.826197  -1.011019
N    -0.721950  2.046770  -0.323355
N    -2.377411  2.801860  -1.768699
H    -1.463510  -1.358956  3.080586
H    -1.304783  -2.502368  1.750750
H    -2.121821  0.464031  1.599695
H    -3.184715  -0.913959  1.404286
H    -2.321954  -1.430533  -0.786833
H    -0.817618  -0.565244  -0.520740
H    -3.390128  0.565115  -1.345050
H    -0.196366  2.894611  -0.498331
H    -3.092467  2.606774  -2.458171
H    -2.053604  3.758002  -1.698540
O    1.695507  -1.241745  3.846057
H    1.496642  0.607342  1.793970
Ba    2.598598  -3.373425  4.760922
