27
Energy: -241644.192308 eV PBE+vdW (tier 2 basis)
N    0.007178  -0.411356  -0.301285
C    0.200476  -0.250790  1.166497
C    1.712237  -0.119268  1.390781
O    2.430006  0.399397  0.512323
H    0.233617  -1.389954  -0.522294
H    -1.014475  -0.371866  -0.559255
H    -0.175066  0.755896  1.431628
C    -0.561664  -1.237999  2.074879
C    -0.453076  -2.754678  1.770399
C    -1.792213  -3.416366  1.369678
N    -2.298891  -3.026179  0.052411
C    -2.820181  -1.785118  -0.261137
N    -2.608229  -1.130076  -1.372853
N    -3.551311  -1.167974  0.734410
H    -1.615775  -0.931031  2.027099
H    -0.285930  -1.028428  3.123308
H    -0.078926  -3.281602  2.659296
H    0.293772  -2.963138  0.983793
H    -2.549765  -3.214735  2.139107
H    -1.665182  -4.505962  1.356760
H    -1.860996  -3.498654  -0.731728
H    -2.078030  -1.708845  -2.032896
H    -4.088563  -0.379082  0.384540
H    -4.098714  -1.776492  1.336642
O    2.271312  -0.485897  2.512398
H    1.624135  -0.890914  3.126936
Ba    1.695893  1.196533  -1.708162
