27
Energy: -241646.358384 eV PBE+vdW (tier 2 basis)
N    0.948594  1.077112  1.706416
C    0.233549  0.024470  2.503326
C    1.248808  -0.983573  3.085702
O    2.418800  -1.010997  2.509181
H    0.283054  1.493852  1.048452
H    1.178687  1.847116  2.343797
H    -0.275345  0.497929  3.355905
C    -0.835939  -0.700356  1.636191
C    -2.209595  -0.950477  2.303369
C    -2.462335  -2.298163  2.991083
N    -1.687670  -2.482233  4.214088
C    -2.036633  -3.244732  5.250390
N    -1.231617  -3.283345  6.328084
N    -3.178157  -3.950345  5.263790
H    -0.430777  -1.640569  1.231044
H    -1.027076  -0.061187  0.760909
H    -2.969983  -0.887395  1.512624
H    -2.439644  -0.133718  3.003966
H    -2.262466  -3.122942  2.285399
H    -3.532987  -2.331316  3.239390
H    -0.704692  -2.139811  4.202609
H    -1.342416  -3.995245  7.038763
H    -3.504647  -4.404421  6.107471
H    -3.752809  -4.043708  4.437873
O    0.915365  -1.719945  4.013592
H    -0.366550  -2.756473  6.333228
Ba    3.454478  0.151466  0.817356
