27
Energy: -241646.42181 eV PBE+vdW (tier 2 basis)
N    1.091298  0.001740  -0.113732
C    -0.054239  0.101240  0.853440
C    0.497817  0.598976  2.221528
O    1.484106  1.455488  2.117828
H    1.546295  -0.906637  0.035623
H    0.709007  -0.067729  -1.061717
H    -0.688315  0.924292  0.480802
C    -0.893429  -1.191161  0.947080
C    -2.417020  -1.022275  1.102617
C    -2.926863  -0.311030  2.364795
N    -2.472164  -0.915725  3.615097
C    -3.173133  -1.691870  4.439154
N    -2.689943  -1.956651  5.665288
N    -4.354158  -2.220839  4.080010
H    -0.493922  -1.816949  1.758600
H    -0.742689  -1.762857  0.019416
H    -2.862696  -2.026961  1.048063
H    -2.816722  -0.470527  0.237129
H    -4.024089  -0.268138  2.354847
H    -2.589933  0.734661  2.389285
H    -1.500210  -0.672559  3.844898
H    -3.072744  -2.700080  6.235455
H    -4.980441  -2.617627  4.769312
H    -4.679735  -2.187811  3.123847
O    0.018531  0.223159  3.284046
H    -1.916002  -1.426199  6.044830
Ba    2.968661  2.021904  0.468191
