27
Energy: -241645.959313 eV PBE+vdW (tier 2 basis)
N    -0.065834  0.578627  0.454501
C    -0.213671  0.476424  1.930970
C    1.185597  0.463466  2.548311
O    2.162826  0.053419  1.917310
H    -0.966514  0.353422  0.023126
H    0.086117  1.564305  0.215973
H    -0.770017  1.342682  2.327771
C    -0.981395  -0.798438  2.378499
C    -0.307056  -2.157912  2.125227
C    -0.465520  -2.721915  0.700577
N    0.804347  -3.353023  0.225061
C    0.849053  -3.681376  -1.159929
N    1.005287  -2.656301  -1.957105
N    0.798266  -4.981437  -1.494454
H    -1.980558  -0.764648  1.916380
H    -1.166830  -0.697285  3.457065
H    -0.726539  -2.876056  2.841260
H    0.763648  -2.101020  2.377004
H    -0.715676  -1.942706  -0.028542
H    -1.292049  -3.447714  0.664331
H    1.053966  -4.149400  0.814504
H    0.917220  -2.884316  -2.949343
H    0.938642  -5.282024  -2.454053
H    0.506420  -5.695083  -0.835749
O    1.349403  0.835070  3.803000
H    0.534751  1.188975  4.210571
Ba    2.294144  -0.861091  -0.499297
