27
Energy: -241644.107933 eV PBE+vdW (tier 2 basis)
N    0.472593  0.794218  -0.021158
C    0.157274  0.716435  1.393539
C    1.257720  0.054215  2.237029
O    1.898404  -0.913096  1.904579
H    0.817840  -0.105346  -0.362756
H    1.205258  1.480643  -0.199677
H    0.020728  1.743750  1.762158
C    -1.160761  -0.079137  1.548893
C    -1.649042  -0.329094  2.982282
C    -1.937876  0.964055  3.752632
N    -2.418794  0.714932  5.128972
C    -3.670778  0.551340  5.533891
N    -4.110820  0.375426  6.768708
N    -4.741566  0.522710  4.562862
H    -1.020567  -1.056618  1.064667
H    -1.922580  0.452685  0.960271
H    -0.912041  -0.921759  3.545476
H    -2.561575  -0.949662  2.936008
H    -2.669504  1.596560  3.230215
H    -1.024307  1.560316  3.863402
H    -1.693187  0.629417  5.839735
H    -3.396952  0.477355  7.493857
H    -4.445492  0.085835  3.684446
H    -5.023774  1.479420  4.321027
O    1.423240  0.682099  3.447463
H    2.172668  0.232857  3.889906
Ba    -6.458283  -0.499935  6.608040
