27
Energy: -241644.607742 eV PBE+vdW (tier 2 basis)
N    0.383896  0.506076  0.562373
C    0.363923  -0.122969  1.866601
C    1.348778  -1.284477  1.938804
O    1.595201  -1.922798  2.966267
H    -0.198336  1.342021  0.547870
H    1.319752  0.766346  0.256799
H    0.675484  0.531460  2.711717
C    -1.097408  -0.567777  2.154629
C    -1.411001  -1.026839  3.589742
C    -1.416059  -2.554561  3.745982
N    -1.423889  -2.982605  5.157042
C    -0.328320  -3.055238  5.909748
N    0.907364  -2.783819  5.564639
N    -0.451143  -3.542243  7.272915
H    -1.390835  -1.322646  1.410480
H    -1.712798  0.313460  1.930423
H    -2.395118  -0.643410  3.892005
H    -0.682923  -0.584562  4.286789
H    -0.538780  -3.010146  3.270752
H    -2.304760  -2.994069  3.276971
H    -2.326189  -3.123403  5.604214
H    1.045426  -2.368814  4.618981
H    -1.174556  -4.261056  7.365850
H    -0.720065  -2.778444  7.902118
O    1.959803  -1.545466  0.785403
H    2.587865  -2.282713  0.925248
Ba    2.389894  -3.865791  7.229843
