27
Energy: -241646.350271 eV PBE+vdW (tier 2 basis)
N    0.323135  -0.705590  -0.096542
C    -0.233883  -0.055261  1.160024
C    0.834258  0.976979  1.576830
O    0.510403  1.921469  2.336385
H    1.358806  -0.552668  -0.019460
H    0.104907  -1.707956  -0.161758
H    -1.180651  0.435101  0.906186
C    -0.429125  -1.129020  2.248924
C    -1.225758  -0.662118  3.494995
C    -0.503670  -0.788398  4.858061
N    0.022962  0.472256  5.387436
C    1.245965  0.986586  5.170956
N    2.284889  0.427798  4.602068
N    1.441062  2.351738  5.506722
H    0.559536  -1.518809  2.537396
H    -0.966705  -1.971446  1.787824
H    -2.141001  -1.263295  3.551010
H    -1.558468  0.377172  3.374253
H    0.302298  -1.534487  4.821309
H    -1.209069  -1.158829  5.610656
H    -0.609535  1.006170  5.974993
H    2.196581  -0.580844  4.474243
H    2.127830  2.463325  6.254646
H    0.592180  2.868477  5.734774
O    2.023121  0.740714  1.166852
H    -0.007785  -0.248205  -0.955433
Ba    3.019012  2.382353  3.013556
