27
Energy: -241644.849931 eV PBE+vdW (tier 2 basis)
N    -0.844522  -0.996472  -0.513023
C    -0.325548  -0.800928  0.820052
C    1.094683  -1.307602  1.101623
O    1.842344  -0.797183  1.948411
H    -0.985994  -1.980382  -0.740387
H    -0.255273  -0.584908  -1.234559
H    -0.267746  0.287512  0.992477
C    -1.331297  -1.409270  1.833768
C    -1.051886  -1.294775  3.339981
C    -0.918454  0.120785  3.916792
N    0.428630  0.668710  3.682425
C    0.929002  1.726406  4.278277
N    0.366396  2.559036  5.145063
N    2.322924  2.056893  4.026746
H    -1.446599  -2.477276  1.594544
H    -2.295790  -0.938973  1.594557
H    -0.170882  -1.884915  3.636579
H    -1.899565  -1.765332  3.856684
H    -1.093552  0.093448  5.003614
H    -1.669620  0.795548  3.473995
H    1.032742  0.146109  2.980782
H    -0.634578  2.404684  5.279813
H    2.393280  2.621228  3.172630
H    2.875480  1.213160  3.842926
O    1.464789  -2.346125  0.365103
H    2.371970  -2.616175  0.617261
Ba    2.242328  3.748360  6.278501
