27
Energy: -241646.435912 eV PBE+vdW (tier 2 basis)
N    0.265611  0.936530  0.562209
C    0.495189  0.163317  1.826296
C    1.958973  -0.346555  1.881733
O    2.810510  0.356625  1.180948
H    -0.587536  1.492578  0.676068
H    0.030132  0.270459  -0.182633
H    0.444427  0.905785  2.641408
C    -0.577609  -0.898967  2.126862
C    -0.674332  -2.102796  1.166943
C    0.080691  -3.380172  1.570585
N    -0.404083  -3.969897  2.823097
C    0.294542  -4.124088  3.962289
N    1.401632  -3.420527  4.193608
N    -0.156987  -4.992975  4.884421
H    -1.546535  -0.379104  2.144966
H    -0.428464  -1.246121  3.158869
H    -0.326824  -1.842282  0.152700
H    -1.734942  -2.360697  1.034614
H    1.155972  -3.203533  1.668296
H    -0.047684  -4.133571  0.780368
H    -1.318391  -4.410536  2.796133
H    2.022463  -3.690306  4.946866
H    0.216150  -4.997748  5.825514
H    -0.823597  -5.717397  4.648747
O    2.268809  -1.298908  2.589280
H    1.678673  -2.617632  3.607229
Ba    2.669830  2.208542  -0.169345
