27
Energy: -241645.158939 eV PBE+vdW (tier 2 basis)
N    -0.832437  0.303586  -0.126350
C    -0.550434  0.291037  1.316367
C    0.963837  0.505218  1.459049
O    1.509868  0.807450  2.526883
H    -1.162070  1.212019  -0.453556
H    -1.522919  -0.394252  -0.401409
H    -1.052393  1.101196  1.866241
C    -0.979498  -1.070218  1.928598
C    -0.434153  -1.386981  3.333804
C    0.886329  -2.186024  3.299766
N    1.674105  -2.016551  4.531605
C    2.761447  -1.261077  4.703525
N    3.326267  -0.939132  5.852409
N    3.445274  -0.696723  3.569263
H    -0.696837  -1.871530  1.226042
H    -2.076894  -1.064358  1.960584
H    -1.184188  -1.967435  3.886744
H    -0.279174  -0.454985  3.893436
H    1.513921  -1.886737  2.453772
H    0.688931  -3.259080  3.175884
H    1.253145  -2.396996  5.378274
H    2.843182  -1.281481  6.685485
H    2.784846  -0.034140  3.049688
H    3.696948  -1.424693  2.893517
O    1.635323  0.274011  0.352962
H    0.869734  0.139177  -0.324406
Ba    5.239980  0.555274  5.182807
