27
Energy: -241644.81519 eV PBE+vdW (tier 2 basis)
N    -0.356221  -1.217256  -0.428989
C    -0.607420  -0.850956  1.019220
C    0.640153  -1.123956  1.878052
O    0.595490  -1.245890  3.070745
H    -0.339222  -2.238773  -0.542287
H    0.568779  -0.871661  -0.717868
H    -0.724360  0.242856  1.020238
C    -1.873708  -1.535901  1.572688
C    -3.007035  -0.600400  2.016962
C    -3.856547  0.052121  0.918951
N    -3.208991  1.138488  0.171318
C    -2.648696  1.085045  -1.062021
N    -2.137613  2.161158  -1.678397
N    -2.546069  -0.078890  -1.789857
H    -1.564694  -2.126194  2.444458
H    -2.254569  -2.261031  0.834554
H    -2.609418  0.172708  2.692268
H    -3.698075  -1.194828  2.631786
H    -4.756887  0.481325  1.377906
H    -4.222611  -0.707161  0.212144
H    -3.282888  2.062534  0.587131
H    -2.130663  3.017290  -1.124209
H    -1.138804  -0.802925  -1.060102
H    -3.209573  -0.788420  -1.470052
O    1.761127  -1.144602  1.111592
H    2.537226  -1.269509  1.696695
Ba    -2.448092  1.331520  -3.996581
