27
Energy: -241645.058492 eV PBE+vdW (tier 2 basis)
N    -0.630700  0.165654  0.412089
C    -0.176570  -0.149239  1.769234
C    1.305466  0.232371  1.974054
O    1.890459  0.966513  1.163058
H    -0.582222  -0.713576  -0.120741
H    -2.474768  -0.051753  0.541212
H    -0.669352  0.564553  2.464114
C    -0.520725  -1.584789  2.267034
C    -1.467890  -1.636368  3.472932
C    -2.853554  -1.026445  3.238218
N    -3.660732  -1.756188  2.252932
C    -4.121490  -1.272669  1.086999
N    -3.512625  -0.252726  0.470569
N    -5.218915  -1.832756  0.547732
H    0.390224  -2.157434  2.500528
H    -0.971732  -2.127670  1.423454
H    -1.029853  -1.110653  4.336948
H    -1.582431  -2.681690  3.796022
H    -2.793255  0.017838  2.905949
H    -3.412286  -1.018987  4.184400
H    -4.059457  -2.638893  2.559725
H    -4.013647  0.201695  -0.284188
H    -5.460624  -1.687631  -0.424700
H    -5.861052  -2.384342  1.104731
O    1.967278  -0.129268  3.058131
H    1.448233  -0.731072  3.624982
Ba    0.718575  1.875623  -0.844291
