27
Energy: -241646.281873 eV PBE+vdW (tier 2 basis)
N    -0.121829  -0.290771  -0.082186
C    -0.099425  -0.226716  1.436593
C    0.763912  -1.431070  1.874075
O    0.805792  -2.422748  1.075513
H    -1.012061  0.025615  -0.487770
H    0.636013  0.257614  -0.508904
H    0.372822  0.715164  1.739011
C    -1.541996  -0.337179  1.971128
C    -1.643848  -0.340511  3.515823
C    -2.509855  -1.481703  4.085516
N    -2.101394  -2.819442  3.641191
C    -1.051977  -3.557894  4.062863
N    -0.630210  -4.686562  3.535974
N    -0.227571  -3.072866  5.090207
H    -1.976454  -1.260312  1.555490
H    -2.126602  0.500151  1.562719
H    -2.074256  0.607629  3.862854
H    -0.636535  -0.389237  3.950864
H    -3.556954  -1.363367  3.779862
H    -2.515191  -1.439194  5.184242
H    -2.613161  -3.214212  2.859075
H    -1.289409  -5.112477  2.880880
H    -0.138304  -3.748070  5.849046
H    -0.433250  -2.144769  5.451320
O    1.316255  -1.390421  3.004233
H    0.045840  -1.302527  -0.297942
Ba    1.853750  -3.939723  3.121395
