27
Energy: -241645.838535 eV PBE+vdW (tier 2 basis)
N    -0.276090  0.270260  0.385330
C    0.107235  -0.301080  1.701276
C    0.924506  -1.568847  1.431972
O    0.668888  -2.289556  0.462036
H    -1.007522  0.968533  0.533022
H    0.518484  0.804991  0.019577
H    0.708487  0.416820  2.285543
C    -1.104400  -0.745790  2.559238
C    -2.128153  0.332447  2.969716
C    -3.342510  0.530585  2.037060
N    -4.037387  -0.716577  1.719620
C    -3.818974  -1.467203  0.613749
N    -3.250631  -1.022493  -0.501963
N    -4.130856  -2.797555  0.675456
H    -0.687084  -1.184434  3.476470
H    -1.618080  -1.577712  2.052887
H    -1.642225  1.308916  3.120565
H    -2.514892  0.050436  3.959009
H    -3.070370  1.027466  1.097138
H    -4.058874  1.206072  2.521271
H    -4.657315  -1.089151  2.433252
H    -3.350402  -0.005984  -0.566955
H    -4.509883  -3.212780  -0.169823
H    -4.495562  -3.190052  1.537911
O    1.865385  -1.944905  2.272768
H    2.026962  -1.296243  2.985679
Ba    -1.012281  -1.891967  -1.430818
