27
Energy: -241645.676729 eV PBE+vdW (tier 2 basis)
N    -0.374880  -0.182413  -0.057109
C    -0.568046  0.226363  1.338372
C    0.556950  1.141956  1.802606
O    1.622383  1.299493  1.196025
H    -1.193385  -0.717931  -0.356651
H    -0.337563  0.631394  -0.674455
H    -1.504337  0.802925  1.472852
C    -0.673285  -1.007204  2.290728
C    0.607995  -1.769996  2.674909
C    1.273728  -2.638594  1.594663
N    1.837594  -1.888772  0.471615
C    3.058996  -1.360678  0.377032
N    3.518466  -0.651159  -0.643259
N    3.942582  -1.379287  1.476919
H    -1.399823  -1.694376  1.829860
H    -1.155342  -0.672599  3.220786
H    0.334735  -2.448833  3.496131
H    1.346783  -1.075673  3.111296
H    0.541923  -3.341121  1.172032
H    2.055906  -3.266546  2.043110
H    1.117931  -1.414712  -0.107331
H    2.958624  -0.765507  -1.490957
H    4.859025  -1.753471  1.226547
H    3.597120  -1.833313  2.320569
O    0.403572  1.787792  2.949615
H    -0.480298  1.652696  3.345549
Ba    4.114075  1.461022  0.626621
