27
Energy: -241644.672647 eV PBE+vdW (tier 2 basis)
N    -0.668444  0.633040  0.741339
C    0.103116  0.101169  1.885543
C    1.551201  -0.196960  1.461171
O    1.996281  0.120049  0.379557
H    -0.881511  -0.151391  0.115085
H    -0.007504  1.193817  0.189369
H    0.193045  0.912233  2.629279
C    -0.591016  -1.108252  2.537931
C    -2.104307  -0.927721  2.728872
C    -2.473432  0.334544  3.526883
N    -3.801517  0.868221  3.188917
C    -4.045883  1.612135  2.108652
N    -3.218146  1.967941  1.156509
N    -5.380547  2.172943  1.963604
H    -0.097641  -1.316254  3.496195
H    -0.430588  -2.003115  1.918050
H    -2.514434  -1.815541  3.228321
H    -2.594847  -0.882341  1.745787
H    -1.755428  1.145191  3.343017
H    -2.468888  0.146280  4.606630
H    -4.588506  0.583058  3.765663
H    -2.266842  1.483637  1.111449
H    -5.998286  1.504460  1.491219
H    -5.818243  2.387090  2.864323
O    2.245747  -0.800351  2.441052
H    3.163917  -0.932075  2.127405
Ba    -4.254631  3.944105  0.059018
