27
Energy: -241646.628651 eV PBE+vdW (tier 2 basis)
N    0.000676  1.039593  1.598629
C    0.613961  0.046079  2.487387
C    1.996707  -0.449082  2.052747
O    2.703601  -1.115417  2.891961
H    -2.619759  3.329571  2.098646
H    0.644496  1.820459  1.454049
H    0.774793  0.524697  3.466550
C    -0.304258  -1.189651  2.684752
C    -1.784789  -0.846707  2.890977
C    -2.058061  0.087049  4.082530
N    -3.331802  0.799055  3.976618
C    -3.507824  1.922900  3.264716
N    -2.526640  2.401803  2.493944
N    -4.681308  2.574144  3.346822
H    0.088278  -1.771824  3.529367
H    -0.230781  -1.839411  1.798854
H    -2.345132  -1.782803  3.022133
H    -2.183684  -0.387755  1.975925
H    -1.271334  0.846306  4.190164
H    -2.076529  -0.470725  5.026520
H    -4.154028  0.374249  4.391127
H    -1.676899  1.859202  2.233394
H    -4.914376  3.321810  2.705994
H    -5.354599  2.362385  4.072465
O    2.430275  -0.211490  0.870739
H    -0.144978  0.636273  0.669053
Ba    4.563315  -1.415856  1.313633
