27
Energy: -241644.21699 eV PBE+vdW (tier 2 basis)
N    0.243682  0.883987  0.653679
C    0.317980  -0.074144  1.762100
C    1.817371  -0.280189  1.986931
O    2.480131  0.309523  2.797475
H    -0.729549  1.063509  0.403541
H    0.651920  1.781047  0.920219
H    -0.055698  0.317830  2.727414
C    -0.494566  -1.321257  1.381726
C    -0.692282  -2.390820  2.465941
C    0.569142  -3.143175  2.917223
N    1.340042  -3.681380  1.783799
C    1.223035  -4.886265  1.261042
N    0.444796  -5.890560  1.629627
N    2.084952  -5.244400  0.146199
H    -0.080724  -1.751280  0.456832
H    -1.497227  -0.961563  1.106432
H    -1.430770  -3.119512  2.097828
H    -1.134670  -1.942638  3.368054
H    0.318181  -3.962695  3.604467
H    1.256153  -2.484158  3.464256
H    1.903565  -2.958787  1.302001
H    -0.231859  -5.648673  2.356172
H    1.691698  -4.881362  -0.729508
H    3.012341  -4.818568  0.234703
O    2.417426  -1.185501  1.100411
H    3.377383  -1.035117  1.223464
Ba    1.361363  -7.958384  0.550663
