27
Energy: -241645.818597 eV PBE+vdW (tier 2 basis)
N    1.058470  -1.561418  0.230257
C    0.487629  -0.695609  1.294513
C    1.653496  -0.052603  2.037998
O    2.738160  -0.626995  2.171483
H    0.296938  -2.114740  -0.174617
H    1.396579  -0.979186  -0.543160
H    -0.143918  0.106455  0.874882
C    -0.397048  -1.596024  2.206301
C    -0.794220  -1.155230  3.621869
C    0.298513  -1.211275  4.725331
N    1.380573  -2.164792  4.478073
C    1.295903  -3.513922  4.315054
N    2.236630  -4.107178  3.580501
N    0.223831  -4.141745  4.845544
H    0.095446  -2.578718  2.265462
H    -1.324001  -1.764234  1.639265
H    -1.623081  -1.814748  3.910270
H    -1.227879  -0.144191  3.620020
H    -0.185565  -1.397463  5.695847
H    0.793758  -0.241056  4.838755
H    2.317537  -1.786798  4.427159
H    2.263470  -5.114997  3.756917
H    0.092737  -5.135176  4.695312
H    -0.271074  -3.741516  5.635529
O    1.493251  1.134779  2.593545
H    0.630749  1.540182  2.376995
Ba    3.280759  -3.045553  1.461895
