27
Energy: -241644.86539 eV PBE+vdW (tier 2 basis)
N    1.221588  0.400032  2.841003
C    0.500439  -0.760087  3.394374
C    1.476729  -1.946418  3.554317
O    2.629159  -1.729145  3.967056
H    1.364381  0.192296  1.841136
H    -0.096628  1.725093  2.070139
H    0.243149  -0.526250  4.448071
C    -0.828320  -1.066949  2.680910
C    -1.886670  -0.004304  3.035519
C    -2.830932  0.389865  1.904086
N    -2.192387  0.879710  0.656057
C    -1.464372  2.004250  0.507864
N    -0.596275  2.399523  1.448372
N    -1.605389  2.721501  -0.619074
H    -1.233452  -2.054828  2.960575
H    -0.644307  -1.094372  1.594893
H    -1.393378  0.894004  3.429319
H    -2.520700  -0.367648  3.856612
H    -3.537201  1.151534  2.266186
H    -3.425127  -0.476698  1.588681
H    -2.642246  0.557807  -0.195667
H    -0.224754  3.340956  1.393419
H    -0.911374  3.402705  -0.903947
H    -2.436523  2.642936  -1.194143
O    1.143494  -3.191775  3.283266
H    0.219203  -3.253868  2.971591
Ba    3.445508  0.644654  3.982952
