27
Energy: -241646.61837 eV PBE+vdW (tier 2 basis)
N    0.356367  -0.289259  -0.073230
C    -0.077748  0.043780  1.291587
C    1.037806  0.575426  2.199129
O    0.715821  1.159384  3.295827
H    -1.396224  -0.922214  -3.046881
H    0.691132  0.556572  -0.540507
H    -0.818957  0.855461  1.220722
C    -0.771136  -1.147515  1.993162
C    -1.990950  -1.676409  1.219049
C    -1.652637  -2.838146  0.262829
N    -2.586806  -2.972100  -0.853996
C    -2.494962  -2.269080  -1.992816
N    -1.557427  -1.327278  -2.132940
N    -3.352766  -2.524844  -2.995997
H    -1.082484  -0.807001  2.988327
H    -0.040016  -1.956726  2.158090
H    -2.447044  -0.852859  0.649884
H    -2.759279  -2.011842  1.927824
H    -1.654335  -3.794484  0.799971
H    -0.646144  -2.726375  -0.159884
H    -3.407482  -3.553950  -0.726120
H    -0.942590  -1.009335  -1.355319
H    -3.394342  -1.934781  -3.816857
H    -3.947706  -3.343644  -2.988210
O    2.267829  0.426111  1.871409
H    1.172702  -0.906303  -0.030617
Ba    3.045707  1.606055  3.925382
