27
Energy: -241645.815102 eV PBE+vdW (tier 2 basis)
N    -0.251226  -1.083545  -0.027169
C    0.155337  -0.704390  1.382991
C    1.714423  -0.625032  1.288610
O    2.317543  -0.077110  2.279241
H    -0.895560  -1.881426  -0.068090
H    -0.658670  -0.308591  -0.561361
H    -0.240794  0.296371  1.593918
C    -0.401190  -1.751934  2.372166
C    0.218500  -1.767542  3.775165
C    -0.036634  -0.530328  4.666785
N    1.072332  -0.364546  5.622015
C    2.130081  0.461843  5.441938
N    3.382601  0.246794  5.767736
N    1.944301  1.703264  4.784526
H    -0.227738  -2.751018  1.940751
H    -1.492763  -1.621522  2.435148
H    1.302680  -1.909183  3.676984
H    -0.162991  -2.659341  4.291741
H    -0.976688  -0.626519  5.224288
H    -0.121635  0.381715  4.064718
H    1.302162  -1.218438  6.127960
H    3.533273  -0.610532  6.304618
H    0.995234  1.889947  4.468417
H    2.245395  2.460301  5.401331
O    2.227601  -1.082656  0.259092
H    0.710519  -1.336257  -0.438211
Ba    4.291000  0.883561  3.350115
