27
Energy: -241645.030213 eV PBE+vdW (tier 2 basis)
N    0.972228  0.534839  0.708025
C    0.117280  -0.028874  1.804379
C    0.841130  -1.252509  2.431504
O    2.136726  -1.146683  2.471751
H    0.838300  -0.034339  -0.135085
H    0.600970  1.454835  0.451267
H    0.125641  0.728538  2.607032
C    -1.350411  -0.287042  1.445675
C    -1.607668  -1.439821  0.465014
C    -3.043748  -2.005012  0.535647
N    -3.596259  -2.195173  1.886740
C    -3.284875  -3.127511  2.833894
N    -3.854345  -3.515338  3.895443
N    -1.949721  -3.785591  2.639302
H    -1.796764  0.645438  1.067922
H    -1.869152  -0.493802  2.392419
H    -0.879144  -2.246231  0.633151
H    -1.456781  -1.122760  -0.577726
H    -3.103043  -2.936725  -0.049578
H    -3.731924  -1.304057  0.048807
H    -4.497667  -1.757388  2.046038
H    -4.770748  -3.101013  4.082629
H    -1.886156  -4.454801  3.420628
H    -1.882282  -4.308317  1.757016
O    0.218025  -2.213426  2.888408
H    -1.133146  -3.096429  2.708847
Ba    3.662538  0.328131  1.548731
