27
Energy: -241645.299322 eV PBE+vdW (tier 2 basis)
N    -0.474220  0.292457  1.543078
C    0.169255  -0.603543  2.547196
C    1.597361  -0.059640  2.702774
O    1.704649  1.139962  2.976778
H    0.069707  0.300257  0.675214
H    -1.383406  -0.107279  1.297116
H    -0.251301  -0.306228  3.524502
C    -0.161655  -2.103736  2.450000
C    -1.197136  -2.503796  3.526152
C    -2.691337  -2.181667  3.318027
N    -3.110946  -0.832730  2.858593
C    -2.859487  0.378108  3.416382
N    -2.094238  0.682121  4.434830
N    -3.338462  1.507310  2.707424
H    0.731805  -2.721289  2.635644
H    -0.495961  -2.364187  1.435296
H    -0.849236  -2.114834  4.495915
H    -1.176945  -3.596474  3.644877
H    -3.221293  -2.425277  4.251515
H    -3.090538  -2.855350  2.550001
H    -3.924302  -0.865184  2.248569
H    -1.892761  -0.107626  5.050217
H    -3.915425  2.104140  3.302199
H    -3.826758  1.315346  1.833179
O    2.671595  -0.806667  2.589899
H    2.465913  -1.733455  2.356410
Ba    -0.534384  2.549780  3.242911
