27
Energy: -241645.628869 eV PBE+vdW (tier 2 basis)
N    0.856872  -1.497291  0.375079
C    0.279196  -0.472270  1.266444
C    1.309649  0.147468  2.212257
O    0.975300  1.177030  2.897853
H    -0.307649  -2.116632  -0.370063
H    1.449090  -1.059391  -0.334035
H    -0.090748  0.341190  0.623374
C    -0.917151  -1.025190  2.074988
C    -2.209234  -1.279655  1.276131
C    -2.260996  -2.525585  0.396625
N    -1.324221  -2.456512  -0.795312
C    -1.695714  -1.479958  -1.847060
N    -1.074658  -0.368438  -1.780397
N    -2.640216  -1.940954  -2.703419
H    -1.152295  -0.286854  2.852601
H    -0.605346  -1.943187  2.601368
H    -2.470168  -0.388744  0.687021
H    -3.026638  -1.404461  2.001270
H    -3.280319  -2.691179  0.026137
H    -1.958194  -3.419435  0.959300
H    -1.221566  -3.392797  -1.204016
H    -1.355160  0.293312  -2.509779
H    -2.960564  -1.357492  -3.467631
H    -3.063963  -2.857120  -2.625389
O    2.481352  -0.360761  2.313173
H    1.453777  -2.138475  0.905109
Ba    3.192605  1.396805  3.946394
