27
Energy: -241644.88407 eV PBE+vdW (tier 2 basis)
N    -1.681420  -0.160818  1.008996
C    -0.322152  -0.630883  1.368088
C    0.361392  -1.351188  0.211025
O    1.420767  -1.913448  0.287872
H    -1.638937  0.466003  0.202649
H    -2.056214  0.394996  1.781849
H    0.345808  0.225903  1.569784
C    -0.321414  -1.494412  2.651767
C    -0.859539  -2.933939  2.579755
C    -2.360700  -3.116654  2.311964
N    -2.719426  -2.643507  0.971420
C    -3.109332  -3.370397  -0.048111
N    -3.442864  -4.653030  -0.124233
N    -3.174245  -2.709761  -1.349993
H    -0.854445  -0.928384  3.432125
H    0.721328  -1.553724  2.988575
H    -0.654730  -3.405661  3.551579
H    -0.286304  -3.515052  1.841018
H    -2.962046  -2.549709  3.037900
H    -2.634720  -4.172940  2.428356
H    -2.472009  -1.595302  0.830146
H    -3.446321  -5.137433  0.775145
H    -2.332442  -2.125737  -1.466551
H    -3.965859  -2.057582  -1.369059
O    -0.335465  -1.263657  -0.989617
H    0.303691  -1.578781  -1.661219
Ba    -3.719022  -5.188034  -2.534494
