27
Energy: -241646.513195 eV PBE+vdW (tier 2 basis)
N    1.223502  -3.792107  0.462315
C    0.550027  -2.569475  -0.088646
C    1.650766  -1.527744  -0.441715
O    2.725168  -2.053504  -0.970638
H    1.441275  -3.616225  1.450200
H    0.538413  -4.553515  0.491356
H    0.113950  -2.875403  -1.055068
C    -0.567546  -2.011298  0.805525
C    -1.584425  -1.114633  0.050723
C    -1.898785  0.217257  0.734744
N    -0.715510  1.078141  0.700142
C    -0.690038  2.378913  0.979573
N    0.431321  3.081103  0.739796
N    -1.764710  3.002813  1.486640
H    -0.105872  -1.463287  1.641333
H    -1.107163  -2.855795  1.256589
H    -2.530950  -1.655962  -0.070062
H    -1.230008  -0.897466  -0.967920
H    -2.219677  0.043642  1.776167
H    -2.728681  0.706618  0.201796
H    0.157948  0.625705  0.377815
H    1.218139  2.648232  0.272326
H    -1.789453  4.008798  1.594082
H    -2.588290  2.488367  1.767918
O    1.496031  -0.326079  -0.242737
H    0.546142  4.029704  1.071658
Ba    3.621795  -4.171045  -0.968036
