27
Energy: -241645.240783 eV PBE+vdW (tier 2 basis)
N    1.128198  -0.211798  0.120883
C    0.456217  0.182872  1.338799
C    1.521951  0.722828  2.295169
O    2.675837  0.953806  1.920599
H    0.460718  -0.671165  -0.503580
H    -3.066310  -2.133878  -0.272656
H    -0.004015  -0.678736  1.876276
C    -0.641394  1.282113  1.154041
C    -1.921634  0.831826  0.433260
C    -2.889940  0.038667  1.326076
N    -4.242234  -0.070179  0.762064
C    -4.807719  -1.145468  0.199251
N    -4.069561  -2.201368  -0.172164
N    -6.134364  -1.173347  0.007792
H    -0.179911  2.092648  0.573166
H    -0.925571  1.721395  2.126336
H    -1.678564  0.262300  -0.478184
H    -2.443947  1.735258  0.085377
H    -2.999810  0.544869  2.296293
H    -2.529438  -0.974322  1.551053
H    -4.823836  0.760368  0.823869
H    -4.503787  -3.088090  -0.398083
H    -6.752332  -0.526822  0.483834
H    -6.563031  -1.845235  -0.617895
O    1.226099  0.962946  3.566519
H    0.305352  0.720629  3.776735
Ba    3.453529  0.160096  -0.360274
