27
Energy: -241644.247 eV PBE+vdW (tier 2 basis)
N    0.101194  -0.037597  -0.228750
C    0.208096  -0.103822  1.216821
C    1.497081  -0.844288  1.541505
O    1.948898  -1.781197  0.946841
H    0.325915  -0.939090  -0.652896
H    -0.835147  0.231333  -0.528073
H    0.304300  0.927258  1.599253
C    -0.993884  -0.802132  1.929179
C    -0.991093  -0.933146  3.462153
C    -1.048506  0.366145  4.272737
N    0.245453  1.085299  4.232385
C    0.478630  2.346520  4.543979
N    1.605719  3.022720  4.366661
N    -0.539858  3.141719  5.194317
H    -1.083520  -1.811691  1.502983
H    -1.898590  -0.257181  1.615785
H    -0.141326  -1.539765  3.812726
H    -1.884620  -1.506178  3.747649
H    -1.289145  0.125815  5.320035
H    -1.838311  1.025551  3.880832
H    1.036023  0.552998  3.823855
H    2.307782  2.515818  3.821275
H    -1.136662  2.575422  5.804299
H    -1.166638  3.553655  4.494089
O    2.125877  -0.338155  2.685353
H    2.902032  -0.916229  2.838584
Ba    1.508444  5.032913  5.842959
