27
Energy: -241644.985802 eV PBE+vdW (tier 2 basis)
N    -0.331889  0.689721  0.692073
C    -0.488927  0.208672  2.072733
C    0.823037  0.565263  2.799887
O    0.962428  0.473479  4.026283
H    -0.832241  1.560488  0.517102
H    -0.623247  0.011219  -0.010214
H    -1.305454  0.725835  2.601044
C    -0.764822  -1.315101  2.080071
C    -1.126472  -2.024071  3.403925
C    0.028874  -2.497799  4.307668
N    0.203768  -1.606739  5.513490
C    1.464193  -1.798217  6.179539
N    1.436921  -2.741483  7.101283
N    2.466495  -1.000564  5.830029
H    0.080577  -1.837283  1.603780
H    -1.623524  -1.458198  1.408391
H    -1.698158  -2.916998  3.116972
H    -1.825201  -1.401399  3.987287
H    0.973177  -2.546019  3.744281
H    -0.154019  -3.529283  4.657710
H    0.187162  -0.639814  5.121329
H    2.336903  -2.943950  7.540984
H    2.311271  -0.294005  5.095118
H    3.364816  -1.034079  6.303107
O    1.785126  0.953347  2.009348
H    1.314284  0.972670  1.095548
Ba    -1.018669  -2.884704  7.585419
