24
Energy: -240679.639522 eV PBE+vdW (tier 2 basis)
C    -0.179760  1.154189  0.008892
C    -0.201238  0.716527  1.433004
O    0.835818  0.202798  1.972956
H    0.651372  1.853760  -0.149522
H    -1.114817  1.624844  -0.311552
H    0.014194  0.277415  -0.626223
N    -1.321076  0.849643  2.147516
C    -1.527987  0.269462  3.479588
C    -2.978519  -0.296332  3.663528
O    -3.086121  -1.452561  4.036044
H    -2.146357  1.184755  1.653510
H    -0.929282  -0.650844  3.534426
C    -1.169514  1.179549  4.649474
O    0.290701  1.216304  4.859207
H    -1.630601  0.778316  5.562224
H    -1.517837  2.207816  4.482146
H    0.444145  1.836471  5.594622
N    -4.002684  0.543521  3.377638
C    -5.400270  0.117384  3.515225
H    -3.832437  1.539184  3.272766
H    -6.026362  0.739767  2.869101
H    -5.741393  0.206573  4.554745
H    -5.481572  -0.929530  3.208353
Ba    2.233717  -0.245097  3.819252
