24
Energy: -240680.376161 eV PBE+vdW (tier 2 basis)
C    1.006803  0.787048  0.050976
C    0.226115  -0.099747  0.963974
O    0.802893  -0.794501  1.852231
H    1.533068  1.537837  0.657622
H    0.388249  1.301177  -0.691850
H    1.776137  0.197044  -0.464035
N    -1.111625  -0.139375  0.831776
C    -2.005393  -0.854798  1.742267
C    -1.990717  -2.380854  1.468653
O    -1.181684  -3.073808  2.169265
H    -1.531459  0.442156  0.110071
H    -1.573994  -0.778984  2.750067
C    -3.381265  -0.173352  1.799616
O    -4.206116  -1.053107  2.536691
H    -3.775134  0.019510  0.785213
H    -3.251674  0.803089  2.295051
H    -5.003882  -0.587798  2.836290
N    -2.720879  -2.973475  0.540058
C    -3.723911  -2.424156  -0.377072
H    -2.594511  -3.985539  0.511369
H    -3.351400  -1.524792  -0.877898
H    -4.656989  -2.208221  0.156901
H    -3.920426  -3.177716  -1.144640
Ba    1.014798  -2.828639  3.189403
