24
Energy: -240679.965695 eV PBE+vdW (tier 2 basis)
C    0.214480  -0.446293  -0.125431
C    0.203560  -0.207590  1.346234
O    1.284584  0.133858  1.955296
H    0.898813  -1.279305  -0.342174
H    0.610279  0.437043  -0.643462
H    -0.776619  -0.686669  -0.522175
N    -0.921974  -0.357425  2.017756
C    -1.126170  -0.332876  3.459414
C    -2.499283  -1.110611  3.611980
O    -3.173938  -1.268676  2.596821
H    -1.798634  -0.685719  1.560443
H    -0.322000  -0.887127  3.969704
C    -1.280776  1.064018  4.057071
O    0.019660  1.741137  4.260852
H    -1.761231  0.989364  5.040879
H    -1.900905  1.690067  3.401567
H    -0.184961  2.511645  4.820828
N    -2.832908  -1.514709  4.844810
C    -4.075695  -2.240531  5.127961
H    -2.155825  -1.432682  5.596110
H    -4.810893  -1.991772  4.357992
H    -4.453502  -1.937068  6.109429
H    -3.903364  -3.324272  5.121338
Ba    2.513299  1.465196  3.408755
