24
Energy: -240679.890708 eV PBE+vdW (tier 2 basis)
C    1.264848  -1.530075  1.808109
C    0.174777  -1.373496  2.826364
O    0.057735  -2.052902  3.832831
H    2.220028  -1.242925  2.269180
H    1.112834  -0.933668  0.901460
H    1.349977  -2.590044  1.540065
N    -0.785736  -0.367948  2.560497
C    -1.733194  -0.082250  3.611328
C    -3.184136  -0.190206  3.165400
O    -4.106933  0.278009  3.925113
H    -0.561977  0.345418  1.870660
H    -1.555783  -0.920737  4.325043
C    -1.421245  1.229806  4.352947
O    -2.027877  1.266348  5.695680
H    -1.782108  2.114699  3.811819
H    -0.334776  1.310061  4.466178
H    -1.307863  1.276353  6.348386
N    -3.441661  -0.804179  2.031709
C    -4.759253  -1.084779  1.468326
H    -2.612977  -1.133272  1.531229
H    -5.525896  -0.584335  2.063921
H    -4.938526  -2.167207  1.468043
H    -4.798698  -0.717724  0.436381
Ba    -4.599560  1.133054  6.076332
