24
Energy: -240680.936007 eV PBE+vdW (tier 2 basis)
C    -0.517968  -0.170536  -0.094856
C    -0.502557  0.072780  1.381211
O    0.430508  0.717734  1.923303
H    -0.502788  0.798476  -0.612485
H    -1.382089  -0.747875  -0.439256
H    0.402532  -0.696980  -0.380197
N    -1.534978  -0.414695  2.105075
C    -1.742773  -0.282189  3.555330
C    -1.617369  1.179731  4.035566
O    -0.569622  1.579451  4.615941
H    -2.242032  -0.935341  1.593825
H    -2.790664  -0.575370  3.720285
C    -0.954656  -1.280157  4.414744
O    0.485304  -1.160112  4.269939
H    -1.252983  -2.293828  4.115578
H    -1.233522  -1.129618  5.468564
H    0.869993  -2.028082  4.476187
N    -2.649444  1.995450  3.849620
C    -3.949365  1.698363  3.239656
H    -2.509879  2.938493  4.212177
H    -3.835096  1.362189  2.202313
H    -4.537763  2.619805  3.233774
H    -4.502613  0.950024  3.822286
Ba    1.776824  1.170285  3.947419
