24
Energy: -240680.131357 eV PBE+vdW (tier 2 basis)
C    0.104865  -1.175212  1.901213
C    0.012978  0.189162  2.503341
O    1.057127  0.836981  2.812564
H    0.952770  -1.693488  2.365735
H    0.324109  -1.108780  0.824189
H    -0.804211  -1.769313  2.037468
N    -1.197972  0.758344  2.728432
C    -2.265436  0.726731  1.740956
C    -1.950750  1.814940  0.663983
O    -0.775636  2.313706  0.599341
H    -1.144363  1.617783  3.276799
H    -2.240034  -0.243948  1.222505
C    -3.644629  0.849396  2.411980
O    -4.611238  0.665799  1.381312
H    -3.753240  1.834132  2.901878
H    -3.716843  0.066135  3.181579
H    -5.506727  0.652129  1.758176
N    -2.928146  2.143097  -0.151893
C    -2.848885  3.093571  -1.257861
H    -3.833436  1.690147  0.052232
H    -1.810701  3.391562  -1.418941
H    -3.456054  3.979334  -1.032270
H    -3.240523  2.620303  -2.165691
Ba    1.521972  2.774490  1.344971
