24
Energy: -240680.362132 eV PBE+vdW (tier 2 basis)
C    -0.153467  0.369538  -0.146800
C    -0.201518  0.263907  1.340682
O    0.862877  0.276757  2.033137
H    0.497914  -0.417388  -0.549104
H    0.303072  1.332776  -0.415772
H    -1.138916  0.299651  -0.618281
N    -1.394421  0.158872  1.944003
C    -1.572013  0.240861  3.398330
C    -1.074159  -1.028947  4.118636
O    0.062708  -0.965173  4.688316
H    -2.225272  0.278317  1.367991
H    -0.902798  1.036547  3.758816
C    -2.988002  0.720463  3.742060
O    -3.058455  2.022430  3.193117
H    -3.100822  0.710017  4.840330
H    -3.758733  0.056491  3.316102
H    -3.919397  2.422861  3.398261
N    -1.761737  -2.161402  4.153438
C    -3.050405  -2.515299  3.550086
H    -1.309408  -2.894769  4.700593
H    -3.056227  -3.596659  3.381382
H    -3.179885  -2.021453  2.583011
H    -3.882692  -2.263014  4.218579
Ba    2.247009  -0.084402  3.992555
