24
Energy: -240679.473388 eV PBE+vdW (tier 2 basis)
C    -1.134344  1.481040  0.269195
C    -0.187229  0.769393  1.203913
O    0.944164  1.123190  1.439949
H    -0.676078  2.434363  -0.007953
H    -2.114421  1.678183  0.725851
H    -1.290969  0.903770  -0.654577
N    -0.679201  -0.381295  1.892861
C    -1.819488  -1.185680  1.520615
C    -2.760845  -1.423479  2.713835
O    -3.672015  -2.322223  2.634499
H    0.084074  -0.852185  2.382861
H    -2.409679  -0.620620  0.780648
C    -1.356709  -2.498506  0.853690
O    -2.453756  -3.229202  0.190589
H    -0.890620  -3.175209  1.583904
H    -0.610111  -2.241085  0.094107
H    -2.149294  -3.455056  -0.704737
N    -2.593704  -0.660680  3.767846
C    -3.386825  -0.664524  4.993165
H    -1.813378  -0.000585  3.678695
H    -3.842232  0.323061  5.135012
H    -2.735602  -0.879396  5.848881
H    -4.168461  -1.424265  4.923738
Ba    -4.647507  -4.052409  1.356797
