24
Energy: -240679.508882 eV PBE+vdW (tier 2 basis)
C    0.112632  0.413616  0.032736
C    -0.135528  0.045851  1.455033
O    0.823451  0.015464  2.297791
H    0.617837  1.387257  -0.013555
H    -0.801601  0.451203  -0.568360
H    0.798601  -0.324698  -0.407688
N    -1.372319  -0.266238  1.849597
C    -1.697753  -0.831995  3.163386
C    -2.734565  -2.005489  3.067876
O    -2.357004  -3.091312  3.481482
H    -2.092396  -0.295102  1.131229
H    -0.812839  -1.393892  3.492406
C    -2.055194  0.180385  4.248953
O    -0.827071  0.724830  4.860203
H    -2.624025  -0.328388  5.039162
H    -2.642742  1.018070  3.853582
H    -1.120195  1.336031  5.559812
N    -3.948100  -1.781283  2.503990
C    -4.665202  -0.528468  2.277103
H    -4.514260  -2.629239  2.472560
H    -5.282826  -0.249864  3.142938
H    -5.321609  -0.642827  1.407513
H    -3.981303  0.302006  2.063535
Ba    1.729258  0.153487  4.472456
