24
Energy: -240680.534052 eV PBE+vdW (tier 2 basis)
C    -0.823330  -0.535022  -0.137012
C    -0.363000  -0.377253  1.274297
O    0.868509  -0.470768  1.571444
H    -0.458052  -1.488819  -0.539067
H    -0.370560  0.263348  -0.742535
H    -1.911564  -0.489306  -0.245863
N    -1.276221  -0.128380  2.221338
C    -0.972894  0.267443  3.604545
C    -0.506363  -0.929363  4.458021
O    0.727631  -1.221667  4.484186
H    -2.224538  0.070683  1.906324
H    -0.118798  0.961647  3.571914
C    -2.172692  1.040157  4.171377
O    -2.433277  2.064326  3.234557
H    -1.903824  1.424874  5.169019
H    -3.054674  0.376989  4.288367
H    -3.130555  2.652816  3.568162
N    -1.401679  -1.617649  5.147109
C    -1.099621  -2.764910  6.005890
H    -2.376518  -1.337658  5.071380
H    -1.822910  -2.788080  6.826545
H    -0.089587  -2.661577  6.411408
H    -1.174192  -3.700676  5.436646
Ba    2.696026  -1.068497  3.023258
