24
Energy: -240680.484463 eV PBE+vdW (tier 2 basis)
C    -0.286992  -0.232723  -0.158700
C    -0.235187  -0.116657  1.329733
O    0.770656  0.403153  1.906074
H    0.597707  -0.775097  -0.516706
H    -0.238491  0.777331  -0.589984
H    -1.190009  -0.733018  -0.522487
N    -1.278158  -0.565584  2.037145
C    -1.482904  -0.398887  3.475919
C    -0.629650  -1.410527  4.285424
O    0.566047  -1.041813  4.544922
H    -2.091305  -0.952716  1.551746
H    -1.046170  0.566422  3.769982
C    -3.002901  -0.288371  3.733501
O    -3.674015  -1.154052  2.823698
H    -3.293176  0.759026  3.560895
H    -3.224064  -0.533817  4.785030
H    -4.620359  -0.937232  2.796445
N    -1.041719  -2.590541  4.715736
C    -2.311373  -3.306866  4.568822
H    -0.327732  -3.078472  5.259871
H    -2.085512  -4.357179  4.354208
H    -2.907293  -2.892592  3.752990
H    -2.877841  -3.256170  5.507917
Ba    2.395441  0.328379  3.695817
