24
Energy: -240680.999133 eV PBE+vdW (tier 2 basis)
C    -0.245563  1.007678  0.119889
C    -1.229454  0.390592  1.063719
O    -2.266232  1.010373  1.410117
H    0.088783  1.969130  0.531485
H    -0.756421  1.227373  -0.827739
H    0.628399  0.380281  -0.082561
N    -0.959952  -0.855566  1.512473
C    -1.757681  -1.703281  2.417382
C    -3.208565  -1.917520  1.925662
O    -4.142231  -1.151261  2.284200
H    -0.097406  -1.270419  1.171671
H    -1.264738  -2.686054  2.374950
C    -1.660443  -1.341149  3.906700
O    -2.196163  -0.031097  4.229774
H    -0.599896  -1.366666  4.191733
H    -2.197558  -2.109797  4.483415
H    -1.801253  0.235096  5.077156
N    -3.420018  -2.956743  1.126545
C    -4.727039  -3.313694  0.569066
H    -2.639046  -3.569680  0.909780
H    -5.280027  -2.405377  0.312936
H    -5.307876  -3.896255  1.295807
H    -4.570277  -3.913560  -0.331623
Ba    -4.177346  1.239594  2.935465
