24
Energy: -240679.755792 eV PBE+vdW (tier 2 basis)
C    -0.368403  1.917183  0.307615
C    -0.329079  1.162296  1.592603
O    0.776519  0.720082  2.060770
H    0.035429  1.282092  -0.493438
H    0.284681  2.797488  0.379411
H    -1.376628  2.242378  0.031422
N    -1.457627  0.941564  2.264039
C    -1.534098  0.193838  3.525245
C    -3.031633  -0.093955  3.916577
O    -3.397542  0.099684  5.066071
H    -2.323856  1.331434  1.894787
H    -1.048063  -0.784539  3.371428
C    -0.833548  0.901642  4.694143
O    0.388169  0.191298  5.110810
H    -1.537224  0.922341  5.537696
H    -0.549090  1.927455  4.433529
H    0.238078  -0.149836  6.008815
N    -3.821098  -0.538365  2.913248
C    -5.229539  -0.879081  3.142610
H    -3.397626  -0.866709  2.051021
H    -5.327408  -1.875146  3.593562
H    -5.759017  -0.856636  2.185624
H    -5.668650  -0.142317  3.821698
Ba    2.480254  0.091809  3.589716
