28
Energy: -106870.7060098  eV PBE+vdW (tier 2 basis)
 C   -1.54011    0.73081   -1.42717
 C   -1.26764   -0.02640   -0.17246
 O   -0.54701   -1.05891   -0.15898
 H   -0.73381    0.53889   -2.14200
 H   -1.62934    1.81108   -1.26229
 H   -2.47992    0.37171   -1.87519
 N   -1.82043    0.36285    1.00606
 C   -3.01043    1.15398    1.20873
 C   -2.97466    1.61204    2.69319
 O   -2.38475    0.93188    3.52533
 H   -1.49567   -0.13109    1.84450
 H   -3.01683    2.01473    0.52652
 C   -4.33240    0.32964    0.99364
 C   -4.37535   -1.02017    1.72328
 C   -3.43902   -2.03376    1.10830
 O   -3.35119   -2.14747   -0.16494
 O   -2.68504   -2.77428    1.82429
 H   -4.41690    0.17249   -0.09446
 H   -5.19399    0.94455    1.28733
 H   -5.39506   -1.42573    1.62374
 H   -4.17252   -0.94208    2.79805
 N   -3.65079    2.75211    2.99334
 C   -3.61091    3.35528    4.31025
 H   -4.03790    3.30346    2.22827
 H   -4.53470    3.92731    4.46244
 H   -2.76189    4.05535    4.40584
 H   -3.48507    2.56732    5.06233
Sr   -1.19915   -3.34293   -0.00093
