28
Energy: -106870.4739098  eV PBE+vdW (tier 2 basis)
 C   -0.70670   -0.32236    0.44618
 C   -0.62122   -0.55436    1.92669
 O    0.29636   -1.14852    2.48266
 H   -0.01943   -0.99966   -0.06770
 H   -0.41683    0.71368    0.21615
 H   -1.73419   -0.47866    0.08783
 N   -1.65236   -0.03686    2.71483
 C   -1.51875    0.05659    4.14503
 C   -1.12587   -1.28297    4.83434
 O   -0.35550   -1.23190    5.83094
 H   -2.30830    0.60277    2.26504
 H   -0.65129    0.71133    4.38919
 C   -2.77253    0.68233    4.82151
 C   -2.45942    1.92648    5.69097
 C   -1.26899    1.66695    6.56664
 O   -1.36685    1.23141    7.75476
 O   -0.08399    1.76708    6.06574
 H   -3.27434   -0.07618    5.43811
 H   -3.50646    0.97172    4.05675
 H   -2.23180    2.78921    5.04887
 H   -3.33351    2.17175    6.30676
 N   -1.68883   -2.44148    4.49196
 C   -2.65596   -2.76914    3.44942
 H   -1.39655   -3.21791    5.08730
 H   -3.30075   -3.57279    3.81896
 H   -3.27971   -1.90480    3.19991
 H   -2.14248   -3.11600    2.54162
Sr    0.73443    0.01183    7.51857
