28
Energy: -106869.9296087  eV PBE+vdW (tier 2 basis)
 C    0.09549    1.59593   -0.39035
 C    0.24289    0.39197    0.47961
 O    1.21087   -0.34862    0.48667
 H   -0.72991    1.46762   -1.10514
 H   -0.11500    2.48153    0.22430
 H    1.02655    1.74086   -0.94522
 N   -0.79143    0.01080    1.38779
 C   -2.20636    0.12763    1.22629
 C   -2.67694   -0.60911   -0.14065
 O   -3.18451    0.09366   -1.00629
 H   -0.46364   -0.77333    1.95718
 H   -2.65213   -0.48305    2.02734
 C   -2.75813    1.56664    1.28104
 C   -4.24970    1.57884    1.62607
 C   -4.87133    2.96049    1.68523
 O   -6.10776    3.04957    2.01689
 O   -4.19361    4.01284    1.40704
 H   -2.59054    2.07267    0.32488
 H   -2.18835    2.10600    2.04904
 H   -4.84471    1.01459    0.89117
 H   -4.45315    1.10578    2.59974
 N   -2.47934   -1.92846   -0.23900
 C   -1.91157   -2.86073    0.73405
 H   -2.79903   -2.32357   -1.12303
 H   -0.81444   -2.87705    0.68336
 H   -2.24221   -2.63118    1.75502
 H   -2.28218   -3.86269    0.49628
Sr   -6.08493    5.35349    1.78825
