28
Energy: -106870.4388950  eV PBE+vdW (tier 2 basis)
 C   -0.29808    0.32375   -0.01805
 C   -0.73387   -0.75399    0.92418
 O   -0.79122   -1.94890    0.64211
 H    0.08023   -0.12913   -0.93809
 H    0.48760    0.94041    0.44176
 H   -1.14321    0.98279   -0.26511
 N   -1.11677   -0.36367    2.21100
 C   -1.59758   -1.31590    3.15507
 C   -3.09994   -1.77485    2.79038
 O   -4.03282   -1.13307    3.24320
 H   -1.28359    0.62716    2.38821
 H   -1.01631   -2.24441    2.99688
 C   -1.54802   -0.82404    4.60382
 C   -0.11170   -0.66859    5.11570
 C   -0.00770   -0.36891    6.59845
 O    1.12644    0.00763    7.06612
 O   -1.01818   -0.50993    7.37566
 H   -2.08866   -1.54811    5.22653
 H   -2.10421    0.11984    4.69382
 H    0.44969    0.11394    4.58530
 H    0.46993   -1.59344    4.95932
 N   -3.17526   -2.85078    1.98609
 C   -4.42728   -3.25222    1.35514
 H   -2.30098   -3.19774    1.58913
 H   -4.37843   -4.32789    1.15190
 H   -4.58960   -2.72270    0.40445
 H   -5.25553   -3.01718    2.03368
Sr    0.28443    0.09546    9.22706
