28
Energy: -106870.4927787  eV PBE+vdW (tier 2 basis)
 C   -0.28451   -0.42186   -0.09503
 C   -0.65939    0.24579    1.18707
 O   -0.40175    1.45108    1.40889
 H    0.80783   -0.37032   -0.21083
 H   -0.72262    0.13230   -0.93609
 H   -0.59800   -1.46925   -0.15484
 N   -1.31091   -0.51192    2.12186
 C   -1.67273   -0.04445    3.43878
 C   -0.97748   -0.92871    4.53153
 O   -0.15841   -0.30651    5.21021
 H   -1.48855   -1.48092    1.86670
 H   -1.18494    0.93196    3.55705
 C   -3.17753    0.18459    3.73076
 C   -3.82995    1.17678    2.74537
 C   -3.06984    2.45440    2.51554
 O   -3.09461    3.01848    1.36848
 O   -2.31391    2.95659    3.41503
 H   -3.23623    0.56953    4.75799
 H   -3.74700   -0.75168    3.70174
 H   -4.82447    1.44727    3.13679
 H   -3.99859    0.71465    1.76267
 N   -1.21096   -2.24363    4.69688
 C   -2.31709   -3.06368    4.21176
 H   -0.66735   -2.64588    5.46400
 H   -1.95855   -4.09665    4.12428
 H   -2.66947   -2.73702    3.22879
 H   -3.16236   -3.05278    4.91517
Sr   -0.84806    3.78864    1.65689
