28
Energy: -106869.7852554  eV PBE+vdW (tier 2 basis)
 C    0.89665    0.14394    1.50445
 C    0.06106   -1.09981    1.55346
 O    0.50578   -2.22336    1.38881
 H    0.59322    0.77365    0.65585
 H    1.94381   -0.14488    1.37931
 H    0.78936    0.72402    2.43031
 N   -1.33301   -1.00590    1.75025
 C   -2.16211    0.12226    1.45093
 C   -3.25488    0.20412    2.64178
 O   -4.42575    0.01650    2.33617
 H   -1.77918   -1.92676    1.68740
 H   -1.56209    1.04122    1.51449
 C   -2.86432   -0.00861    0.08494
 C   -3.70579    1.18689   -0.37157
 C   -2.98843    2.29862   -1.09956
 O   -1.70435    2.36409   -1.16059
 O   -3.70747    3.18294   -1.69182
 H   -3.50724   -0.89794    0.11501
 H   -2.07122   -0.20771   -0.64968
 H   -4.27494    1.64823    0.45088
 H   -4.49501    0.83723   -1.05370
 N   -2.83024    0.47857    3.88211
 C   -1.48429    0.79259    4.35602
 H   -3.58676    0.53406    4.56336
 H   -1.57032    1.11282    5.39879
 H   -1.04179    1.62404    3.79236
 H   -0.82926   -0.08547    4.32350
Sr   -1.89359    4.18221   -2.67647
