28
Energy: -106870.4700451  eV PBE+vdW (tier 2 basis)
 C   -0.43700    0.08817    0.01168
 C   -0.30025    0.13449    1.49850
 O    0.81697    0.20825    2.06296
 H    0.10351   -0.79227   -0.36433
 H    0.04383    0.97315   -0.42657
 H   -1.47528    0.03858   -0.33240
 N   -1.44463    0.10368    2.23747
 C   -1.46739    0.09469    3.68410
 C   -2.50814   -0.92627    4.20553
 O   -2.04680   -1.80792    4.93297
 H   -2.31805    0.07086    1.71725
 H   -0.50108   -0.33513    3.99324
 C   -1.59088    1.50046    4.38236
 C   -0.60539    1.67667    5.55142
 C    0.80815    1.48799    5.07811
 O    1.39335    0.36164    5.23978
 O    1.41365    2.38610    4.40159
 H   -1.39882    2.26161    3.61465
 H   -2.60854    1.66552    4.75430
 H   -0.81148    0.96880    6.36676
 H   -0.71983    2.69667    5.94990
 N   -3.81898   -0.88666    3.87554
 C   -4.61003    0.23306    3.37600
 H   -4.35126   -1.65765    4.28683
 H   -5.13832    0.73932    4.19772
 H   -5.36410   -0.15642    2.67915
 H   -3.99027    0.97127    2.85801
Sr    2.77832    0.74650    3.28585
