28
Energy: -106870.1993649  eV PBE+vdW (tier 2 basis)
 C   -0.48590    0.39156    2.10683
 C   -1.54366    0.19355    3.14433
 O   -1.44646    0.74821    4.27578
 H    0.40175    0.80373    2.59502
 H   -0.81875    1.10922    1.34355
 H   -0.21275   -0.54097    1.60184
 N   -2.63413   -0.59181    2.93857
 C   -3.39952   -0.91642    1.72306
 C   -2.50052   -1.21766    0.49891
 O   -2.36638   -0.39714   -0.40730
 H   -3.19230   -0.69118    3.78863
 H   -3.93328   -1.84945    1.95577
 C   -4.48848    0.13709    1.39629
 C   -4.04255    1.59542    1.23613
 C   -3.61603    2.28933    2.49827
 O   -2.58441    3.04687    2.50630
 O   -4.22624    2.13276    3.60999
 H   -5.24951    0.06866    2.18627
 H   -4.97997   -0.18318    0.46772
 H   -4.89249    2.17207    0.83202
 H   -3.23922    1.70054    0.48736
 N   -1.90073   -2.44312    0.40328
 C   -2.16335   -3.64308    1.17594
 H   -1.41752   -2.57155   -0.49053
 H   -2.32286   -3.41047    2.23274
 H   -1.29154   -4.30387    1.07936
 H   -3.03272   -4.19733    0.78047
Sr   -2.29308    2.86016    4.93276
