28
Energy: -106870.3803345  eV PBE+vdW (tier 2 basis)
 C    0.00199    1.20363    0.29257
 C   -0.32128    0.43256    1.52499
 O    0.49235   -0.37674    2.03370
 H    1.01496    0.95440   -0.03368
 H   -0.70243    0.94811   -0.51271
 H   -0.07363    2.28803    0.44693
 N   -1.54327    0.54530    2.14668
 C   -2.41898    1.70763    2.24686
 C   -3.06145    2.03971    0.85115
 O   -2.67308    3.00699    0.20998
 H   -1.65921   -0.13849    2.89819
 H   -3.23632    1.39417    2.91103
 C   -1.74645    2.96181    2.84922
 C   -1.24443    2.75817    4.29160
 C   -0.12815    1.75520    4.42742
 O   -0.36867    0.56533    4.84218
 O    1.06681    2.04269    4.08346
 H   -2.49618    3.76424    2.85563
 H   -0.93463    3.30962    2.19825
 H   -2.06441    2.45818    4.96131
 H   -0.87026    3.73056    4.64895
 N   -4.05808    1.23179    0.38873
 C   -4.84812    0.24996    1.11379
 H   -4.47260    1.58924   -0.47645
 H   -5.67541    0.72421    1.66708
 H   -5.29545   -0.42814    0.37511
 H   -4.23064   -0.33963    1.79640
Sr    1.79123   -0.26302    4.05185
