28
Energy: -106869.6791887  eV PBE+vdW (tier 2 basis)
 C    0.24512    0.41179    0.28693
 C    0.01050    0.31188    1.76217
 O    0.94395    0.26230    2.56169
 H   -0.10116    1.39168   -0.07240
 H   -0.27514   -0.37250   -0.27528
 H    1.32100    0.33265    0.10434
 N   -1.25439    0.28364    2.35769
 C   -2.58243   -0.11954    1.91863
 C   -3.03023   -1.57906    2.25952
 O   -4.27755   -1.77314    2.31545
 H   -1.15791    0.38481    3.37144
 H   -3.23226    0.44683    2.60822
 C   -2.98550    0.32031    0.48271
 C   -3.04488   -0.74642   -0.62856
 C   -4.35056   -1.49824   -0.55629
 O   -4.40164   -2.76908   -0.50087
 O   -5.45053   -0.85342   -0.42140
 H   -2.32978    1.14585    0.18743
 H   -3.98494    0.77320    0.55749
 H   -3.01466   -0.23708   -1.60411
 H   -2.21493   -1.46423   -0.61255
 N   -2.18929   -2.57970    2.50390
 C   -0.72674   -2.69293    2.42985
 H   -2.67359   -3.43774    2.76565
 H   -0.34578   -2.32443    1.47208
 H   -0.23279   -2.18170    3.26337
 H   -0.48288   -3.75772    2.49029
Sr   -6.22840   -2.49484    1.11970
