28
Energy: -106870.8345442  eV PBE+vdW (tier 2 basis)
 C   -1.04145   -1.15683    0.46286
 C   -1.65233   -0.76349    1.76986
 O   -2.60353   -1.40918    2.26802
 H   -0.17994   -0.54254    0.18054
 H   -0.74216   -2.21221    0.50014
 H   -1.81139   -1.06788   -0.31751
 N   -1.13607    0.32215    2.40446
 C   -1.62057    0.98337    3.61336
 C   -1.49085    0.07582    4.87075
 O   -2.00313   -1.06952    4.87902
 H   -0.30400    0.72439    1.97929
 H   -0.91214    1.80456    3.77230
 C   -3.04500    1.60488    3.42462
 C   -4.03105    1.57727    4.60978
 C   -4.69486    0.23268    4.67677
 O   -5.17954   -0.30744    3.61873
 O   -4.69139   -0.50286    5.70754
 H   -3.53214    1.13496    2.56061
 H   -2.87901    2.65333    3.13752
 H   -4.81888    2.32418    4.41832
 H   -3.58381    1.83343    5.57898
 N   -0.86527    0.56302    5.93702
 C   -0.21072    1.86626    6.11491
 H   -0.86268   -0.06485    6.74174
 H    0.66173    1.96642    5.45748
 H   -0.90964    2.69568    5.95064
 H    0.13677    1.92227    7.15060
Sr   -3.91695   -2.35289    4.04264
