28
Energy: -106870.4852634  eV PBE+vdW (tier 2 basis)
 C   -0.00437   -0.49174   -0.28954
 C   -0.33351    0.31699    0.92186
 O    0.29355    1.35947    1.21562
 H    1.03641   -0.83751   -0.20854
 H   -0.06084    0.14803   -1.18063
 H   -0.65622   -1.36001   -0.43128
 N   -1.36492   -0.12363    1.70809
 C   -1.76735    0.49878    2.94054
 C   -1.69609   -0.49679    4.15651
 O   -0.86331   -0.14234    4.99605
 H   -1.83538   -0.97037    1.39628
 H   -0.99679    1.24573    3.17238
 C   -3.12202    1.26435    2.95785
 C   -3.18822    2.36536    1.87771
 C   -1.99766    3.28352    1.81253
 O   -1.29032    3.53481    2.84622
 O   -1.61655    3.75896    0.68908
 H   -3.21312    1.70153    3.96106
 H   -3.97642    0.59129    2.81952
 H   -4.07607    2.98666    2.08314
 H   -3.33062    1.93672    0.87615
 N   -2.47478   -1.57595    4.28728
 C   -3.34292   -2.22041    3.30527
 H   -2.28504   -2.10979    5.13763
 H   -4.17029   -2.69917    3.84243
 H   -2.80530   -3.00055    2.74674
 H   -3.77945   -1.49177    2.61537
Sr    0.66470    3.71853    1.40994
