28
Energy: -106869.9593497  eV PBE+vdW (tier 2 basis)
 C   -0.45212   -0.59741    0.66891
 C    0.03946    0.40623    1.66217
 O    1.14324    0.39240    2.18445
 H    0.40833   -1.14394    0.27095
 H   -1.00501   -0.12192   -0.15243
 H   -1.11396   -1.32584    1.16143
 N   -0.80625    1.45683    2.07820
 C   -2.22579    1.46919    2.03305
 C   -2.77740    2.45274    0.85947
 O   -3.70610    1.97110    0.22419
 H   -0.32484    2.10411    2.70694
 H   -2.57957    0.49503    1.68083
 C   -2.89830    1.83217    3.37729
 C   -4.42564    1.74528    3.33714
 C   -5.09303    1.76746    4.69789
 O   -6.37330    1.83004    4.74349
 O   -4.40532    1.70490    5.77961
 H   -2.57735    2.82954    3.71052
 H   -2.50558    1.11797    4.11618
 H   -4.76227    0.81471    2.85088
 H   -4.88456    2.54918    2.74399
 N   -2.26416    3.67251    0.67581
 C   -1.15346    4.34360    1.34972
 H   -2.69627    4.17278   -0.10044
 H   -1.20442    5.40447    1.08384
 H   -0.17988    3.95952    1.02026
 H   -1.24284    4.28367    2.44095
Sr   -6.38164    1.72513    7.05599
