28
Energy: -106870.3872835  eV PBE+vdW (tier 2 basis)
 C   -0.23031    1.16532   -0.19695
 C   -0.07240    0.38380    1.07209
 O    1.01292    0.05884    1.53070
 H    0.73883    1.58887   -0.47703
 H   -0.96842    1.96972   -0.07975
 H   -0.55462    0.49070   -1.00420
 N   -1.20761   -0.04247    1.78356
 C   -2.52540   -0.24051    1.23167
 C   -3.44326    1.01318    1.42422
 O   -4.47614    1.12429    0.71679
 H   -0.95110   -0.62020    2.58893
 H   -2.46866   -0.33367    0.12819
 C   -3.21486   -1.51453    1.80452
 C   -3.62059   -2.54589    0.72294
 C   -4.53790   -1.87101   -0.25178
 O   -5.79952   -1.85014   -0.08076
 O   -4.04798   -1.15478   -1.20467
 H   -4.10205   -1.23433    2.38859
 H   -2.53151   -2.00910    2.50781
 H   -2.73282   -2.92123    0.19646
 H   -4.13535   -3.38911    1.19858
 N   -3.09816    1.88867    2.35525
 C   -3.87254    3.07099    2.73377
 H   -2.24881    1.68241    2.87915
 H   -4.57930    2.82626    3.53790
 H   -3.18113    3.84089    3.09156
 H   -4.42305    3.44470    1.86591
Sr   -5.93192    0.34165   -1.04068
