28
Energy: -106870.7859532  eV PBE+vdW (tier 2 basis)
 C    0.22824   -0.64074    0.22642
 C   -0.02700   -0.13116    1.60772
 O    0.91972    0.21856    2.36485
 H    0.74393    0.13618   -0.35495
 H    0.90575   -1.50369    0.28376
 H   -0.68233   -0.93498   -0.30511
 N   -1.31181   -0.05846    2.01823
 C   -1.77455    0.30246    3.34142
 C   -2.95093   -0.65811    3.66312
 O   -3.56373   -1.21691    2.76273
 H   -2.03027   -0.45485    1.40673
 H   -0.93922    0.17458    4.04368
 C   -2.33534    1.75177    3.47773
 C   -1.39389    2.85482    2.95778
 C    0.01241    2.83809    3.47700
 O    0.33797    2.27542    4.57544
 O    0.95307    3.32489    2.75850
 H   -2.56488    1.92507    4.53750
 H   -3.28273    1.83151    2.92717
 H   -1.83328    3.83266    3.21613
 H   -1.33292    2.83213    1.85963
 N   -3.27634   -0.80952    4.98136
 C   -4.30304   -1.72485    5.42477
 H   -2.66556   -0.39584    5.68489
 H   -3.88780   -2.72969    5.62753
 H   -4.73051   -1.34970    6.36353
 H   -5.05738   -1.82899    4.63554
Sr    2.44342    1.60737    3.49588
