28
Energy: -106870.5589314  eV PBE+vdW (tier 2 basis)
 C   -0.93046    0.35771    1.47320
 C   -2.28602    0.54974    2.04912
 O   -2.60019    1.60458    2.65421
 H   -0.84674    0.94341    0.54337
 H   -0.19596    0.76059    2.18178
 H   -0.69477   -0.68888    1.24077
 N   -3.26823   -0.40564    1.94560
 C   -3.48310   -1.41396    0.91590
 C   -2.55024   -2.66940    1.16867
 O   -1.37501   -2.63960    0.81875
 H   -4.09010   -0.18019    2.50855
 H   -4.51785   -1.75090    1.06917
 C   -3.32824   -0.91143   -0.53395
 C   -4.36160    0.16649   -0.92120
 C   -4.25063    1.45157   -0.13736
 O   -5.09239    1.72004    0.78964
 O   -3.29042    2.26983   -0.34463
 H   -3.47131   -1.77523   -1.19777
 H   -2.30468   -0.56115   -0.71217
 H   -5.38988   -0.20978   -0.82024
 H   -4.20008    0.40233   -1.98458
 N   -3.13364   -3.73046    1.76109
 C   -2.45601   -5.01323    1.90345
 H   -4.13666   -3.70256    1.93040
 H   -2.88053   -5.53310    2.77026
 H   -1.38174   -4.83534    2.03074
 H   -2.60161   -5.64420    1.01248
Sr   -3.71483    3.51050    1.69219
