28
Energy: -106870.5487578  eV PBE+vdW (tier 2 basis)
 C    0.11032    0.67356    0.78419
 C   -0.04253    0.30239    2.21454
 O    0.89115   -0.24808    2.85170
 H    0.69374   -0.11085    0.28665
 H    0.68559    1.61085    0.71012
 H   -0.85083    0.80257    0.27116
 N   -1.19572    0.54532    2.91950
 C   -2.20126    1.57364    2.75577
 C   -3.26923    1.24948    1.63446
 O   -2.92673    0.81796    0.54066
 H   -1.17589    0.11467    3.84473
 H   -2.74261    1.58820    3.71174
 C   -1.63546    2.99953    2.48446
 C   -0.80386    3.55330    3.65923
 C    0.44282    2.76342    3.98322
 O    1.47309    2.82641    3.23093
 O    0.46597    1.97990    4.99495
 H   -2.48598    3.67503    2.32320
 H   -1.05851    3.00436    1.55193
 H   -0.49923    4.57344    3.37499
 H   -1.40593    3.63399    4.57590
 N   -4.54901    1.52349    1.96450
 C   -5.66437    1.20499    1.08188
 H   -4.76353    1.77031    2.92809
 H   -6.01083    0.17001    1.22916
 H   -6.49242    1.88422    1.31591
 H   -5.33782    1.31690    0.04121
Sr    2.49661    0.86531    4.23727
