28
Energy: -106870.2138241  eV PBE+vdW (tier 2 basis)
 C    0.13126   -0.00617    0.20513
 C   -0.28216   -0.21567    1.62889
 O    0.45470    0.00345    2.57819
 H    0.09780   -0.95868   -0.34209
 H   -0.53379    0.71723   -0.28741
 H    1.15400    0.38093    0.18853
 N   -1.58420   -0.65585    1.96407
 C   -2.79436   -0.40897    1.20738
 C   -4.04556   -0.62532    2.08096
 O   -5.05709    0.10724    1.92115
 H   -1.68070   -0.65473    2.98413
 H   -2.84988    0.66135    0.89360
 C   -2.91735   -1.26177   -0.11338
 C   -3.22373   -0.43463   -1.37878
 C   -4.32278    0.54959   -1.10389
 O   -4.04200    1.64327   -0.48335
 O   -5.54342    0.29022   -1.33803
 H   -1.99639   -1.83529   -0.26403
 H   -3.71242   -2.00600    0.03614
 H   -3.52621   -1.11646   -2.18594
 H   -2.33390    0.11585   -1.71633
 N   -4.03348   -1.63169    2.95173
 C   -5.16638   -1.99337    3.80858
 H   -3.23430   -2.26239    2.95041
 H   -5.90731   -2.57492    3.24379
 H   -5.63626   -1.08637    4.20023
 H   -4.79364   -2.59971    4.63910
Sr   -6.24787    1.63608    0.54779
