28
Energy: -106870.6076876  eV PBE+vdW (tier 2 basis)
 C   -0.23468    1.56000    0.54528
 C   -0.26602    0.71227    1.78548
 O    0.19565    1.06033    2.86692
 H    0.09177    0.95975   -0.31652
 H    0.44490    2.40230    0.69643
 H   -1.24214    1.94617    0.33241
 N   -0.87550   -0.54043    1.69020
 C   -1.24175   -1.26791    2.88458
 C    0.01720   -1.57028    3.75588
 O   -0.04894   -1.52369    5.00924
 H   -1.40949   -0.73404    0.84201
 H   -1.87059   -0.64234    3.54572
 C   -2.07643   -2.51076    2.51210
 C   -2.38284   -3.48553    3.66885
 C   -2.62460   -2.84596    5.00400
 O   -3.01146   -1.62598    5.11988
 O   -2.33055   -3.46424    6.07837
 H   -1.57393   -3.07949    1.71677
 H   -3.02282   -2.13589    2.09580
 H   -3.26976   -4.08576    3.41209
 H   -1.56870   -4.21088    3.81078
 N    1.11730   -1.95349    3.11374
 C    2.35987   -2.35208    3.76618
 H    1.07262   -1.98584    2.09722
 H    3.17503   -2.27479    3.04080
 H    2.55420   -1.69285    4.61901
 H    2.30083   -3.39084    4.12115
Sr   -1.43618   -1.40975    6.96160
