28
Energy: -106869.4687864  eV PBE+vdW (tier 2 basis)
 C    0.06459    0.04058   -0.04533
 C   -0.03422   -0.28879    1.41203
 O    0.80988   -0.94079    2.00446
 H   -0.14376    1.10043   -0.23420
 H    1.07507   -0.20353   -0.38585
 H   -0.64256   -0.57674   -0.61605
 N   -1.13060    0.13947    2.19790
 C   -2.50073    0.36419    1.84151
 C   -3.16940   -1.02241    1.28687
 O   -3.32736   -1.83865    2.18509
 H   -0.99051   -0.18977    3.15761
 H   -3.03722    0.44566    2.79458
 C   -2.79739    1.65341    1.03813
 C   -2.49777    2.87628    1.91547
 C   -2.97185    4.20340    1.35704
 O   -2.64119    5.26815    1.99119
 O   -3.69903    4.27088    0.30346
 H   -3.86001    1.64547    0.76524
 H   -2.22758    1.70412    0.10591
 H   -1.42351    2.97552    2.12966
 H   -2.97697    2.78522    2.90468
 N   -3.48521   -1.25475    0.00551
 C   -3.49811   -0.41204   -1.19003
 H   -3.88710   -2.18525   -0.11163
 H   -2.55423    0.12155   -1.33054
 H   -4.33017    0.30278   -1.17475
 H   -3.63081   -1.07704   -2.04898
Sr   -3.85724    6.61437    0.55022
