28
Energy: -106870.4212682  eV PBE+vdW (tier 2 basis)
 C    0.26982    1.02874    0.05852
 C   -0.01176    0.61217    1.48335
 O    0.39482    1.26701    2.44302
 H   -0.59896    1.58923   -0.31730
 H    0.43180    0.14638   -0.57541
 H    1.14590    1.68236    0.03495
 N   -0.75720   -0.52645    1.69585
 C   -1.39734   -0.75830    2.99516
 C   -0.36487   -1.16615    4.07206
 O   -0.69354   -1.11711    5.28762
 H   -1.20862   -0.93411    0.87869
 H   -1.81548    0.19238    3.35699
 C   -2.55575   -1.78755    2.86993
 C   -2.24098   -3.26633    3.19156
 C   -2.23236   -3.49003    4.67929
 O   -3.17383   -3.01337    5.40670
 O   -1.26003   -4.04836    5.28704
 H   -2.95197   -1.72321    1.84604
 H   -3.38016   -1.46004    3.51407
 H   -3.04328   -3.89453    2.77369
 H   -1.29840   -3.62276    2.75440
 N    0.81615   -1.61543    3.67080
 C    1.85041   -2.12603    4.56052
 H    0.97307   -1.64978    2.66526
 H    2.79424   -2.17861    4.01076
 H    1.96850   -1.45428    5.41890
 H    1.59129   -3.13733    4.90987
Sr   -1.58346   -2.40350    7.08663
