28
Energy: -106870.2278759  eV PBE+vdW (tier 2 basis)
 C   -0.42101    1.24864    0.80656
 C    0.02433    0.04146    1.57195
 O    1.18689   -0.28927    1.72769
 H   -0.72723    0.95647   -0.20929
 H   -1.26214    1.75811    1.29545
 H    0.42579    1.93556    0.71368
 N   -0.94324   -0.81094    2.15889
 C   -2.28356   -1.00250    1.70770
 C   -3.32648   -0.54873    2.85162
 O   -4.50856   -0.81490    2.66360
 H   -0.50166   -1.59426    2.64999
 H   -2.49664   -0.30178    0.88718
 C   -2.56866   -2.46367    1.28516
 C   -3.85140   -2.62832    0.47141
 C   -4.19858   -4.06341    0.12843
 O   -3.68877   -5.04411    0.77952
 O   -5.04285   -4.27203   -0.81449
 H   -1.70540   -2.78440    0.68343
 H   -2.59288   -3.11458    2.17121
 H   -3.82638   -2.05759   -0.46751
 H   -4.72606   -2.24538    1.02712
 N   -2.82606    0.09739    3.90187
 C   -3.65267    0.65671    4.97480
 H   -1.82819    0.29514    3.88478
 H   -4.49456   -0.01384    5.17402
 H   -4.03797    1.64641    4.69754
 H   -3.03166    0.74998    5.87132
Sr   -4.96263   -6.56255   -0.47861
