28
Energy: -106870.6628644  eV PBE+vdW (tier 2 basis)
 C   -3.31565   -1.15476    1.83143
 C   -1.92811   -0.71029    1.49300
 O   -1.21182   -1.26340    0.65891
 H   -4.00435   -0.57950    1.19003
 H   -3.57413   -0.95616    2.87809
 H   -3.44197   -2.21564    1.59464
 N   -1.41802    0.40671    2.15008
 C   -0.10985    0.89011    1.82382
 C    1.01411    0.11551    2.62278
 O    1.13561    0.23525    3.86459
 H   -1.82604    0.72168    3.04514
 H    0.05732    0.58583    0.77470
 C    0.02749    2.42840    1.94765
 C   -0.87566    3.18267    2.93696
 C   -0.64471    2.63019    4.34080
 O    0.31274    3.08956    5.02870
 O   -1.33428    1.60867    4.70547
 H   -0.22806    2.81391    0.94509
 H    1.07994    2.68724    2.12150
 H   -1.93988    3.07450    2.68802
 H   -0.60946    4.24523    2.91549
 N    1.79204   -0.65854    1.88115
 C    2.87008   -1.50101    2.40239
 H    1.57245   -0.74142    0.89081
 H    3.60876   -1.64615    1.60793
 H    3.34182   -1.00467    3.25606
 H    2.48124   -2.48018    2.71186
Sr    0.54442    0.99027    6.09790
