28
Energy: -106870.6450846  eV PBE+vdW (tier 2 basis)
 C    0.28065    0.39181    0.67875
 C   -0.10844    0.62568    2.10132
 O    0.73245    0.99651    2.96760
 H    1.08572   -0.35497    0.64314
 H    0.68575    1.32351    0.25970
 H   -0.55018    0.05220    0.05221
 N   -1.39570    0.42569    2.44378
 C   -1.95275    0.58473    3.77163
 C   -3.21805   -0.28850    3.78725
 O   -3.77180   -0.58732    2.73076
 H   -2.05511    0.08631    1.73717
 H   -1.20356    0.25000    4.50315
 C   -2.35855    2.08083    4.09761
 C   -1.90094    2.59852    5.47409
 C   -0.41051    2.48886    5.60619
 O    0.12930    1.41426    6.04853
 O    0.35889    3.40687    5.16813
 H   -3.44533    2.20468    4.01051
 H   -1.91512    2.70348    3.31055
 H   -2.38474    2.06987    6.30633
 H   -2.19034    3.65830    5.54630
 N   -3.75606   -0.70631    4.97422
 C   -3.16733   -0.75956    6.29151
 H   -4.62539   -1.23150    4.83660
 H   -3.82105   -0.21961    7.00047
 H   -2.16728   -0.32036    6.31217
 H   -3.12139   -1.80265    6.64338
Sr    2.11085    1.84066    4.65093
