28
Energy: -106870.5677398  eV PBE+vdW (tier 2 basis)
 C   -1.14797    1.00770   -1.70897
 C   -0.87592   -0.16759   -0.83258
 O   -0.42437   -1.25003   -1.29392
 H   -2.20124    0.99058   -2.03017
 H   -0.52440    0.93615   -2.60555
 H   -0.95758    1.96481   -1.20954
 N   -1.13595   -0.11513    0.49762
 C   -2.05534    0.76281    1.18945
 C   -1.70061    0.64455    2.69026
 O   -1.18192   -0.39123    3.10313
 H   -0.82359   -0.91740    1.05544
 H   -1.93963    1.79086    0.82558
 C   -3.55418    0.32309    1.00583
 C   -3.83600   -1.16412    1.27229
 C   -3.22847   -2.08190    0.23945
 O   -2.48877   -3.06788    0.57937
 O   -3.40094   -1.87948   -1.01165
 H   -3.83089    0.57979   -0.02782
 H   -4.18663    0.93721    1.66065
 H   -4.92739   -1.31061    1.23181
 H   -3.51084   -1.48895    2.26975
 N   -2.00531    1.66565    3.53952
 C   -2.38927    3.02921    3.23651
 H   -1.70128    1.47743    4.49943
 H   -1.50515    3.68789    3.17560
 H   -3.01033    3.40141    4.06342
 H   -2.95373    3.09299    2.30201
Sr   -1.50728   -3.33377   -1.63091
