28
Energy: -106870.3645302  eV PBE+vdW (tier 2 basis)
 C   -0.45935   -0.48694    0.22138
 C   -0.69126   -1.06112    1.59594
 O   -0.07004   -2.04386    2.00246
 H   -0.17101   -1.29168   -0.46214
 H    0.37451    0.22830    0.27644
 H   -1.35610    0.02634   -0.14961
 N   -1.61361   -0.44072    2.40957
 C   -1.71934   -0.77915    3.82846
 C   -3.22446   -0.92114    4.15568
 O   -3.82557   -0.14109    4.94493
 H   -1.95906    0.46834    2.10429
 H   -1.26680   -1.77988    3.92271
 C   -0.89818    0.19512    4.70177
 C   -0.62795   -0.23875    6.15962
 C   -1.79484    0.04553    7.04887
 O   -2.17251    1.25029    7.27149
 O   -2.53533   -0.87986    7.52369
 H   -1.34450    1.19914    4.68120
 H    0.07837    0.27232    4.20544
 H    0.22553    0.34827    6.53303
 H   -0.35181   -1.30017    6.23216
 N   -3.89105   -1.91816    3.56489
 C   -3.41691   -2.96944    2.66506
 H   -4.88337   -1.94910    3.79899
 H   -2.36075   -3.20050    2.83826
 H   -4.00601   -3.87275    2.85252
 H   -3.55310   -2.67057    1.61701
Sr   -4.45511    0.57835    7.13061
