28
Energy: -106870.5643478  eV PBE+vdW (tier 2 basis)
 C   -2.75329   -1.01914   -0.56954
 C   -1.61563   -0.43572    0.21309
 O   -0.42944   -0.60969   -0.09786
 H   -2.44151   -1.95654   -1.04117
 H   -3.00055   -0.30426   -1.37070
 H   -3.64482   -1.18046    0.04784
 N   -1.89683    0.34032    1.31132
 C   -0.84360    1.00527    2.05244
 C   -0.09948   -0.01772    2.98476
 O   -0.49523   -0.25874    4.15365
 H   -2.85074    0.36373    1.66813
 H   -0.08578    1.29141    1.29851
 C   -1.39674    2.25944    2.74253
 C   -0.35796    3.12688    3.48373
 C   -0.05952    2.55870    4.83875
 O    1.07597    2.05984    5.13507
 O   -0.99736    2.44212    5.70749
 H   -2.21456    2.00027    3.43267
 H   -1.84231    2.86946    1.94486
 H   -0.79984    4.12475    3.62874
 H    0.57194    3.25817    2.91467
 N    0.93873   -0.61957    2.41350
 C    1.70093   -1.72628    2.98024
 H    1.12639   -0.38101    1.43819
 H    2.71443   -1.38598    3.23460
 H    1.19284   -2.11159    3.86812
 H    1.78178   -2.52954    2.23821
Sr   -0.11682    0.37789    6.45516
