28
Energy: -106870.2273230  eV PBE+vdW (tier 2 basis)
 C   -0.13837   -0.76238    0.56322
 C   -0.19112    0.08758    1.80023
 O    0.72384    0.84423    2.10779
 H    0.87117   -1.18416    0.48353
 H   -0.28406   -0.12093   -0.31721
 H   -0.87978   -1.56707    0.55945
 N   -1.28115    0.05678    2.67780
 C   -2.67574   -0.23562    2.35974
 C   -2.99717   -1.75436    2.53249
 O   -4.13846   -2.19262    2.23280
 H   -1.13181    0.69066    3.46665
 H   -3.25766    0.24825    3.16104
 C   -3.17365    0.35414    0.99512
 C   -4.47237    1.18402    1.08289
 C   -5.63097    0.31908    1.46427
 O   -6.22847   -0.40220    0.59247
 O   -5.96354    0.15956    2.68735
 H   -3.29076   -0.44535    0.25312
 H   -2.39561    1.02925    0.62108
 H   -4.37411    2.01171    1.79968
 H   -4.66470    1.61714    0.08924
 N   -2.05301   -2.52730    3.04730
 C   -2.20261   -3.95499    3.32970
 H   -1.18827   -2.06578    3.32324
 H   -1.20622   -4.40002    3.40575
 H   -2.73177   -4.11041    4.27928
 H   -2.75328   -4.43979    2.51728
Sr   -6.52886   -2.15985    2.17340
