28
Energy: -106869.9098557  eV PBE+vdW (tier 2 basis)
 C   -0.39059    0.05912   -0.06644
 C    0.13232    0.22425    1.31823
 O    1.34848    0.02315    1.58662
 H   -0.33781   -1.01820   -0.29440
 H    0.26595    0.55871   -0.78897
 H   -1.43166    0.36505   -0.20346
 N   -0.68147    0.52409    2.36395
 C   -1.93819    1.23813    2.53277
 C   -2.53755    2.00337    1.35485
 O   -3.66612    1.65497    1.00498
 H   -0.23607    0.34046    3.27150
 H   -2.73392    0.49886    2.75654
 C   -1.83354    2.11745    3.82851
 C   -0.66732    3.12269    3.91582
 C    0.70710    2.50688    3.77316
 O    1.55854    2.98188    2.94894
 O    1.02594    1.46285    4.45049
 H   -1.77178    1.40090    4.66176
 H   -2.78441    2.65025    3.95874
 H   -0.77116    3.95068    3.20685
 H   -0.71041    3.57048    4.92222
 N   -2.01176    3.13149    0.76902
 C   -0.63779    3.46330    0.46504
 H   -2.72287    3.62244    0.21572
 H   -0.57170    4.54914    0.31935
 H   -0.31228    2.99251   -0.48020
 H    0.04887    3.14922    1.26247
Sr    2.97354    0.98486    3.06166
