28
Energy: -106870.5199577  eV PBE+vdW (tier 2 basis)
 C    0.14378   -1.88414    0.20554
 C    0.07431   -1.18917    1.53513
 O    1.03248   -0.65132    2.08530
 H    1.15108   -2.28338    0.05313
 H   -0.04454   -1.14457   -0.58773
 H   -0.60771   -2.67907    0.11701
 N   -1.16875   -1.11875    2.15567
 C   -1.39840   -0.18664    3.24074
 C   -0.36209   -0.41442    4.38385
 O   -0.08194   -1.56192    4.81914
 H   -1.98502   -1.44181    1.63750
 H   -1.18739    0.82776    2.85553
 C   -2.88127   -0.19297    3.68133
 C   -3.34329   -1.22068    4.73660
 C   -2.75835   -2.59366    4.63687
 O   -2.61806   -3.30924    5.68006
 O   -2.26594   -3.06316    3.54373
 H   -3.48574   -0.29137    2.76784
 H   -3.11755    0.80218    4.07822
 H   -3.12924   -0.86561    5.75448
 H   -4.44029   -1.31355    4.68561
 N    0.14599    0.68632    4.92559
 C    1.06755    0.69347    6.05889
 H   -0.10637    1.58202    4.51518
 H    0.54581    0.42420    6.98700
 H    1.87903   -0.02215    5.88087
 H    1.48170    1.69961    6.16282
Sr   -0.42179   -3.90297    4.94211
