28
Energy: -106870.7795498  eV PBE+vdW (tier 2 basis)
 C   -0.84973   -0.22776   -0.11047
 C   -0.25867    0.10473    1.22591
 O    0.96144    0.36763    1.33330
 H   -0.26971   -1.04496   -0.55918
 H   -0.74786    0.64214   -0.77417
 H   -1.90477   -0.51767   -0.05984
 N   -1.09824    0.11801    2.28898
 C   -0.85781    0.40196    3.70632
 C   -0.19595    1.78113    3.97297
 O    0.78410    2.19888    3.30668
 H   -2.07259   -0.05383    2.05423
 H   -1.87110    0.50859    4.11307
 C   -0.22026   -0.75665    4.54675
 C    0.92947   -1.60707    3.98249
 C    2.19895   -0.84643    3.77599
 O    2.46606    0.21804    4.43869
 O    3.03267   -1.12662    2.86180
 H    0.06804   -0.33965    5.52151
 H   -1.04459   -1.45729    4.74818
 H    1.13963   -2.41619    4.70214
 H    0.66565   -2.11227    3.04378
 N   -0.70349    2.51893    4.95891
 C   -1.86135    2.24967    5.81843
 H   -0.21393    3.40047    5.11283
 H   -2.78631    2.16993    5.23170
 H   -1.97104    3.09698    6.50130
 H   -1.71519    1.34371    6.41936
Sr    2.88254    1.38457    2.31437
