28
Energy: -106869.7178488  eV PBE+vdW (tier 2 basis)
 C    0.16531    0.19944    0.14013
 C    0.03511    0.34493    1.62898
 O    0.88748    0.88949    2.33419
 H   -0.41972    1.00414   -0.33268
 H   -0.21973   -0.76094   -0.22387
 H    1.21221    0.32006   -0.15091
 N   -1.11928   -0.14715    2.20354
 C   -1.48247   -0.02072    3.58764
 C   -1.54940    1.50836    4.02181
 O   -2.56630    2.05306    3.59171
 H   -1.78857   -0.60417    1.58787
 H   -2.55062   -0.27632    3.61345
 C   -0.81040   -1.00124    4.61880
 C    0.60312   -1.47952    4.30000
 C    1.23697   -2.25945    5.43863
 O    1.97816   -3.26455    5.15355
 O    1.05907   -1.90324    6.65910
 H   -1.48048   -1.87247    4.64920
 H   -0.86107   -0.55036    5.61727
 H    1.29114   -0.64244    4.09519
 H    0.62786   -2.11305    3.40477
 N   -0.70615    2.15205    4.85175
 C    0.65578    1.83615    5.25657
 H   -1.01145    3.11251    5.01463
 H    0.67649    1.00857    5.97805
 H    1.07230    2.72798    5.73315
 H    1.27031    1.58641    4.38210
Sr    2.42084   -3.66946    7.40118
