28
Energy: -106870.3455184  eV PBE+vdW (tier 2 basis)
 C    0.55769    0.07054    0.20601
 C   -0.15850    0.98056    1.15912
 O   -0.05570    2.23253    1.09211
 H    0.07688   -0.90812    0.09173
 H    1.57351   -0.11349    0.59180
 H    0.62924    0.54549   -0.77869
 N   -0.89998    0.36751    2.12257
 C   -1.66177    0.89230    3.24102
 C   -3.12420    1.30634    2.77246
 O   -4.05951    0.93600    3.46401
 H   -0.93728   -0.64735    2.03949
 H   -1.84394    0.02721    3.88935
 C   -1.09409    2.03646    4.11117
 C    0.32312    1.79109    4.67831
 C    1.35932    2.32942    3.73445
 O    2.03541    1.56997    2.96110
 O    1.48487    3.59812    3.60085
 H   -1.80059    2.11873    4.94809
 H   -1.12193    2.99795    3.58427
 H    0.51671    0.73433    4.90437
 H    0.40222    2.35498    5.62008
 N   -3.24171    2.05464    1.65368
 C   -4.52107    2.62012    1.24191
 H   -2.38722    2.43763    1.25035
 H   -4.48362    2.81469    0.16431
 H   -4.73391    3.56632    1.76395
 H   -5.31857    1.90817    1.48756
Sr    2.11544    3.41804    1.34939
