28
Energy: -106870.0142542  eV PBE+vdW (tier 2 basis)
 C   -0.46856    1.78606   -0.66393
 C    0.31233    0.86691    0.22941
 O    1.45431    0.50575   -0.03957
 H    0.18923    2.15520   -1.45603
 H   -0.88959    2.63578   -0.11381
 H   -1.29151    1.21730   -1.12233
 N   -0.23716    0.34019    1.39588
 C   -1.22605    0.96239    2.27668
 C   -2.62316    0.95439    1.58924
 O   -3.29731    2.00748    1.42636
 H    0.40635   -0.31528    1.84655
 H   -1.31597    0.26753    3.12757
 C   -0.74031    2.32338    2.84971
 C   -1.34354    2.75044    4.20415
 C   -2.74664    3.24651    4.05314
 O   -3.75436    2.49927    4.29351
 O   -2.97628    4.39933    3.54517
 H   -0.87509    3.12207    2.10900
 H    0.34096    2.21180    3.00199
 H   -0.72814    3.57772    4.59052
 H   -1.31063    1.93842    4.94428
 N   -3.10353   -0.22364    1.18780
 C   -2.55170   -1.57487    1.33392
 H   -4.01233   -0.16530    0.72964
 H   -1.89027   -1.82628    0.49640
 H   -3.38870   -2.27986    1.34786
 H   -2.00717   -1.68168    2.27838
Sr   -4.87437    3.54679    2.40275
