28
Energy: -106870.4605768  eV PBE+vdW (tier 2 basis)
 C   -0.21041    0.73335    0.42851
 C   -0.90934   -0.57635    0.52897
 O   -0.38319   -1.65688    0.18057
 H    0.86413    0.57138    0.57089
 H   -0.57535    1.47601    1.14679
 H   -0.33900    1.14249   -0.58749
 N   -2.20494   -0.64026    1.00376
 C   -3.20580    0.36198    0.82895
 C   -3.63761    1.09103    2.21591
 O   -3.63688    2.31111    2.10799
 H   -2.56502   -1.60201    1.08018
 H   -2.80133    1.19367    0.24371
 C   -4.48170   -0.19950    0.15591
 C   -4.19424   -0.71204   -1.27463
 C   -3.26560   -1.90219   -1.37386
 O   -2.52740   -2.04171   -2.39927
 O   -3.17595   -2.75716   -0.41296
 H   -4.92360   -0.99995    0.76250
 H   -5.21932    0.61131    0.10120
 H   -3.80817    0.08578   -1.92256
 H   -5.15823   -1.02108   -1.71430
 N   -3.97269    0.39815    3.30289
 C   -3.92870   -1.04221    3.55178
 H   -4.21599    0.99171    4.09688
 H   -2.90281   -1.39032    3.72905
 H   -4.39631   -1.61131    2.74083
 H   -4.51388   -1.23384    4.45730
Sr   -1.00864   -3.50615   -1.28053
