28
Energy: -106870.3753514  eV PBE+vdW (tier 2 basis)
 C    0.40402   -0.29358   -0.02641
 C    0.43692   -0.34859    1.47985
 O    1.42012   -0.78681    2.09158
 H    1.41483   -0.11712   -0.40680
 H    0.06248   -1.26862   -0.40334
 H   -0.27870    0.48885   -0.38198
 N   -0.65463    0.09114    2.16939
 C   -0.84038   -0.16642    3.60219
 C    0.46891    0.12196    4.37216
 O    0.97876   -0.71212    5.16614
 H   -1.48238    0.33692    1.63026
 H   -1.56378    0.59254    3.95001
 C   -1.47071   -1.56137    3.81531
 C   -2.12693   -1.82763    5.19140
 C   -1.13634   -2.36109    6.17419
 O   -0.41270   -3.38228    5.89133
 O   -0.87677   -1.78572    7.28188
 H   -0.73438   -2.34333    3.58344
 H   -2.26042   -1.65092    3.05704
 H   -2.90242   -2.59852    5.06346
 H   -2.62124   -0.93864    5.60544
 N    1.02128    1.34027    4.26161
 C    0.59697    2.51121    3.50389
 H    1.88409    1.44472    4.79541
 H   -0.48775    2.52416    3.36324
 H    1.08895    2.53954    2.52069
 H    0.89103    3.40644    4.06243
Sr    1.48552   -2.27794    6.85131
