28
Energy: -106870.4730694  eV PBE+vdW (tier 2 basis)
 C   -2.99682   -1.73395    0.49698
 C   -1.77357   -1.04677    1.04811
 O   -0.68655   -1.63789    1.13448
 H   -2.96992   -1.65889   -0.60010
 H   -3.91559   -1.26525    0.87186
 H   -2.97143   -2.79436    0.76654
 N   -1.86309    0.25321    1.43715
 C   -0.67074    1.03165    1.74944
 C    0.25480    0.23620    2.70933
 O   -0.08777   -0.04981    3.88363
 H   -2.73161    0.75442    1.26126
 H   -0.09081    1.18941    0.82300
 C   -1.09758    2.41060    2.29845
 C    0.01887    3.23816    2.97930
 C    0.19580    2.80340    4.40866
 O    1.31675    2.40744    4.87188
 O   -0.82491    2.70711    5.17822
 H   -1.92377    2.28210    3.01087
 H   -1.48963    2.98994    1.45040
 H   -0.28601    4.29539    2.99150
 H    0.97727    3.18588    2.44565
 N    1.48196   -0.01867    2.24572
 C    2.54201   -0.62941    3.02712
 H    1.68108    0.21832    1.27649
 H    2.13740   -1.45698    3.62271
 H    3.31104   -1.00915    2.34838
 H    3.00496    0.11710    3.69313
Sr    0.07787    0.72781    6.14585
