28
Energy: -106870.5544261  eV PBE+vdW (tier 2 basis)
 C   -0.47153    1.14110    0.30475
 C   -0.70965   -0.32932    0.40417
 O    0.13026   -1.16188   -0.02569
 H    0.60877    1.31919    0.33081
 H   -0.95129    1.71626    1.10396
 H   -0.84184    1.50986   -0.66497
 N   -1.86299   -0.81728    0.93745
 C   -3.13843   -0.15798    1.03714
 C   -3.77195   -0.53480    2.41976
 O   -3.50318   -1.62291    2.91119
 H   -1.88392   -1.83111    1.07725
 H   -2.98777    0.92346    0.94708
 C   -4.13534   -0.67226   -0.05229
 C   -3.62496   -0.44836   -1.48840
 C   -2.46860   -1.33294   -1.89200
 O   -1.60260   -0.92273   -2.73319
 O   -2.31334   -2.49688   -1.38010
 H   -4.32532   -1.73990    0.12553
 H   -5.09404   -0.15133    0.07359
 H   -3.35925    0.59843   -1.68555
 H   -4.45275   -0.68403   -2.17908
 N   -4.62599    0.34120    3.01572
 C   -4.90595    1.72524    2.68297
 H   -4.92218    0.02545    3.94372
 H   -5.91780    1.95942    3.04134
 H   -4.86718    1.89692    1.60361
 H   -4.21298    2.41275    3.19622
Sr    0.06148   -2.52338   -1.98389
