28
Energy: -106870.1866569  eV PBE+vdW (tier 2 basis)
 C    0.65391    0.28003    1.14395
 C   -0.26090   -0.73499    1.75119
 O    0.11453   -1.70377    2.40123
 H    1.68003   -0.09581    1.19698
 H    0.60542    1.22795    1.69988
 H    0.38145    0.46972    0.09623
 N   -1.65172   -0.61160    1.61686
 C   -2.38792    0.60692    1.43852
 C   -2.31107    1.64223    2.61669
 O   -2.29819    2.86521    2.31690
 H   -2.14940   -1.43847    1.95631
 H   -1.91908    1.16454    0.60608
 C   -3.88223    0.32365    1.09295
 C   -4.28336    0.88641   -0.29687
 C   -3.95618    2.35219   -0.32511
 O   -4.75537    3.22621    0.14391
 O   -2.78301    2.73964   -0.68929
 H   -4.54248    0.74735    1.86108
 H   -4.05878   -0.76026    1.08706
 H   -5.35821    0.73633   -0.45121
 H   -3.72688    0.37075   -1.08968
 N   -2.29845    1.24857    3.88596
 C   -2.46101   -0.08809    4.47283
 H   -2.25865    2.02364    4.54878
 H   -3.24007   -0.65770    3.95356
 H   -2.79195    0.04632    5.50718
 H   -1.51713   -0.64638    4.48164
Sr   -2.91069    4.62808    0.79604
