28
Energy: -106870.3335197  eV PBE+vdW (tier 2 basis)
 C   -0.66683   -0.62532   -0.16487
 C   -0.48091   -0.37205    1.31018
 O    0.67822   -0.37576    1.77907
 H    0.16898   -0.18826   -0.72094
 H   -1.61831   -0.21839   -0.52781
 H   -0.64404   -1.71382   -0.32370
 N   -1.57776   -0.15949    2.07088
 C   -1.62172   -0.03817    3.53133
 C   -2.03988    1.36784    4.03342
 O   -2.93223    1.39635    4.93293
 H   -2.47100   -0.23305    1.59061
 H   -2.46091   -0.66942    3.85843
 C   -0.35471   -0.62559    4.20636
 C    0.14866   -0.02298    5.49523
 C   -0.97190   -0.03629    6.57581
 O   -1.85458   -0.94565    6.55205
 O   -1.02130    0.96780    7.34533
 H   -0.47939   -1.71249    4.28479
 H    0.47269   -0.46842    3.42867
 H    0.49932    1.01043    5.39784
 H    0.98153   -0.61966    5.89819
 N   -1.51258    2.49151    3.56725
 C   -0.43020    2.69799    2.60112
 H   -1.93051    3.33546    3.95942
 H   -0.81459    2.70968    1.57340
 H    0.34688    1.93508    2.70161
 H    0.02477    3.67076    2.81140
Sr   -3.43567    0.73836    7.18447
