28
Energy: -106869.7922331  eV PBE+vdW (tier 2 basis)
 C    0.25420   -0.81778    1.19572
 C   -0.56633    0.07933    2.06139
 O   -0.10902    0.98599    2.74445
 H    1.20978   -0.99371    1.70444
 H   -0.23640   -1.77467    0.98101
 H    0.48696   -0.30749    0.24999
 N   -1.96641   -0.06846    2.17580
 C   -2.92507   -0.54186    1.21991
 C   -3.07541   -2.14238    1.45337
 O   -2.65969   -2.87717    0.56826
 H   -2.32278    0.48420    2.95959
 H   -3.89662   -0.10946    1.49983
 C   -2.62066   -0.23419   -0.25429
 C   -3.78955   -0.47554   -1.21695
 C   -4.82420    0.62034   -1.33071
 O   -4.87175    1.59861   -0.49612
 O   -5.65503    0.56509   -2.30777
 H   -1.77782   -0.84592   -0.59092
 H   -2.31080    0.81902   -0.30196
 H   -4.32674   -1.41385   -1.00334
 H   -3.39861   -0.63303   -2.23270
 N   -3.65122   -2.55286    2.58994
 C   -4.16665   -1.76630    3.70831
 H   -3.72772   -3.56718    2.66498
 H   -4.68283   -0.86224    3.36244
 H   -4.90255   -2.37658    4.24089
 H   -3.36770   -1.49526    4.41055
Sr   -6.55166    2.62419   -1.81235
