28
Energy: -106869.8117637  eV PBE+vdW (tier 2 basis)
 C    0.17504    0.32436    0.23432
 C   -0.10189    0.20602    1.69610
 O    0.70710    0.50351    2.56650
 H   -0.72172    0.35229   -0.39129
 H    0.80641    1.19958    0.04755
 H    0.76178   -0.56484   -0.04718
 N   -1.29575   -0.35468    2.19361
 C   -2.66735   -0.18553    1.76008
 C   -2.87728   -0.95007    0.39252
 O   -2.98744   -0.32239   -0.65742
 H   -1.17734   -0.60699    3.17925
 H   -3.26547   -0.72144    2.50942
 C   -3.25487    1.24997    1.72347
 C   -2.59766    2.28289    0.81620
 C   -3.33838    3.60613    0.75553
 O   -4.55543    3.70459    1.14755
 O   -2.72343    4.62451    0.27519
 H   -3.23651    1.59731    2.76757
 H   -4.31462    1.14274    1.45544
 H   -2.56525    1.92519   -0.22705
 H   -1.56188    2.51556    1.09880
 N   -2.94213   -2.29879    0.44396
 C   -3.02851   -3.18198    1.60316
 H   -3.18185   -2.71482   -0.45763
 H   -2.73756   -4.18656    1.27466
 H   -4.05462   -3.23800    1.99491
 H   -2.33584   -2.87878    2.39275
Sr   -4.60032    5.96612    0.53365
