28
Energy: -106870.4350093  eV PBE+vdW (tier 2 basis)
 C    0.07810   -0.40399    0.44334
 C   -0.26441   -0.68132    1.87328
 O    0.27352   -1.55509    2.55368
 H    1.10533   -0.01330    0.40843
 H   -0.59582    0.31778   -0.03067
 H    0.07456   -1.34443   -0.12123
 N   -1.25095    0.10054    2.47214
 C   -1.64827   -0.12430    3.82407
 C   -2.54661   -1.45225    3.94052
 O   -3.75417   -1.36189    3.79554
 H   -1.85339    0.66438    1.87307
 H   -0.73338   -0.39644    4.38438
 C   -2.39304    1.05981    4.44669
 C   -1.48184    2.27403    4.65709
 C   -2.12226    3.40656    5.43551
 O   -1.53210    4.54607    5.45078
 O   -3.21386    3.23003    6.08520
 H   -2.80575    0.73280    5.40948
 H   -3.26082    1.31984    3.82401
 H   -1.10807    2.69802    3.71415
 H   -0.57689    1.99918    5.22584
 N   -1.85001   -2.58029    4.18334
 C   -2.46137   -3.89759    4.06698
 H   -0.83156   -2.51448    4.14626
 H   -1.89777   -4.59388    4.69798
 H   -2.43618   -4.26662    3.03035
 H   -3.50775   -3.83043    4.38762
Sr   -3.14269    5.43906    6.86313
