28
Energy: -106869.9818945  eV PBE+vdW (tier 2 basis)
 C   -0.56716   -0.63305   -0.12246
 C   -0.62897    0.16453    1.14387
 O    0.11295    1.10072    1.39331
 H    0.01264   -0.07096   -0.86049
 H   -1.56561   -0.84697   -0.52264
 H   -0.05006   -1.58586    0.06447
 N   -1.54395   -0.18080    2.16197
 C   -2.12391   -1.47101    2.39307
 C   -3.63693   -1.17489    2.85900
 O   -3.90027   -1.30669    4.04760
 H   -1.42852    0.42004    2.98440
 H   -2.17765   -2.01432    1.43906
 C   -1.38131   -2.29005    3.46946
 C   -1.92277   -3.70929    3.64628
 C   -1.25161   -4.49566    4.75422
 O   -1.57906   -5.72627    4.91233
 O   -0.39201   -3.94686    5.53253
 H   -1.42282   -1.74517    4.42140
 H   -0.32542   -2.32433    3.16359
 H   -1.83282   -4.31002    2.72828
 H   -2.99489   -3.70704    3.89759
 N   -4.52238   -0.79911    1.92313
 C   -4.35054   -0.69232    0.47624
 H   -5.46685   -0.67796    2.28812
 H   -5.31959   -0.41638    0.04966
 H   -4.05366   -1.64985    0.02738
 H   -3.63284    0.09402    0.21711
Sr   -0.19590   -5.93372    6.76130
