28
Energy: -106870.1934923  eV PBE+vdW (tier 2 basis)
 C    0.08678   -0.95361   -0.25497
 C   -0.13992   -0.53477    1.15195
 O    0.84092   -0.22368    1.88331
 H    0.78467   -1.80360   -0.23270
 H    0.57869   -0.14172   -0.81180
 H   -0.82704   -1.25980   -0.77572
 N   -1.36953   -0.48595    1.75163
 C   -2.71803   -0.17433    1.29347
 C   -3.34089   -1.15333    0.25911
 O   -2.68186   -1.83879   -0.51486
 H   -1.26416   -0.33292    2.75590
 H   -3.32858   -0.29265    2.19756
 C   -2.91780    1.31261    0.82287
 C   -1.83921    1.92181   -0.07439
 C   -0.57720    2.29176    0.67267
 O    0.54516    2.36489    0.07043
 O   -0.60152    2.49291    1.93685
 H   -2.98542    1.90535    1.74965
 H   -3.89281    1.39649    0.32488
 H   -2.23479    2.86554   -0.48720
 H   -1.58688    1.31270   -0.95129
 N   -4.70576   -1.22504    0.22776
 C   -5.67724   -0.84766    1.24283
 H   -5.02950   -1.90438   -0.46615
 H   -5.43573    0.11350    1.70581
 H   -5.76712   -1.62358    2.02177
 H   -6.65540   -0.76480    0.75116
Sr    1.79270    1.96095    2.09762
