28
Energy: -106870.6929849  eV PBE+vdW (tier 2 basis)
 C   -1.31787   -0.63158   -0.73037
 C   -0.42638   -0.96753    0.41879
 O    0.81692   -1.08945    0.27497
 H   -2.20501   -0.05807   -0.44022
 H   -1.64603   -1.55877   -1.22663
 H   -0.73964   -0.05694   -1.46142
 N   -0.94056   -1.18445    1.66193
 C   -2.27264   -1.60160    2.00436
 C   -2.74034   -0.80226    3.27408
 O   -1.91849   -0.48700    4.12071
 H   -0.24478   -1.29945    2.40377
 H   -2.93876   -1.41234    1.15357
 C   -2.31313   -3.11156    2.41046
 C   -1.83901   -4.04616    1.28121
 C   -0.35578   -3.98665    0.99817
 O    0.48156   -3.68853    1.92126
 O    0.08618   -4.20200   -0.17790
 H   -3.34316   -3.37543    2.68538
 H   -1.69418   -3.24520    3.30881
 H   -2.05751   -5.08251    1.59130
 H   -2.38955   -3.89160    0.34417
 N   -4.06938   -0.54219    3.36294
 C   -4.62331    0.29471    4.41251
 H   -4.66798   -0.77556    2.57267
 H   -4.01740    0.17506    5.31882
 H   -4.61097    1.36107    4.12969
 H   -5.66726    0.00053    4.57659
Sr    2.17344   -3.05751    0.27035
