28
Energy: -106870.6527536  eV PBE+vdW (tier 2 basis)
 C   -0.83296    0.17281    0.08030
 C   -0.33860   -0.66009    1.20840
 O    0.87477   -0.90929    1.39552
 H   -1.03195   -0.46574   -0.79654
 H   -0.04798    0.88077   -0.20744
 H   -1.75577    0.71230    0.32920
 N   -1.23104   -1.21122    2.10142
 C   -2.57322   -1.62182    1.82378
 C   -3.61255   -0.59284    2.52884
 O   -3.73772    0.46746    1.92868
 H   -0.78529   -1.69300    2.89120
 H   -2.79272   -1.48234    0.75870
 C   -2.78851   -3.09345    2.23573
 C   -1.92451   -4.05238    1.37913
 C   -0.42958   -3.92522    1.58636
 O    0.04833   -3.58129    2.73038
 O    0.36393   -4.12056    0.61262
 H   -3.84374   -3.35857    2.09065
 H   -2.54258   -3.23596    3.29930
 H   -2.20151   -5.08459    1.65235
 H   -2.14399   -3.95036    0.30881
 N   -4.22294   -0.95482    3.65189
 C   -5.08682   -0.04131    4.41175
 H   -4.00670   -1.86098    4.05636
 H   -5.83254   -0.64145    4.94336
 H   -4.50231    0.53814    5.13821
 H   -5.57816    0.64474    3.71354
Sr    2.16462   -2.94096    1.67649
