28
Energy: -106870.5644131  eV PBE+vdW (tier 2 basis)
 C   -0.10300   -1.24072   -0.67923
 C   -0.38344   -0.00375    0.11544
 O   -0.97503    0.97826   -0.32895
 H   -0.07036   -1.00390   -1.74714
 H   -0.94717   -1.93029   -0.51144
 H    0.81961   -1.74074   -0.36352
 N    0.03897    0.03062    1.44208
 C   -0.23348    1.17649    2.25198
 C    0.89181    2.27785    2.15237
 O    2.09724    1.97820    2.34456
 H    0.75687   -0.63141    1.78085
 H   -1.11622    1.65102    1.78868
 C   -0.51995    0.82534    3.73779
 C    0.11701   -0.43949    4.33868
 C    1.63408   -0.37917    4.16469
 O    2.32489    0.26910    5.00235
 O    2.13109   -0.86735    3.08416
 H   -1.61206    0.67114    3.78748
 H   -0.29477    1.69608    4.36733
 H   -0.25094   -1.35304    3.85342
 H   -0.12524   -0.47931    5.40669
 N    0.50570    3.51399    1.87481
 C   -0.84795    4.03085    1.61651
 H    1.26708    4.19133    1.82593
 H   -1.27901    3.57431    0.71751
 H   -0.75952    5.10773    1.44691
 H   -1.50346    3.87685    2.48143
Sr    3.93026    0.73299    3.31161
