28
Energy: -106870.7816799  eV PBE+vdW (tier 2 basis)
 C   -0.99767   -0.11983   -0.11126
 C   -0.41265    0.15494    1.23858
 O    0.81729    0.36385    1.37740
 H   -0.86430    0.76686   -0.74677
 H   -2.06090   -0.38064   -0.08189
 H   -0.43661   -0.93904   -0.57996
 N   -1.25855    0.17918    2.29394
 C   -0.99507    0.37426    3.71957
 C   -0.20673    1.66452    4.05453
 O    0.48651    2.27926    3.21263
 H   -2.23921    0.04937    2.05748
 H   -1.99502    0.54065    4.14435
 C   -0.46118   -0.90334    4.46066
 C    0.81535   -1.58929    3.95072
 C    2.00904   -0.69612    3.85628
 O    2.10925    0.38103    4.53714
 O    2.93889   -0.87183    3.00122
 H   -0.34060   -0.64084    5.51929
 H   -1.27353   -1.64159    4.42101
 H    1.06155   -2.41264    4.64221
 H    0.67524   -2.06120    2.96829
 N   -0.30793    2.15498    5.30553
 C   -1.19177    1.80350    6.40882
 H    0.25068    2.99974    5.44186
 H   -0.60727    1.34337    7.22116
 H   -1.97820    1.10975    6.10144
 H   -1.65505    2.71766    6.80111
Sr    2.67744    1.50045    2.30163
