28
Energy: -106870.4712160  eV PBE+vdW (tier 2 basis)
 C   -0.19385   -0.74430    0.23412
 C   -0.39285   -0.72619    1.71674
 O    0.12103   -1.54049    2.48762
 H    0.88358   -0.67761    0.03095
 H   -0.71264    0.07241   -0.27969
 H   -0.53534   -1.70833   -0.16592
 N   -1.21069    0.25878    2.25580
 C   -1.45276    0.34793    3.66044
 C   -2.44424   -0.81746    4.15059
 O   -3.64214   -0.58804    4.21077
 H   -1.78493    0.81677    1.62441
 H   -0.50314    0.08551    4.16704
 C   -1.97500    1.73500    4.04887
 C   -2.13752    1.91880    5.55950
 C   -2.57166    3.30670    5.98154
 O   -2.71081    3.54238    7.23580
 O   -2.80123    4.22664    5.11742
 H   -2.93195    1.92290    3.54234
 H   -1.25629    2.46937    3.65824
 H   -1.20315    1.70615    6.10285
 H   -2.88584    1.22990    5.98095
 N   -1.83588   -1.97960    4.46059
 C   -2.58876   -3.20889    4.66369
 H   -0.83835   -2.05109    4.24585
 H   -2.00296   -3.86781    5.31442
 H   -2.77380   -3.73328    3.71344
 H   -3.55632   -2.95992    5.11580
Sr   -3.36579    5.72341    6.83375
