28
Energy: -106870.2659934  eV PBE+vdW (tier 2 basis)
 C   -0.44985    1.11704    0.09255
 C    0.24624    0.09111    0.91299
 O    1.46132   -0.17437    0.78733
 H    0.28355    1.85436   -0.25071
 H   -1.25844    1.61829    0.63770
 H   -0.88222    0.64694   -0.80640
 N   -0.44174   -0.65179    1.85753
 C   -1.79514   -1.07377    1.74599
 C   -2.66974   -0.90679    3.08015
 O   -3.81025   -0.54040    2.80757
 H    0.18331   -1.26203    2.40617
 H   -2.32175   -0.42560    1.03818
 C   -1.95589   -2.55581    1.21289
 C   -0.98728   -3.63268    1.71565
 C    0.46374   -3.33220    1.38701
 O    0.89142   -3.41845    0.19556
 O    1.23657   -2.89263    2.32339
 H   -1.84831   -2.45792    0.12170
 H   -2.99166   -2.85977    1.40938
 H   -1.26236   -4.56563    1.19776
 H   -1.09372   -3.82282    2.79173
 N   -2.22682   -1.16971    4.31150
 C   -0.87515   -1.44391    4.79749
 H   -2.92882   -0.97549    5.02740
 H   -0.96949   -1.79624    5.83041
 H   -0.25716   -0.53500    4.80836
 H   -0.38353   -2.23887    4.22743
Sr    2.87796   -2.17121    0.67108
