28
Energy: -106870.6448876  eV PBE+vdW (tier 2 basis)
 C   -0.51647    0.35140   -0.28658
 C   -0.65596    0.86405    1.10892
 O   -0.03317    1.88874    1.50550
 H   -0.83838    1.13249   -0.98953
 H   -1.09741   -0.55705   -0.47487
 H    0.54357    0.14890   -0.49237
 N   -1.47144    0.19606    1.94737
 C   -1.71868    0.53273    3.33459
 C   -2.19196   -0.77484    3.99035
 O   -2.67309   -1.67044    3.29855
 H   -1.93722   -0.65578    1.62064
 H   -0.78167    0.90568    3.77204
 C   -2.84443    1.63263    3.51356
 C   -2.49892    2.77036    4.49260
 C   -1.24183    3.46746    4.06306
 O   -0.09562    3.04734    4.45232
 O   -1.27208    4.41148    3.20600
 H   -3.78507    1.16248    3.82691
 H   -3.02978    2.05505    2.51806
 H   -2.39048    2.41878    5.52737
 H   -3.33168    3.49032    4.47637
 N   -2.11587   -0.93567    5.34723
 C   -1.34633   -0.20462    6.32602
 H   -2.51634   -1.82927    5.64986
 H   -0.62635   -0.87672    6.81978
 H   -2.02499    0.16171    7.11779
 H   -0.81542    0.64091    5.88247
Sr    0.90618    3.85027    2.35150
