28
Energy: -106870.4940189  eV PBE+vdW (tier 2 basis)
 C    0.37732    1.45929    2.41166
 C    0.27899    0.35721    1.42037
 O    1.21528    0.03959    0.65115
 H   -0.18011    1.24296    3.33125
 H   -0.02786    2.38888    1.97867
 H    1.43149    1.64028    2.64489
 N   -0.88514   -0.37026    1.27544
 C   -2.22246    0.11252    1.43344
 C   -3.11854   -1.01050    2.09967
 O   -3.83508   -0.61895    3.01109
 H   -0.77489   -1.13388    0.58653
 H   -2.24425    0.93865    2.15322
 C   -2.86640    0.62328    0.09508
 C   -2.74020   -0.26195   -1.15614
 C   -1.30327   -0.53169   -1.56023
 O   -0.74021   -1.63297   -1.17642
 O   -0.63028    0.34507   -2.17922
 H   -2.39175    1.59758   -0.09675
 H   -3.92693    0.82196    0.29906
 H   -3.27245   -1.21734   -1.04151
 H   -3.23470    0.27800   -1.97796
 N   -3.04977   -2.27846    1.65790
 C   -3.94771   -3.31913    2.16017
 H   -2.50659   -2.48354    0.82115
 H   -3.45766   -4.28962    2.02800
 H   -4.90241   -3.32396    1.61380
 H   -4.15457   -3.12518    3.21946
Sr    1.47089   -0.68070   -1.67698
