28
Energy: -106870.5142833  eV PBE+vdW (tier 2 basis)
 C   -0.21028   -0.29215   -0.78391
 C   -0.14622    0.23396    0.60670
 O    0.87664    0.79440    1.07043
 H    0.01829    0.52625   -1.48106
 H   -1.18285   -0.72515   -1.04015
 H    0.57313   -1.05108   -0.91999
 N   -1.25479    0.10085    1.41242
 C   -1.18457    0.64721    2.74353
 C   -0.46128   -0.37220    3.69370
 O    0.78080   -0.26331    3.80801
 H   -2.07626   -0.38694    1.05959
 H   -0.43183    1.42065    2.59343
 C   -2.36577    1.42709    3.33300
 C   -1.86334    2.33879    4.49968
 C   -0.41973    2.74556    4.33021
 O    0.02188    3.32836    3.27411
 O    0.47893    2.38198    5.14803
 H   -3.19270    0.80046    3.69139
 H   -2.76765    2.05372    2.52555
 H   -1.95806    1.84709    5.47788
 H   -2.49011    3.24345    4.53735
 N   -1.17996   -1.30903    4.30282
 C   -0.63280   -2.28009    5.25219
 H   -2.18864   -1.30343    4.16705
 H   -1.17794   -3.22376    5.13864
 H    0.43104   -2.42573    5.04361
 H   -0.75490   -1.92174    6.28403
Sr    2.01299    1.77882    3.07778
