28
Energy: -106870.5467728  eV PBE+vdW (tier 2 basis)
 C   -0.18405   -0.16695   -0.53281
 C   -0.45008    0.27400    0.87964
 O    0.02718   -0.32155    1.85494
 H   -0.86670   -0.99573   -0.77376
 H    0.84049   -0.54678   -0.60234
 H   -0.33895    0.64524   -1.25351
 N   -1.27725    1.35741    1.06612
 C   -1.86946    1.76842    2.33075
 C   -0.85982    2.50157    3.27219
 O   -1.21686    3.62420    3.73227
 H   -1.68482    1.76096    0.22490
 H   -2.59719    2.54354    2.07060
 C   -2.64225    0.61572    3.06321
 C   -2.97485    0.81707    4.54759
 C   -3.49622    2.18530    4.88847
 O   -4.13979    2.89868    4.04071
 O   -3.19369    2.72219    6.00580
 H   -2.02368   -0.29106    2.99273
 H   -3.56139    0.45667    2.48584
 H   -3.74246    0.08252    4.84372
 H   -2.11396    0.61492    5.19990
 N    0.28536    1.92153    3.57098
 C    1.30829    2.48997    4.44993
 H    0.43779    0.98829    3.16518
 H    2.27546    2.05854    4.17527
 H    1.34446    3.57676    4.32811
 H    1.09727    2.24379    5.49910
Sr   -2.96985    4.83780    4.86645
