28
Energy: -106870.7638986  eV PBE+vdW (tier 2 basis)
 C    0.30556   -0.82268    0.02623
 C    0.01403   -0.11701    1.30948
 O    0.87258    0.61289    1.87721
 H    1.20042   -1.44708    0.15325
 H   -0.52175   -1.44894   -0.32242
 H    0.53897   -0.07796   -0.74774
 N   -1.20825   -0.28148    1.85543
 C   -1.66699    0.30305    3.09518
 C   -2.82089   -0.59682    3.57854
 O   -3.43128   -1.30687    2.78684
 H   -1.87991   -0.90556    1.39856
 H   -0.83003    0.31302    3.81137
 C   -2.21090    1.78262    2.92874
 C   -1.70547    2.76992    3.99623
 C   -0.20654    2.85387    3.95439
 O    0.51069    2.07071    4.66975
 O    0.38854    3.61187    3.11783
 H   -3.30800    1.78177    2.92417
 H   -1.89704    2.12546    1.93488
 H   -2.03083    2.49846    5.00965
 H   -2.12551    3.76106    3.76647
 N   -3.13931   -0.53795    4.90581
 C   -4.16936   -1.36571    5.49173
 H   -2.51380   -0.03494    5.53424
 H   -4.92501   -1.59337    4.73039
 H   -3.75628   -2.32661    5.85197
 H   -4.59481   -0.84416    6.35890
Sr    2.27815    2.13342    2.96492
