23
Energy: -24372.8810312 eV PBE+vdW (tier 2 basis)
C    -1.467293  -0.437532  -0.111550
C    -0.986031  0.575116  0.907683
O    -0.571594  1.682175  0.575684
H    -1.667107  0.100285  -1.042102
H    -0.678723  -1.179397  -0.303069
H    -2.361272  -0.991528  0.197628
N    -0.968241  0.216512  2.241324
C    -1.533443  -0.947725  2.913933
C    -1.140055  -2.295195  2.261508
O    -1.989168  -3.106131  1.897134
H    -0.705830  0.995536  2.838939
H    -1.069080  -0.956043  3.914814
C    -3.055317  -0.872612  3.117959
S    -3.572492  0.549995  4.145874
H    -3.434898  -1.805379  3.546467
H    -3.564574  -0.734619  2.156646
H    -3.263125  -0.005349  5.341232
N    0.193884  -2.559239  2.142444
C    1.334157  -1.748212  2.540248
H    0.378378  -3.454820  1.700923
H    1.558739  -0.950673  1.818074
H    2.209302  -2.402018  2.626265
H    1.171228  -1.285105  3.521848
