23
Energy: -24372.8270767 eV PBE+vdW (tier 2 basis)
C    0.209825  -0.003701  0.089759
C    0.124215  0.120494  1.601863
O    1.131465  0.258212  2.294288
H    0.754733  -0.925044  -0.152890
H    0.799835  0.835475  -0.297239
H    -0.762367  -0.024838  -0.417852
N    -1.147463  0.067834  2.107872
C    -1.595168  0.040282  3.507657
C    -2.298370  1.346851  3.963206
O    -3.429921  1.270765  4.446920
H    -1.894485  -0.041737  1.431862
H    -2.415408  -0.688891  3.544088
C    -0.538203  -0.438144  4.521206
S    -1.283686  -1.124863  6.046249
H    0.185600  0.340316  4.775680
H    0.026960  -1.275436  4.096951
H    -2.085344  -0.070191  6.330763
N    -1.662475  2.547410  3.858089
C    -0.368836  2.895090  3.293194
H    -2.252712  3.311898  4.174476
H    0.054186  3.732090  3.862180
H    -0.449454  3.198680  2.237205
H    0.334702  2.058328  3.348615
