23
Energy: -24373.3761457 eV PBE+vdW (tier 2 basis)
C    0.067990  -0.059927  0.031465
C    0.011552  0.033928  1.543444
O    1.025806  0.114314  2.238640
H    0.660598  -0.941307  -0.243423
H    0.592883  0.821041  -0.358380
H    -0.919244  -0.127374  -0.440947
N    -1.241566  0.039992  2.086766
C    -1.445837  -0.008691  3.516100
C    -2.870468  -0.565130  3.736673
O    -3.618068  -0.787838  2.780533
H    -2.075325  -0.180434  1.541320
H    -0.704232  -0.694940  3.957410
C    -1.228257  1.392229  4.142259
S    -0.962616  1.408172  5.953680
H    -2.100617  2.035932  3.967866
H    -0.357490  1.852639  3.664761
H    0.244057  0.793121  5.924940
N    -3.206817  -0.780765  5.030273
C    -4.525937  -1.233152  5.432468
H    -2.550315  -0.452251  5.740427
H    -4.441949  -2.031011  6.181118
H    -5.039293  -1.620834  4.546938
H    -5.125302  -0.412833  5.854442
