23
Energy: -24373.039616 eV PBE+vdW (tier 2 basis)
C    0.051952  0.367646  0.211305
C    0.047999  -0.084649  1.660952
O    1.080075  -0.387821  2.251719
H    1.083407  0.321804  -0.147303
H    -0.308889  1.401852  0.110387
H    -0.580266  -0.279672  -0.410524
N    -1.165095  -0.146149  2.305492
C    -2.474847  0.239971  1.830414
C    -3.131405  1.130263  2.907087
O    -3.074713  0.822766  4.094738
H    -1.110781  -0.374125  3.297313
H    -2.364011  0.798029  0.891161
C    -3.412227  -0.968360  1.594951
S    -2.884873  -2.115012  0.276190
H    -4.437709  -0.630045  1.396501
H    -3.441060  -1.574555  2.509853
H    -3.292027  -1.350122  -0.764187
N    -3.794184  2.222075  2.433529
C    -4.505675  3.147323  3.298197
H    -3.746851  2.419079  1.441311
H    -5.564238  3.218827  3.014097
H    -4.056790  4.149390  3.262860
H    -4.433747  2.762742  4.320712
