23
Energy: -24372.2655931 eV PBE+vdW (tier 2 basis)
C    1.655158  1.150517  0.737549
C    0.604668  0.927255  1.807748
O    0.147023  1.849338  2.479475
H    1.256194  1.853330  -0.004323
H    1.968765  0.232029  0.226738
H    2.531172  1.623505  1.198097
N    0.190975  -0.373051  1.957325
C    -0.742740  -0.766578  2.999982
C    -0.017726  -1.748819  3.936699
O    0.433336  -2.806194  3.487853
H    0.696004  -1.118698  1.488774
H    -1.029024  0.161356  3.506454
C    -1.992024  -1.424036  2.398010
S    -3.266348  -1.854531  3.636590
H    -1.722309  -2.321827  1.828552
H    -2.475956  -0.713737  1.716206
H    -2.637219  -2.947451  4.127349
N    0.120262  -1.392305  5.238846
C    -0.394782  -0.198148  5.899737
H    0.605771  -2.083583  5.802660
H    -1.493524  -0.194030  5.934949
H    -0.048741  0.718599  5.404309
H    -0.016935  -0.188941  6.927419
