23
Energy: -24373.1845361 eV PBE+vdW (tier 2 basis)
C    0.311301  0.998389  0.390040
C    -0.195285  0.872815  1.812891
O    -0.344444  1.855780  2.542670
H    -0.331734  1.703105  -0.150911
H    0.340828  0.045884  -0.152370
H    1.320979  1.427579  0.412649
N    -0.464773  -0.400012  2.223429
C    -1.023726  -0.720684  3.523827
C    0.070235  -1.286831  4.460307
O    0.418382  -2.471037  4.397044
H    -0.387284  -1.182897  1.576416
H    -1.416590  0.221159  3.930448
C    -2.197701  -1.707203  3.386175
S    -1.903902  -3.150266  2.294680
H    -3.048080  -1.183736  2.931150
H    -2.507521  -2.059551  4.377624
H    -0.844899  -3.603163  3.014611
N    0.650284  -0.432204  5.343236
C    0.354950  0.970174  5.613564
H    1.348839  -0.888964  5.923432
H    1.257898  1.442531  6.017466
H    -0.452012  1.085658  6.354139
H    0.085272  1.499032  4.691272
