23
Energy: -24372.7892347 eV PBE+vdW (tier 2 basis)
C    0.001857  -0.525872  0.149037
C    -0.085353  0.303337  1.416960
O    0.886303  0.873765  1.901760
H    0.517363  0.059637  -0.620821
H    -0.972335  -0.851045  -0.236849
H    0.615452  -1.412982  0.353507
N    -1.334880  0.375486  1.985639
C    -1.540946  0.973970  3.306866
C    -2.800493  0.357876  3.954346
O    -2.692635  -0.329114  4.964733
H    -2.062131  -0.230846  1.623963
H    -0.720070  0.652431  3.961686
C    -1.503544  2.513770  3.233474
S    -2.060225  3.226091  4.833615
H    -2.140600  2.880704  2.422153
H    -0.468955  2.812220  3.035403
H    -1.786464  4.508609  4.503177
N    -4.018840  0.517751  3.339318
C    -4.434317  1.511450  2.357629
H    -4.760607  0.087665  3.885814
H    -5.406390  1.209382  1.951915
H    -3.730426  1.562323  1.518842
H    -4.535050  2.516671  2.796707
