23
Energy: -24372.3330174 eV PBE+vdW (tier 2 basis)
C    -0.129674  0.353806  -0.240675
C    -0.177975  0.389237  1.273984
O    0.183597  1.371735  1.924298
H    -0.823203  1.109073  -0.632069
H    -0.392268  -0.622523  -0.665304
H    0.878826  0.633266  -0.567799
N    -0.655780  -0.739389  1.872067
C    -0.759780  -0.861994  3.303073
C    -0.791293  -2.362713  3.636388
O    -1.074068  -3.205377  2.785543
H    -0.941436  -1.559306  1.342796
H    0.133439  -0.394590  3.752838
C    -1.980135  -0.110218  3.894645
S    -3.611393  -0.583926  3.238197
H    -1.873508  0.950699  3.635083
H    -1.979521  -0.183894  4.990588
H    -3.606423  -1.866637  3.671781
N    -0.525568  -2.664930  4.936549
C    -0.553094  -4.020979  5.454203
H    -0.246627  -1.913477  5.556323
H    0.443262  -4.338798  5.791430
H    -0.877135  -4.678659  4.641316
H    -1.258241  -4.109403  6.291742
