23
Energy: -24372.8118721 eV PBE+vdW (tier 2 basis)
C    -0.721857  -0.106403  -0.237033
C    -0.396585  -0.454416  1.204021
O    0.729218  -0.813418  1.546153
H    -0.202805  0.826377  -0.494553
H    -1.793166  0.020852  -0.433812
H    -0.325346  -0.894235  -0.887343
N    -1.448336  -0.347652  2.074779
C    -1.357971  -0.462992  3.535193
C    -0.804262  0.870910  4.122133
O    -1.605645  1.807017  4.192441
H    -2.290904  0.095587  1.728320
H    -2.401057  -0.426700  3.879195
C    -0.800510  -1.823043  3.971196
S    -1.053684  -1.997436  5.784460
H    0.254108  -1.943877  3.721036
H    -1.373995  -2.599492  3.449826
H    -0.391883  -3.170681  5.901682
N    0.490731  1.034243  4.498024
C    1.628446  0.122872  4.496269
H    0.648869  1.971177  4.857361
H    1.544340  -0.633642  5.291125
H    2.529160  0.717024  4.684260
H    1.737416  -0.362620  3.519786
