23
Energy: -24373.1632115 eV PBE+vdW (tier 2 basis)
C    0.071454  -0.009560  -0.015685
C    0.040379  -0.011782  1.501213
O    1.058944  -0.082594  2.183591
H    0.793419  0.742642  -0.354001
H    -0.902815  0.189283  -0.479153
H    0.432068  -0.988028  -0.358514
N    -1.207795  0.069110  2.064336
C    -1.414812  -0.044365  3.504444
C    -2.845607  -0.546483  3.783587
O    -3.049810  -1.669424  4.235380
H    -2.024414  0.079798  1.465259
H    -0.753269  -0.840419  3.875270
C    -1.009245  1.233244  4.275903
S    -1.756456  2.812017  3.721693
H    0.080516  1.336320  4.239037
H    -1.304612  1.133003  5.328829
H    -1.163851  2.835390  2.504693
N    -3.839581  0.326895  3.449682
C    -5.236193  0.014435  3.701214
H    -3.567582  1.301624  3.295226
H    -5.867807  0.657836  3.078649
H    -5.509844  0.158108  4.757855
H    -5.422258  -1.034732  3.446901
