23
Energy: -24372.2048424 eV PBE+vdW (tier 2 basis)
C    0.863784  1.931480  1.481330
C    -0.272430  1.134036  2.086240
O    -1.187487  0.670805  1.408170
H    1.443429  2.498332  2.220377
H    0.459371  2.617125  0.729013
H    1.539683  1.233635  0.968798
N    -0.208299  0.966810  3.447785
C    -1.095457  0.057559  4.153330
C    -1.753953  0.802860  5.337292
O    -1.368685  0.633064  6.494241
H    0.621399  1.287721  3.934930
H    -1.854537  -0.227808  3.411308
C    -0.395912  -1.207905  4.669671
S    0.630822  -2.079180  3.441217
H    -1.146474  -1.889104  5.088787
H    0.287649  -0.953983  5.490174
H    -0.332743  -2.253023  2.506267
N    -2.772664  1.660855  5.042190
C    -3.228706  2.123460  3.740805
H    -3.102798  2.166120  5.860177
H    -4.297182  2.363470  3.798610
H    -3.094485  1.352451  2.975229
H    -2.683324  3.020221  3.407058
