23
Energy: -24372.301534 eV PBE+vdW (tier 2 basis)
C    0.920954  -0.467029  0.650950
C    -0.117726  -0.496061  1.753512
O    -1.134476  -1.185653  1.681491
H    1.667762  0.327211  0.771879
H    0.412527  -0.348457  -0.312479
H    1.438358  -1.435419  0.635912
N    0.171315  0.277729  2.844930
C    -0.738419  0.399022  3.957355
C    -0.864665  1.892098  4.311435
O    0.101818  2.648321  4.221337
H    0.945062  0.935524  2.827884
H    -1.699811  -0.015487  3.617191
C    -0.281204  -0.363617  5.223748
S    0.143002  -2.118949  4.968333
H    -1.051108  -0.269882  6.001584
H    0.640910  0.088819  5.614573
H    -0.981854  -2.459447  4.297081
N    -2.088787  2.273831  4.765436
C    -2.383343  3.626478  5.203017
H    -2.837833  1.592087  4.743166
H    -1.449569  4.196634  5.163923
H    -2.766709  3.632373  6.232247
H    -3.120203  4.106871  4.544495
