23
Energy: -24372.2180636 eV PBE+vdW (tier 2 basis)
C    0.017285  1.375808  0.993345
C    -1.039608  0.715727  1.856260
O    -2.201249  0.571914  1.475607
H    0.084272  0.832804  0.042707
H    1.009197  1.410078  1.460082
H    -0.303846  2.399177  0.761636
N    -0.617299  0.323869  3.099087
C    -1.444853  -0.458611  3.999825
C    -1.586649  0.217707  5.383450
O    -1.183368  -0.338880  6.405054
H    0.374988  0.341770  3.322172
H    -2.435049  -0.512319  3.518055
C    -0.911153  -1.886950  4.161747
S    0.854376  -1.957836  4.670489
H    -1.019585  -2.427741  3.216197
H    -1.483715  -2.407581  4.935818
H    1.333177  -2.382630  3.478610
N    -2.183208  1.441813  5.429145
C    -2.724524  2.245913  4.345745
H    -2.195537  1.836090  6.365147
H    -1.981697  2.951420  3.941851
H    -3.581661  2.818625  4.720205
H    -3.074293  1.616833  3.519764
