23
Energy: -24372.293188 eV PBE+vdW (tier 2 basis)
C    -3.050512  -0.253837  1.435168
C    -1.935447  0.690296  1.829652
O    -1.255222  1.279101  0.980340
H    -2.598398  -1.176893  1.047446
H    -3.631036  0.198570  0.623970
H    -3.720249  -0.516348  2.262981
N    -1.729806  0.831012  3.170530
C    -0.598073  1.503657  3.824211
C    -0.595455  3.057152  3.752175
O    -0.418487  3.704395  4.784122
H    -2.354058  0.324516  3.785764
H    -0.717969  1.297262  4.894087
C    0.765645  0.950739  3.385365
S    0.805723  -0.865722  3.668534
H    1.536137  1.430391  3.999572
H    0.954923  1.161572  2.327563
H    2.151784  -0.982491  3.652999
N    -0.750667  3.586071  2.515679
C    -0.751199  5.015617  2.276749
H    -0.867390  2.926829  1.736508
H    -1.698433  5.338610  1.822302
H    0.072887  5.303982  1.608766
H    -0.623697  5.523521  3.238518
