23
Energy: -24372.9267489 eV PBE+vdW (tier 2 basis)
C    0.241389  0.006521  -0.007275
C    0.107910  -0.003726  1.505610
O    1.084959  -0.188112  2.233735
H    -0.655047  0.353928  -0.535571
H    0.472424  -1.013203  -0.342698
H    1.091538  0.641877  -0.280309
N    -1.163240  0.201400  1.966403
C    -1.696938  0.133817  3.328956
C    -2.086952  1.508414  3.939619
O    -3.211664  1.630234  4.426272
H    -1.872964  0.320834  1.253641
H    -2.674279  -0.358308  3.237293
C    -0.892952  -0.690091  4.348978
S    -0.737461  -2.463666  3.941916
H    -1.456091  -0.656496  5.290689
H    0.105020  -0.284267  4.530081
H    0.319210  -2.307558  3.109601
N    -1.193137  2.536310  3.965334
C    0.164986  2.627964  3.455315
H    -1.595334  3.374177  4.376162
H    0.738662  3.306141  4.098576
H    0.194789  3.018801  2.425753
H    0.666182  1.654762  3.460558
