23
Energy: -24373.0701662 eV PBE+vdW (tier 2 basis)
C    0.787931  1.332753  1.160505
C    0.406229  0.014718  1.802766
O    1.218685  -0.890893  1.957937
H    1.143100  2.019487  1.941642
H    -0.027923  1.828494  0.622584
H    1.621273  1.145063  0.476916
N    -0.903758  -0.161260  2.218830
C    -1.991691  0.814779  2.311717
C    -2.476626  1.317014  0.925623
O    -2.919422  2.454044  0.769496
H    -1.016756  -1.023524  2.745274
H    -2.846271  0.256901  2.725812
C    -1.718328  1.983622  3.277880
S    -3.218528  2.691110  4.043766
H    -1.157130  2.786562  2.787842
H    -1.122174  1.609344  4.119357
H    -3.709200  3.199429  2.888263
N    -2.415518  0.385625  -0.061176
C    -2.847343  0.648401  -1.420129
H    -1.948637  -0.488017  0.157983
H    -3.568155  -0.109808  -1.753627
H    -1.996646  0.659510  -2.116586
H    -3.328186  1.631988  -1.434058
