23
Energy: -24372.24417 eV PBE+vdW (tier 2 basis)
C    0.153842  -2.053722  0.655596
C    0.180873  -1.264893  1.950325
O    1.192528  -1.171212  2.640749
H    0.490721  -3.077407  0.858962
H    0.872995  -1.605989  -0.041796
H    -0.832383  -2.088093  0.176497
N    -1.005822  -0.667345  2.297311
C    -1.148082  0.174694  3.480438
C    -2.333536  -0.351905  4.314381
O    -3.443979  0.180620  4.254738
H    -1.808328  -0.770275  1.685992
H    -0.202609  0.074420  4.028613
C    -1.340816  1.644558  3.097413
S    -1.260735  2.791084  4.515059
H    -2.290414  1.790464  2.568928
H    -0.519011  1.942885  2.434585
H    -2.472779  2.462116  5.019034
N    -2.108250  -1.445944  5.093996
C    -0.925406  -2.289003  5.161196
H    -2.950276  -1.779275  5.555373
H    -0.848059  -2.720499  6.166138
H    -0.015877  -1.710835  4.970202
H    -0.959597  -3.109446  4.427271
