23
Energy: -24372.8714413 eV PBE+vdW (tier 2 basis)
C    -0.076378  -0.005036  -0.089922
C    -0.095814  0.253157  1.405979
O    0.806948  0.876539  1.963582
H    0.878926  -0.475348  -0.351668
H    -0.119457  0.960792  -0.609332
H    -0.897981  -0.637544  -0.446949
N    -1.172087  -0.272820  2.068582
C    -1.504928  -0.078471  3.486981
C    -2.285250  1.257496  3.671381
O    -3.500932  1.214638  3.461801
H    -1.916176  -0.660858  1.500929
H    -2.304471  -0.806397  3.679780
C    -0.345735  -0.449597  4.420700
S    -0.774051  -0.309559  6.189903
H    0.529012  0.190167  4.282117
H    -0.030460  -1.476060  4.193679
H    -1.822372  -1.167401  6.175698
N    -1.673567  2.433214  3.971240
C    -0.295008  2.746413  4.321023
H    -2.352904  3.184051  4.055676
H    -0.157981  3.827892  4.210532
H    0.401723  2.249561  3.637430
H    -0.063465  2.476819  5.363425
