23
Energy: -24372.3087832 eV PBE+vdW (tier 2 basis)
C    1.291824  -0.328589  0.922041
C    0.077191  -0.372044  1.829116
O    -1.009672  -0.797194  1.451068
H    1.422240  -1.313303  0.458353
H    2.217337  -0.045534  1.437942
H    1.099970  0.390587  0.115010
N    0.294605  0.084155  3.110943
C    -0.802678  0.317709  4.027980
C    -0.890765  1.829684  4.310710
O    0.125435  2.514503  4.425262
H    1.125756  0.642697  3.290978
H    -1.707451  -0.056407  3.527648
C    -0.602798  -0.420530  5.366024
S    -0.703756  -2.236530  5.247306
H    -1.402829  -0.142512  6.065597
H    0.350445  -0.119466  5.820596
H    0.256564  -2.367412  4.302394
N    -2.154468  2.307799  4.467169
C    -2.441836  3.693645  4.789937
H    -2.925425  1.678493  4.276653
H    -3.050501  3.767311  5.701228
H    -2.970196  4.193438  3.966223
H    -1.484989  4.199501  4.954821
