23
Energy: -24372.2444538 eV PBE+vdW (tier 2 basis)
C    -1.786800  -0.424182  -0.289269
C    -1.032528  0.275508  0.825857
O    -0.408260  1.318256  0.649431
H    -1.058557  -0.803456  -1.018009
H    -2.416073  0.309426  -0.806120
H    -2.410102  -1.259621  0.052988
N    -1.090580  -0.338533  2.051130
C    -0.313029  0.136832  3.190978
C    -0.062809  -1.028647  4.168777
O    1.060221  -1.499005  4.324800
H    -1.577085  -1.222243  2.142198
H    0.682720  0.420506  2.821067
C    -0.901987  1.413816  3.834900
S    -2.660466  1.355706  4.341900
H    -0.770550  2.250911  3.140902
H    -0.348587  1.646712  4.754414
H    -3.171558  1.239829  3.094313
N    -1.177795  -1.508334  4.792827
C    -1.094066  -2.572996  5.778079
H    -2.012371  -0.916116  4.770338
H    -0.365386  -3.317886  5.440356
H    -2.076743  -3.046080  5.884087
H    -0.766609  -2.203403  6.762057
