23
Energy: -24372.3551218 eV PBE+vdW (tier 2 basis)
C    -1.007316  -0.030433  -0.400567
C    -0.369279  0.269255  0.942406
O    0.740862  0.780463  1.043139
H    -1.960305  -0.569047  -0.327381
H    -0.305454  -0.619264  -1.003174
H    -1.173154  0.917183  -0.928952
N    -1.118798  -0.097500  2.039758
C    -0.750132  0.278959  3.390897
C    -0.515815  -0.920531  4.340069
O    -0.488849  -0.757390  5.558111
H    -2.090088  -0.369505  1.904528
H    0.228140  0.781288  3.297225
C    -1.736679  1.272074  4.017616
S    -3.489734  0.726744  3.965917
H    -1.659649  2.253407  3.538683
H    -1.490054  1.375199  5.080035
H    -3.814974  1.332189  2.801194
N    -0.303925  -2.111112  3.723643
C    0.022496  -3.323452  4.446899
H    -0.339729  -2.118163  2.710528
H    -0.703239  -4.119783  4.231916
H    -0.010107  -3.090059  5.516505
H    1.029782  -3.681520  4.191007
