23
Energy: -24373.0839171 eV PBE+vdW (tier 2 basis)
C    0.377355  -0.208840  0.074606
C    0.192629  -0.250593  1.578650
O    1.137702  -0.392574  2.357208
H    0.981810  -1.070845  -0.230808
H    0.940745  0.696846  -0.185167
H    -0.566978  -0.208773  -0.482849
N    -1.090983  -0.102372  2.014578
C    -1.431987  -0.157184  3.415930
C    -2.912015  -0.578635  3.495836
O    -3.638724  -0.499150  2.503926
H    -1.885235  -0.061472  1.379363
H    -0.786593  -0.915429  3.889740
C    -1.139815  1.168843  4.152238
S    -2.272552  2.508897  3.601182
H    -0.103639  1.443992  3.927700
H    -1.238622  1.029622  5.235163
H    -1.600615  3.500257  4.228890
N    -3.386296  -1.033571  4.687156
C    -2.691828  -1.192939  5.952559
H    -4.385329  -1.216052  4.669072
H    -3.161079  -2.007738  6.516398
H    -2.725146  -0.281673  6.569710
H    -1.643270  -1.467831  5.790334
