23
Energy: -24372.5516811 eV PBE+vdW (tier 2 basis)
C    -0.072817  -0.185294  0.009826
C    -0.033391  -0.126207  1.525488
O    1.027682  -0.110672  2.142025
H    -0.699460  0.604391  -0.425959
H    -0.457366  -1.155117  -0.333327
H    0.950754  -0.062272  -0.353110
N    -1.226764  -0.104765  2.208448
C    -2.599390  -0.088502  1.723793
C    -2.872653  -1.301756  0.777341
O    -2.672836  -2.423359  1.233016
H    -1.097055  -0.087249  3.214538
H    -3.205485  -0.387022  2.592606
C    -3.079776  1.321741  1.333754
S    -3.041618  2.505885  2.734332
H    -4.098169  1.302413  0.929786
H    -2.427734  1.780270  0.581097
H    -4.155648  2.042373  3.348817
N    -3.384481  -1.163577  -0.486239
C    -3.559150  -0.020725  -1.370553
H    -3.551010  -2.078183  -0.896322
H    -3.686704  -0.403915  -2.388766
H    -2.681629  0.636716  -1.379977
H    -4.448145  0.577834  -1.126281
