23
Energy: -24372.9705193 eV PBE+vdW (tier 2 basis)
C    -0.174779  -0.084697  0.032852
C    -0.056353  -0.054039  1.542588
O    1.029070  0.012069  2.110502
H    -0.321589  0.939542  -0.338108
H    -1.004748  -0.695579  -0.340347
H    0.770541  -0.457534  -0.371482
N    -1.219635  -0.100289  2.292638
C    -2.614972  -0.023636  1.856773
C    -3.048029  -1.239761  0.991344
O    -3.807107  -1.112585  0.035529
H    -1.036066  0.049369  3.280990
H    -3.208309  -0.102537  2.780173
C    -3.004591  1.301800  1.173596
S    -4.763665  1.759167  1.394029
H    -2.868278  1.228761  0.089264
H    -2.373411  2.113023  1.551782
H    -4.597150  2.415317  2.566816
N    -2.547767  -2.431446  1.415866
C    -2.837914  -3.685605  0.748192
H    -1.841483  -2.405147  2.143299
H    -3.175396  -4.440851  1.470033
H    -1.957859  -4.073061  0.214295
H    -3.636353  -3.500141  0.022206
