23
Energy: -24372.3295025 eV PBE+vdW (tier 2 basis)
C    -2.873025  0.095432  0.534987
C    -1.717190  0.812467  1.208231
O    -1.708052  2.026690  1.385419
H    -3.653366  0.832424  0.329604
H    -3.284471  -0.704148  1.166653
H    -2.559228  -0.361384  -0.414641
N    -0.662472  0.033602  1.633986
C    -0.494226  -1.400289  1.512848
C    -1.031045  -2.235917  2.704349
O    -0.946840  -3.462674  2.680026
H    0.112759  0.545951  2.056393
H    -1.060891  -1.760100  0.640728
C    0.976954  -1.766491  1.258029
S    2.152751  -1.113748  2.498746
H    1.308338  -1.331943  0.306598
H    1.070502  -2.855667  1.199939
H    1.754331  -1.910403  3.518387
N    -1.574822  -1.519295  3.718707
C    -2.128920  -2.134060  4.908816
H    -1.559765  -0.508623  3.628692
H    -1.579517  -1.822665  5.807984
H    -2.040730  -3.219816  4.794571
H    -3.188075  -1.870346  5.032947
