23
Energy: -24372.954925 eV PBE+vdW (tier 2 basis)
C    0.528936  -1.134330  0.298137
C    0.216855  -0.328634  1.546952
O    1.003296  -0.269118  2.488765
H    1.548215  -0.897705  -0.027063
H    -0.165861  -0.957559  -0.532215
H    0.505802  -2.201407  0.556125
N    -0.992248  0.320081  1.528174
C    -1.617724  0.977181  2.683607
C    -3.031190  1.441596  2.291039
O    -3.995238  1.254836  3.022812
H    -1.621857  0.069368  0.773182
H    -1.753329  0.261416  3.505617
C    -0.814759  2.201640  3.216083
S    0.142704  1.931330  4.741796
H    -1.516071  3.002199  3.485622
H    -0.163200  2.586902  2.420647
H    0.906452  0.941210  4.211085
N    -3.108155  2.098648  1.089754
C    -4.337223  2.713966  0.620629
H    -2.241006  2.322317  0.612933
H    -5.161676  2.300653  1.210501
H    -4.501314  2.489974  -0.441032
H    -4.323836  3.805334  0.757817
