23
Energy: -24372.7314835 eV PBE+vdW (tier 2 basis)
C    0.539055  -0.469541  0.520451
C    0.047415  0.399566  1.664430
O    0.807768  1.012218  2.405680
H    1.020740  0.174335  -0.226667
H    -0.251710  -1.049621  0.028117
H    1.304692  -1.154950  0.902571
N    -1.314296  0.452936  1.819948
C    -1.951201  1.302604  2.817803
C    -1.562266  1.036426  4.292920
O    -1.456166  1.998693  5.046553
H    -1.901869  -0.067340  1.179110
H    -1.624073  2.341762  2.667426
C    -3.470635  1.219045  2.613867
S    -4.353030  2.377895  3.732387
H    -3.825859  0.194273  2.795273
H    -3.695719  1.494736  1.574862
H    -5.555105  2.188738  3.138423
N    -1.425146  -0.241580  4.757324
C    -1.474765  -1.519441  4.069060
H    -1.151850  -0.253291  5.735104
H    -1.596093  -2.306653  4.822360
H    -0.559496  -1.731466  3.495468
H    -2.334650  -1.585059  3.391626
