23
Energy: -24373.2571512 eV PBE+vdW (tier 2 basis)
C    -0.153275  -0.255826  -0.073912
C    -0.038466  -0.098589  1.429369
O    1.037466  0.114101  1.991541
H    0.489919  -1.085804  -0.391656
H    0.226626  0.655199  -0.552565
H    -1.177557  -0.440982  -0.418871
N    -1.208239  -0.208627  2.121714
C    -1.260322  -0.103965  3.556919
C    -2.537706  -0.819735  4.026610
O    -3.462936  -1.060139  3.252088
H    -2.095948  -0.406678  1.667044
H    -0.370425  -0.610457  3.969462
C    -1.195134  1.359579  4.063677
S    -2.494247  2.479477  3.446426
H    -0.255732  1.795196  3.700446
H    -1.167820  1.384688  5.161443
H    -3.547633  1.850617  4.020679
N    -2.569496  -1.119356  5.353955
C    -3.709313  -1.750247  5.994527
H    -1.741800  -0.933330  5.907957
H    -4.109349  -1.120520  6.800971
H    -3.439015  -2.731310  6.408661
H    -4.482150  -1.888679  5.231668
