23
Energy: -24372.2202884 eV PBE+vdW (tier 2 basis)
C    1.461722  -1.666584  1.957833
C    0.491624  -1.093063  2.968573
O    0.769508  -1.031921  4.168709
H    2.195859  -0.887886  1.707513
H    0.979295  -1.998239  1.030185
H    1.999484  -2.504675  2.412062
N    -0.694307  -0.647861  2.452198
C    -1.608066  0.262821  3.154869
C    -0.839879  1.550080  3.579154
O    -0.181371  2.148560  2.729701
H    -0.741389  -0.607675  1.441158
H    -2.272651  0.637524  2.360237
C    -2.560781  -0.443084  4.138623
S    -1.959155  -0.909394  5.812833
H    -2.937088  -1.345351  3.640101
H    -3.421718  0.213474  4.321938
H    -0.676707  -1.152721  5.399289
N    -1.014370  1.975597  4.850638
C    -0.323584  3.153455  5.345008
H    -1.359002  1.284373  5.526242
H    -0.807140  3.491131  6.268245
H    -0.376279  3.949515  4.594089
H    0.738994  2.949925  5.548803
