23
Energy: -24373.1113187 eV PBE+vdW (tier 2 basis)
C    0.045801  0.043839  -0.023661
C    0.008976  0.144605  1.489542
O    1.012553  0.375117  2.159965
H    0.734680  -0.762408  -0.304758
H    0.452709  0.978591  -0.428114
H    -0.933393  -0.146119  -0.480238
N    -1.224841  -0.031095  2.061007
C    -1.408348  -0.068706  3.507356
C    -2.738991  -0.740417  3.878234
O    -2.801931  -1.600655  4.750002
H    -2.002519  -0.314067  1.477342
H    -0.624593  -0.704822  3.945167
C    -1.234446  1.321938  4.161440
S    -2.363393  2.644592  3.579104
H    -0.225843  1.676978  3.920905
H    -1.311454  1.234339  5.251060
H    -3.344384  2.439607  4.488426
N    -3.821416  -0.313721  3.154534
C    -5.160080  -0.790100  3.463934
H    -3.729733  0.601096  2.710424
H    -5.812118  -0.632181  2.597606
H    -5.593251  -0.280165  4.338664
H    -5.110138  -1.859980  3.691192
