23
Energy: -24372.2569422 eV PBE+vdW (tier 2 basis)
C    -2.174760  1.059432  1.092656
C    -0.783530  1.052966  1.697290
O    -0.207178  2.081227  2.039734
H    -2.873855  0.440749  1.672522
H    -2.165666  0.673448  0.063299
H    -2.531722  2.092218  1.078971
N    -0.179186  -0.174843  1.862706
C    -0.700255  -1.491222  1.556715
C    -1.433339  -2.206011  2.723355
O    -1.908709  -3.326249  2.548374
H    0.754855  -0.134947  2.269359
H    -1.462182  -1.396045  0.768651
C    0.390345  -2.416306  0.993044
S    1.855288  -2.620216  2.075654
H    0.723027  -2.070483  0.008553
H    -0.039355  -3.418655  0.886201
H    2.573379  -1.585335  1.582359
N    -1.516594  -1.504136  3.879808
C    -2.156102  -2.026632  5.071323
H    -1.046868  -0.605784  3.912114
H    -2.611228  -2.988013  4.810475
H    -2.936708  -1.342358  5.429923
H    -1.425658  -2.185806  5.876912
