23
Energy: -24372.8073193 eV PBE+vdW (tier 2 basis)
C    -0.011781  0.226263  -0.045901
C    -0.206430  -0.580836  1.225621
O    0.349766  -1.659120  1.402444
H    0.912870  0.815759  0.058063
H    -0.841399  0.915823  -0.258011
H    0.114350  -0.464576  -0.888640
N    -1.061486  0.000938  2.135287
C    -1.223064  -0.400378  3.518427
C    -0.007099  0.071745  4.370675
O    1.040276  0.443889  3.857866
H    -1.377336  0.935738  1.910408
H    -2.109683  0.139635  3.886705
C    -1.486237  -1.911081  3.686928
S    -3.068263  -2.487312  2.978315
H    -1.440226  -2.200355  4.741509
H    -0.712169  -2.464489  3.145159
H    -3.872421  -1.967317  3.937133
N    -0.172823  0.084351  5.732181
C    -1.338765  -0.247860  6.531478
H    0.667782  0.373006  6.223756
H    -1.337600  0.366630  7.439872
H    -1.363562  -1.306426  6.835138
H    -2.266033  -0.024917  5.990572
