23
Energy: -24372.8529199 eV PBE+vdW (tier 2 basis)
C    0.392286  -0.808752  1.043977
C    -0.104630  0.483631  1.653246
O    0.666102  1.384804  1.973578
H    1.330191  -0.587526  0.526694
H    0.609632  -1.525970  1.849046
H    -0.309590  -1.271372  0.345221
N    -1.451568  0.632735  1.932518
C    -2.628870  -0.150229  1.579597
C    -2.453161  -1.679658  1.702458
O    -2.714732  -2.437339  0.768539
H    -1.633431  1.545659  2.341976
H    -3.380480  0.099034  2.353248
C    -3.291116  0.252232  0.246564
S    -2.291109  0.126678  -1.273636
H    -3.560953  1.314953  0.308834
H    -4.217874  -0.319319  0.116074
H    -2.317166  -1.226008  -1.323408
N    -2.051156  -2.164298  2.912611
C    -1.754469  -1.449095  4.143534
H    -1.950768  -3.174650  2.914911
H    -1.846785  -2.149922  4.980922
H    -2.470352  -0.635137  4.313069
H    -0.741704  -1.021140  4.153607
