23
Energy: -24372.8382462 eV PBE+vdW (tier 2 basis)
C    -0.145479  1.108650  0.289977
C    0.070101  0.272045  1.543029
O    1.122081  0.314556  2.173554
H    -0.393670  0.494455  -0.586662
H    0.780636  1.653555  0.090084
H    -0.958504  1.836431  0.429262
N    -0.966819  -0.527490  1.951306
C    -2.274694  -0.666984  1.356731
C    -3.261803  -0.987345  2.504555
O    -2.850707  -1.440003  3.570099
H    -0.841324  -1.017512  2.837214
H    -2.566061  0.285859  0.888534
C    -2.338026  -1.741835  0.243576
S    -2.186198  -3.438348  0.936543
H    -1.508215  -1.564466  -0.450600
H    -3.280942  -1.656208  -0.310984
H    -2.088570  -4.045689  -0.268075
N    -4.588611  -0.762904  2.289470
C    -5.261068  -0.281118  1.096391
H    -5.168246  -1.080612  3.061006
H    -6.197147  0.208471  1.389233
H    -5.502053  -1.090107  0.388976
H    -4.651242  0.467426  0.576636
