23
Energy: -24372.8249204 eV PBE+vdW (tier 2 basis)
C    0.488913  -1.222148  0.529427
C    0.352785  -0.239046  1.677331
O    1.314393  0.091590  2.368130
H    -0.411864  -1.310339  -0.090414
H    0.731474  -2.209860  0.942792
H    1.331551  -0.914237  -0.100094
N    -0.910041  0.253649  1.878021
C    -1.287851  1.049085  3.052241
C    -2.823650  1.091753  3.153090
O    -3.395082  0.653026  4.145195
H    -1.664414  -0.176303  1.354168
H    -0.968166  0.523347  3.961266
C    -0.655017  2.473437  3.075561
S    0.666956  2.710962  4.307837
H    -1.412063  3.220233  3.350021
H    -0.283199  2.733117  2.077235
H    1.447520  1.717305  3.809346
N    -3.539376  1.596167  2.091442
C    -3.087235  2.423263  0.981119
H    -4.536973  1.604554  2.288476
H    -3.760018  2.276777  0.127253
H    -2.079810  2.132664  0.666352
H    -3.073391  3.495311  1.233396
