23
Energy: -24373.0610875 eV PBE+vdW (tier 2 basis)
C    -0.106062  -0.198029  0.016733
C    -0.019346  -0.066448  1.524142
O    1.053545  0.079773  2.099704
H    -1.058995  0.118359  -0.419794
H    0.049286  -1.252239  -0.253392
H    0.711501  0.383696  -0.419162
N    -1.183833  -0.190416  2.266691
C    -2.577941  -0.098752  1.825402
C    -2.962268  -1.214546  0.819461
O    -3.733064  -1.008548  -0.116312
H    -1.011780  -0.022974  3.255053
H    -3.183439  -0.300463  2.723237
C    -2.983252  1.300090  1.323392
S    -4.759649  1.681945  1.507296
H    -2.688523  1.454328  0.279170
H    -2.469559  2.051276  1.936062
H    -5.171215  0.775228  0.589191
N    -2.413862  -2.426182  1.097579
C    -2.651759  -3.604617  0.287248
H    -1.722808  -2.459640  1.839638
H    -2.993100  -4.443210  0.908428
H    -1.744210  -3.910787  -0.253364
H    -3.429912  -3.357636  -0.442255
