23
Energy: -24372.5866002 eV PBE+vdW (tier 2 basis)
C    0.265301  1.037971  0.414422
C    0.221066  0.038363  1.552835
O    1.262586  -0.420619  2.019972
H    1.290326  1.048409  0.034573
H    0.019827  2.045403  0.776421
H    -0.422277  0.800189  -0.404879
N    -0.980109  -0.354052  2.106653
C    -2.412464  -0.158191  1.848346
C    -3.139170  -1.471114  1.456429
O    -4.210989  -1.743850  2.001803
H    -0.801667  -0.992744  2.879457
H    -2.871413  0.092827  2.815367
C    -2.795747  0.975979  0.883458
S    -4.532483  1.524762  1.066581
H    -2.606761  0.710086  -0.163283
H    -2.211812  1.873554  1.116538
H    -5.074293  0.285041  1.166836
N    -2.609780  -2.300930  0.512026
C    -1.420113  -2.172291  -0.317339
H    -3.192121  -3.119805  0.365464
H    -1.465472  -2.945439  -1.091739
H    -0.491191  -2.308760  0.251501
H    -1.380215  -1.202778  -0.830076
