23
Energy: -24373.0175853 eV PBE+vdW (tier 2 basis)
C    0.988187  0.446369  0.482629
C    0.285414  -0.366704  1.552847
O    0.893049  -1.045606  2.374788
H    1.768854  1.053644  0.955019
H    0.318187  1.100044  -0.089421
H    1.483302  -0.245832  -0.210676
N    -1.086300  -0.290668  1.544709
C    -1.902013  -1.133668  2.419561
C    -3.249277  -1.366099  1.705520
O    -3.367338  -2.239636  0.853166
H    -1.542942  0.207742  0.790099
H    -1.421331  -2.119841  2.482166
C    -1.956202  -0.547278  3.840206
S    -2.709908  -1.641045  5.092707
H    -2.410600  0.454987  3.863579
H    -0.920840  -0.428725  4.184444
H    -3.944465  -1.713850  4.540386
N    -4.257283  -0.506516  2.043920
C    -5.578769  -0.576724  1.447837
H    -4.084038  0.184398  2.764136
H    -5.837059  0.364552  0.943456
H    -6.345328  -0.796067  2.204034
H    -5.563723  -1.385714  0.710095
