23
Energy: -24372.1172495 eV PBE+vdW (tier 2 basis)
C    -1.272384  -0.515319  -0.886057
C    -1.879651  0.105054  0.361722
O    -2.669562  1.041723  0.298666
H    -1.737907  -0.044254  -1.755491
H    -1.441722  -1.600621  -0.932412
H    -0.187509  -0.347309  -0.932418
N    -1.502716  -0.415200  1.577741
C    -0.704966  -1.588649  1.848885
C    -1.182045  -2.139603  3.218133
O    -1.985201  -1.520954  3.909210
H    -2.039877  -0.091649  2.385536
H    -0.896508  -2.364733  1.086174
C    0.815648  -1.302224  1.838469
S    1.414482  -0.246938  3.200265
H    1.096208  -0.857843  0.875629
H    1.388521  -2.235281  1.935292
H    0.600314  0.799824  2.926094
N    -0.651579  -3.340056  3.570875
C    -0.914373  -3.965035  4.855382
H    0.021685  -3.774867  2.952012
H    -0.039447  -3.905027  5.518482
H    -1.193707  -5.017946  4.722240
H    -1.745703  -3.428093  5.322571
