23
Energy: -24372.1481847 eV PBE+vdW (tier 2 basis)
C    0.236085  -1.246576  0.276058
C    0.131772  -0.825034  1.728037
O    1.104447  -0.803486  2.478979
H    -0.736207  -1.378074  -0.214299
H    0.804906  -2.181504  0.219011
H    0.803374  -0.480613  -0.268976
N    -1.119675  -0.433185  2.130743
C    -1.404863  -0.108031  3.509146
C    -2.634159  -0.923371  3.950144
O    -3.502043  -1.241944  3.136669
H    -1.932625  -0.651698  1.560409
H    -0.508089  -0.381235  4.084941
C    -1.716653  1.387737  3.718764
S    -0.198779  2.385300  3.462735
H    -2.093916  1.552443  4.736611
H    -2.492143  1.693768  3.005044
H    -0.815036  3.585243  3.567293
N    -2.728739  -1.233509  5.272001
C    -1.739429  -0.998337  6.314705
H    -3.571715  -1.745000  5.513141
H    -2.108960  -1.443970  7.243774
H    -1.574481  0.072769  6.500290
H    -0.773073  -1.464691  6.077778
