23
Energy: -24372.216374 eV PBE+vdW (tier 2 basis)
C    1.770424  -1.037137  1.402475
C    0.825796  -0.534011  2.475431
O    1.180278  -0.481651  3.660608
H    2.100128  -2.047004  1.675558
H    2.660612  -0.395666  1.391347
H    1.335648  -1.063234  0.396212
N    -0.401249  -0.141952  2.036825
C    -1.554920  0.373388  2.797023
C    -1.393604  1.741283  3.505722
O    -2.369971  2.488857  3.554087
H    -0.544401  -0.187635  1.035699
H    -2.299894  0.592419  2.020483
C    -2.224355  -0.674971  3.719625
S    -1.645103  -0.845085  5.443289
H    -2.202051  -1.650420  3.216527
H    -3.276024  -0.384193  3.835814
H    -0.348859  -1.099987  5.144723
N    -0.180742  2.020495  4.035261
C    0.029149  3.212785  4.835733
H    0.481428  1.243740  4.112871
H    -0.549674  4.039259  4.409841
H    1.094061  3.471409  4.830211
H    -0.299678  3.067310  5.876632
