23
Energy: -24372.3432248 eV PBE+vdW (tier 2 basis)
C    -1.538894  -0.268708  -0.582481
C    -0.881477  0.208223  0.698104
O    -0.012778  1.080250  0.708812
H    -0.763803  -0.675715  -1.243962
H    -1.984466  0.593372  -1.093848
H    -2.311251  -1.030460  -0.422293
N    -1.331759  -0.386732  1.844396
C    -0.700351  -0.153015  3.122991
C    -0.994460  -1.395382  3.990569
O    -1.706959  -2.308821  3.575559
H    -1.907861  -1.228447  1.820814
H    0.390146  -0.067148  2.963558
C    -1.159123  1.172719  3.766124
S    -2.901941  1.210249  4.307734
H    -0.960695  1.987154  3.060030
H    -0.579076  1.386997  4.674488
H    -3.432126  0.996792  3.081217
N    -0.403076  -1.400343  5.212338
C    -0.620835  -2.451977  6.188997
H    0.158483  -0.601221  5.479770
H    -1.187957  -2.081435  7.054638
H    0.334887  -2.866212  6.536295
H    -1.198629  -3.243140  5.701153
