23
Energy: -24373.2869342 eV PBE+vdW (tier 2 basis)
C    -0.100162  -0.169067  -0.055186
C    -0.043164  -0.053137  1.452850
O    1.026485  0.055036  2.061311
H    0.348417  0.732440  -0.491178
H    -1.115783  -0.287238  -0.451929
H    0.511854  -1.023199  -0.369456
N    -1.245840  -0.066256  2.098663
C    -1.367791  0.069348  3.548903
C    -1.173122  -1.301099  4.258659
O    -2.105883  -1.907003  4.783871
H    -2.081972  -0.296727  1.572653
H    -0.554764  0.740596  3.861865
C    -2.712736  0.684058  3.918915
S    -2.872297  2.455602  3.499838
H    -2.839964  0.638456  5.006675
H    -3.543206  0.107998  3.489919
H    -2.635060  2.332182  2.172515
N    0.116150  -1.726569  4.230739
C    0.528216  -3.011203  4.761512
H    0.775101  -1.161702  3.689254
H    1.380193  -2.892888  5.444128
H    0.815384  -3.705898  3.958345
H    -0.316503  -3.438493  5.311906
