23
Energy: -24372.2424647 eV PBE+vdW (tier 2 basis)
C    1.029104  0.971394  0.742945
C    -0.271247  0.715772  1.479792
O    -1.347496  0.589553  0.895048
H    1.205473  0.146226  0.041686
H    1.897185  1.069935  1.405684
H    0.922305  1.887404  0.148889
N    -0.164480  0.617330  2.838827
C    -1.328087  0.495705  3.687919
C    -0.932166  1.091362  5.051865
O    0.245079  1.352422  5.304277
H    0.685451  0.879851  3.337701
H    -2.145024  1.082672  3.231929
C    -1.828580  -0.964714  3.770139
S    -0.740843  -2.121296  4.668158
H    -2.001565  -1.320702  2.748030
H    -2.787429  -1.020509  4.299737
H    0.339746  -1.952979  3.871231
N    -1.917430  1.319755  5.961679
C    -3.352617  1.145172  5.826419
H    -1.561854  1.652067  6.852898
H    -3.669512  1.306428  4.789502
H    -3.863383  1.893202  6.444334
H    -3.689628  0.146948  6.146312
