23
Energy: -24372.2774483 eV PBE+vdW (tier 2 basis)
C    -2.229552  -0.651673  0.002404
C    -1.167078  -0.354350  1.043857
O    -0.001011  -0.124171  0.749746
H    -3.176374  -1.013105  0.423382
H    -1.839355  -1.394040  -0.702971
H    -2.425958  0.267113  -0.566000
N    -1.608308  -0.372823  2.352197
C    -0.789368  0.085644  3.462705
C    -0.286992  -1.043895  4.398594
O    0.182225  -0.776682  5.502374
H    -2.599981  -0.507498  2.519955
H    0.113499  0.519856  3.003860
C    -1.505444  1.152843  4.294449
S    -1.734911  2.754782  3.459147
H    -0.887090  1.367895  5.173922
H    -2.470574  0.777621  4.666105
H    -2.480461  2.301332  2.424199
N    -0.380501  -2.301396  3.893228
C    0.152120  -3.462103  4.579438
H    -0.734519  -2.394301  2.948134
H    1.034489  -3.864487  4.061265
H    -0.605858  -4.252954  4.657435
H    0.448001  -3.146606  5.585574
