23
Energy: -24372.8719003 eV PBE+vdW (tier 2 basis)
C    0.985890  0.008111  0.519830
C    0.522807  -0.399914  1.905149
O    1.247485  -1.041694  2.667971
H    0.281542  0.659086  -0.011773
H    1.147549  -0.899552  -0.075652
H    1.951433  0.519323  0.610364
N    -0.748485  -0.024551  2.227367
C    -1.418872  -0.308330  3.494299
C    -0.900077  0.659447  4.604966
O    -1.314576  1.819319  4.561439
H    -1.259318  0.537114  1.559580
H    -2.440282  0.070820  3.359833
C    -1.533824  -1.809425  3.799143
S    -2.569142  -2.718670  2.593964
H    -1.938518  -1.961380  4.806926
H    -0.560875  -2.305752  3.741316
H    -3.758728  -2.196606  2.977283
N    -0.060471  0.258568  5.598242
C    0.691384  -0.975233  5.795663
H    0.134248  1.023919  6.237613
H    1.542160  -0.748463  6.447870
H    1.085347  -1.342730  4.841868
H    0.091235  -1.756503  6.285771
