23
Energy: -24372.3708541 eV PBE+vdW (tier 2 basis)
C    -1.554985  0.226857  0.019319
C    -0.850961  0.213301  1.360430
O    0.382887  0.288844  1.439609
H    -1.283110  1.147339  -0.511878
H    -2.647242  0.161078  0.088215
H    -1.184026  -0.615180  -0.578416
N    -1.658913  0.123997  2.451902
C    -1.242928  -0.043536  3.849235
C    -0.609807  1.208960  4.517888
O    -1.024166  1.575684  5.617419
H    -2.653766  0.052420  2.281161
H    -2.171003  -0.194181  4.411460
C    -0.346052  -1.274428  4.082091
S    -1.117286  -2.867781  3.632870
H    -0.145472  -1.346615  5.158770
H    0.614211  -1.178881  3.565320
H    -0.934068  -2.761667  2.297199
N    0.412695  1.783471  3.839797
C    1.126965  2.939574  4.344246
H    0.677035  1.359490  2.943254
H    1.049658  3.786028  3.647370
H    2.190812  2.709334  4.497923
H    0.682522  3.223895  5.303815
