23
Energy: -24372.9397854 eV PBE+vdW (tier 2 basis)
C    0.488482  0.252762  0.714420
C    -0.073152  -0.490209  1.907946
O    0.593157  -1.304127  2.542365
H    1.577213  0.160774  0.749588
H    0.204029  1.310237  0.678599
H    0.130783  -0.208572  -0.217172
N    -1.388585  -0.270557  2.266888
C    -2.387724  0.666352  1.751104
C    -2.518462  0.615712  0.209701
O    -2.310125  1.604483  -0.492578
H    -1.649838  -0.811515  3.086409
H    -3.352413  0.322022  2.156107
C    -2.179189  2.104233  2.250381
S    -3.662663  3.161543  2.121991
H    -1.345511  2.587568  1.729555
H    -1.942091  2.069331  3.320893
H    -3.630340  3.260903  0.772108
N    -2.884730  -0.578371  -0.336646
C    -3.182124  -1.836505  0.329457
H    -2.936744  -0.551541  -1.350187
H    -2.274970  -2.372109  0.643301
H    -3.741846  -2.471757  -0.365671
H    -3.815595  -1.679780  1.212535
