23
Energy: -24372.2773638 eV PBE+vdW (tier 2 basis)
C    0.467808  -0.118715  -0.325588
C    -0.372211  -0.178721  0.934713
O    -1.550317  0.192233  0.950391
H    0.539741  0.927462  -0.648951
H    -0.047538  -0.671540  -1.120262
H    1.478602  -0.524299  -0.199730
N    0.258308  -0.667500  2.036092
C    -0.348755  -0.702240  3.348616
C    0.813554  -0.865807  4.346381
O    1.933442  -1.212793  3.962204
H    1.243979  -0.930461  2.029147
H    -0.860803  0.256243  3.524074
C    -1.398877  -1.846732  3.503822
S    -3.133042  -1.279777  3.526640
H    -1.263370  -2.390205  4.447740
H    -1.245372  -2.566602  2.691635
H    -3.012951  -0.561165  2.377620
N    0.553481  -0.624113  5.658312
C    -0.694307  -0.226820  6.289843
H    1.355611  -0.793348  6.258537
H    -0.503804  0.570613  7.019458
H    -1.175765  -1.069298  6.809126
H    -1.404415  0.153586  5.548180
