23
Energy: -24372.9044145 eV PBE+vdW (tier 2 basis)
C    0.094897  -0.178643  0.205216
C    0.031973  0.144935  1.683152
O    1.028004  0.399893  2.355064
H    1.145641  -0.194114  -0.094316
H    -0.440537  0.570525  -0.395191
H    -0.360673  -1.154554  -0.012555
N    -1.214517  0.133787  2.272627
C    -2.502466  0.077776  1.605588
C    -2.937115  1.350736  0.828549
O    -3.538582  1.210350  -0.234950
H    -1.187000  0.404938  3.252115
H    -2.465531  -0.690700  0.822853
C    -3.607255  -0.324225  2.591164
S    -3.505314  -2.050795  3.182588
H    -4.575383  -0.265282  2.078757
H    -3.646284  0.363731  3.448290
H    -2.259921  -1.964444  3.706927
N    -2.663031  2.592399  1.326245
C    -2.040229  3.002419  2.577676
H    -2.992717  3.328229  0.708991
H    -0.953045  2.843983  2.583829
H    -2.480515  2.489170  3.443400
H    -2.229822  4.072916  2.712471
