23
Energy: -24373.3318134 eV PBE+vdW (tier 2 basis)
C    0.004594  -0.214773  0.005936
C    0.045442  -0.229472  1.519073
O    1.103861  -0.355588  2.143814
H    0.628887  0.613351  -0.352276
H    -1.004833  -0.104170  -0.408312
H    0.448329  -1.144891  -0.369833
N    -1.155953  -0.085267  2.151142
C    -1.275994  -0.046442  3.610706
C    -1.333018  -1.489340  4.182936
O    -2.387469  -2.004698  4.557965
H    -2.007619  -0.102365  1.601091
H    -0.366353  0.443842  3.984590
C    -2.503188  0.766548  4.011056
S    -2.589018  1.131602  5.797748
H    -3.425140  0.251684  3.711213
H    -2.468765  1.745978  3.516666
H    -2.886931  -0.137133  6.166155
N    -0.122184  -2.099093  4.200054
C    0.053050  -3.482573  4.596334
H    0.645479  -1.599360  3.745824
H    0.872535  -3.574671  5.321068
H    0.274166  -4.125402  3.731269
H    -0.878171  -3.824925  5.059446
