23
Energy: -24372.7749924 eV PBE+vdW (tier 2 basis)
C    0.043735  0.415448  -0.148554
C    0.081108  0.224637  1.356990
O    1.120823  0.292257  1.999195
H    0.979536  0.041894  -0.575463
H    -0.021437  1.492414  -0.358030
H    -0.805045  -0.085061  -0.632187
N    -1.152017  -0.046544  1.919926
C    -1.449962  0.030471  3.338927
C    -1.498430  1.515269  3.809890
O    -1.083757  2.427873  3.107237
H    -1.947702  0.064786  1.303311
H    -2.464471  -0.385341  3.454339
C    -0.502423  -0.826323  4.191547
S    -0.691023  -2.587303  3.692556
H    -0.768375  -0.736284  5.248969
H    0.529218  -0.500964  4.032625
H    -0.088076  -3.102587  4.788278
N    -2.067210  1.763108  5.031442
C    -2.702821  0.852810  5.967909
H    -2.042951  2.748362  5.277040
H    -3.528395  1.372161  6.470073
H    -2.009997  0.484628  6.741242
H    -3.130756  -0.013685  5.450303
