23
Energy: -24372.9186569 eV PBE+vdW (tier 2 basis)
C    -0.068068  0.070714  0.014685
C    0.009053  0.137754  1.533196
O    1.083696  0.186613  2.123519
H    -0.581778  -0.835823  -0.334727
H    0.954953  0.065597  -0.370012
H    -0.597716  0.939165  -0.403226
N    -1.176990  0.160550  2.221339
C    -2.515103  0.063353  1.694464
C    -3.450734  0.858698  2.622194
O    -3.215247  0.954055  3.825167
H    -1.106598  0.206935  3.236598
H    -2.536835  0.503690  0.687062
C    -3.040063  -1.395491  1.552248
S    -2.943476  -2.435913  3.047146
H    -2.412666  -1.923566  0.822074
H    -4.066193  -1.392509  1.159663
H    -3.690676  -1.640079  3.849206
N    -4.576277  1.393440  2.066078
C    -4.932075  1.481678  0.657901
H    -5.160599  1.881524  2.737722
H    -5.877471  2.027808  0.577493
H    -5.083330  0.493054  0.202027
H    -4.179513  2.029653  0.071583
