23
Energy: -24372.4434112 eV PBE+vdW (tier 2 basis)
C    -1.060395  -0.559182  -0.500297
C    -0.320153  -0.395710  0.812949
O    0.903629  -0.436072  0.888257
H    -2.150685  -0.606620  -0.389422
H    -0.706336  -1.470194  -0.997264
H    -0.806177  0.286643  -1.152163
N    -1.124316  -0.222834  1.919031
C    -0.586012  0.160160  3.211026
C    -0.813168  -0.886467  4.326489
O    -0.716276  -0.571553  5.512089
H    -2.115781  -0.029836  1.786106
H    0.507511  0.219533  3.071511
C    -1.095360  1.535527  3.655469
S    -2.921876  1.685501  3.676950
H    -0.755900  2.303123  2.949288
H    -0.704228  1.769700  4.650292
H    -3.116224  0.895785  4.759238
N    -1.082585  -2.142219  3.889533
C    -1.235159  -3.271696  4.784074
H    -1.139227  -2.276993  2.886152
H    -1.143316  -2.897669  5.809406
H    -0.455289  -4.025890  4.608465
H    -2.219683  -3.744037  4.661821
