23
Energy: -24372.2598806 eV PBE+vdW (tier 2 basis)
C    -1.975097  -0.391923  -0.347467
C    -1.074902  0.163291  0.740436
O    -0.293710  1.090263  0.543133
H    -2.510686  0.438238  -0.822420
H    -2.700415  -1.132602  0.011531
H    -1.345432  -0.858406  -1.116152
N    -1.189649  -0.442459  1.965489
C    -0.305552  -0.111279  3.078415
C    -0.243113  -1.296539  4.062082
O    0.788574  -1.943682  4.214737
H    -1.811758  -1.234563  2.072567
H    0.714724  -0.013549  2.680475
C    -0.635823  1.252459  3.729469
S    -2.360108  1.511074  4.286529
H    -0.376944  2.051056  3.026180
H    -0.022764  1.383027  4.631132
H    -2.918582  1.505687  3.054066
N    -1.418401  -1.581221  4.696191
C    -1.505068  -2.635957  5.691883
H    -2.138020  -0.853365  4.681685
H    -0.870168  -3.471987  5.379893
H    -2.543677  -2.976330  5.772657
H    -1.160430  -2.301231  6.682487
