23
Energy: -24373.0710746 eV PBE+vdW (tier 2 basis)
C    -0.406857  0.334867  -0.087352
C    -0.228010  -0.036225  1.370751
O    0.812681  -0.536818  1.796885
H    -0.285846  -0.568212  -0.698397
H    0.391005  1.032358  -0.370183
H    -1.377570  0.793136  -0.311395
N    -1.296409  0.241958  2.181154
C    -1.307989  -0.107017  3.593292
C    -2.035057  -1.459589  3.782402
O    -3.248401  -1.542791  3.585255
H    -2.173576  0.528882  1.760416
H    -0.255452  -0.167762  3.892859
C    -2.028981  0.948872  4.431142
S    -1.233578  2.584887  4.176330
H    -1.958885  0.668947  5.489465
H    -3.089266  0.985614  4.151898
H    -1.893364  3.206827  5.180111
N    -1.283605  -2.529788  4.152434
C    0.156341  -2.599801  4.377923
H    -1.827633  -3.380510  4.263060
H    0.461605  -3.650149  4.316842
H    0.439730  -2.221693  5.372220
H    0.701276  -2.043743  3.604558
