23
Energy: -24372.8562716 eV PBE+vdW (tier 2 basis)
C    -0.571802  0.382675  0.016297
C    0.004802  0.526210  1.409890
O    0.925013  1.295039  1.675170
H    0.035746  0.982114  -0.665953
H    -1.611808  0.736671  -0.024315
H    -0.575183  -0.663546  -0.318988
N    -0.555863  -0.252084  2.398237
C    -1.712930  -1.121455  2.289390
C    -3.076195  -0.428604  2.019325
O    -3.882528  -0.984921  1.276485
H    -0.110886  -0.143091  3.306027
H    -1.597009  -1.787508  1.421324
C    -1.854795  -2.000423  3.534889
S    -0.324048  -2.994335  3.764962
H    -2.711259  -2.666952  3.387664
H    -2.031734  -1.387226  4.429571
H    -0.801838  -3.728832  4.795743
N    -3.363129  0.769421  2.607750
C    -2.613482  1.565603  3.571657
H    -4.279417  1.112349  2.335935
H    -1.762522  2.091424  3.118658
H    -2.244426  0.958034  4.408091
H    -3.296235  2.312664  3.991418
