23
Energy: -24372.4104072 eV PBE+vdW (tier 2 basis)
C    -1.574017  -1.298553  -0.483729
C    -0.875733  -0.685923  0.714992
O    0.326451  -0.842889  0.929985
H    -1.425483  -2.385088  -0.458292
H    -1.097286  -0.924929  -1.398538
H    -2.648389  -1.082732  -0.525526
N    -1.670102  0.059230  1.539131
C    -1.173838  0.656158  2.759488
C    -2.397344  0.881627  3.664923
O    -3.533451  0.960102  3.191263
H    -2.675471  0.145937  1.400894
H    -0.461093  -0.037330  3.231183
C    -0.415448  1.968999  2.435852
S    0.516411  2.720756  3.816800
H    -1.095148  2.710008  1.998477
H    0.349958  1.722684  1.690030
H    -0.512123  3.406945  4.365226
N    -2.118425  0.985107  4.988346
C    -3.127944  1.291408  5.985012
H    -1.138449  0.992071  5.257341
H    -3.063224  0.589712  6.826423
H    -4.109314  1.195027  5.509792
H    -3.020538  2.316674  6.368929
