23
Energy: -24372.9866384 eV PBE+vdW (tier 2 basis)
C    -0.048433  -0.372479  0.116875
C    0.092917  -0.317956  1.630133
O    1.137600  -0.623455  2.196950
H    0.890294  -0.754554  -0.292127
H    -0.237336  0.625308  -0.304783
H    -0.869680  -1.030378  -0.200188
N    -0.998346  0.109660  2.345864
C    -2.325846  0.435443  1.852108
C    -2.882003  1.528699  2.786762
O    -2.861236  1.345878  4.003900
H    -0.886115  0.128451  3.358515
H    -2.242739  0.795542  0.820110
C    -3.251339  -0.799438  1.889461
S    -4.913243  -0.539572  1.170242
H    -3.430296  -1.077344  2.936448
H    -2.763896  -1.648682  1.396178
H    -4.522436  -0.540992  -0.126230
N    -3.359598  2.673503  2.233683
C    -3.490553  3.011901  0.824570
H    -3.722748  3.328747  2.919257
H    -4.168366  2.323234  0.300887
H    -2.517123  3.023687  0.313717
H    -3.910491  4.020652  0.754332
