23
Energy: -24373.1786062 eV PBE+vdW (tier 2 basis)
C    -0.110572  0.402052  0.035062
C    -0.064630  0.302293  1.547028
O    0.951932  0.557561  2.195329
H    0.702623  -0.203208  -0.383169
H    0.074034  1.444594  -0.253689
H    -1.064584  0.077635  -0.397394
N    -1.230518  -0.077220  2.144465
C    -1.336041  -0.265756  3.570136
C    -2.548349  -1.190221  3.813927
O    -3.342648  -1.452477  2.911468
H    -2.047323  -0.370348  1.612128
H    -0.415553  -0.760957  3.924687
C    -1.431861  1.063154  4.349520
S    -3.006826  1.934298  3.981388
H    -0.581804  1.685831  4.050535
H    -1.361721  0.868541  5.428603
H    -2.650391  3.096073  4.573907
N    -2.660250  -1.668807  5.079930
C    -3.789502  -2.465412  5.524211
H    -1.966343  -1.388325  5.762665
H    -3.448718  -3.397189  5.994253
H    -4.391606  -2.707617  4.642925
H    -4.413815  -1.909752  6.238222
