23
Energy: -24372.2234623 eV PBE+vdW (tier 2 basis)
C    -2.915913  -0.063148  1.108653
C    -1.839609  0.856626  1.653280
O    -1.106352  1.522293  0.929586
H    -3.732704  -0.246492  1.818237
H    -2.455498  -1.029313  0.858023
H    -3.318983  0.366437  0.186182
N    -1.751510  0.895873  3.030597
C    -0.596686  1.440924  3.745126
C    -0.493306  2.988075  3.738814
O    0.535040  3.533432  4.133055
H    -2.282571  0.191589  3.529796
H    -0.760971  1.186864  4.804006
C    0.746158  0.826521  3.313476
S    0.846382  -0.980153  3.548569
H    1.558139  1.330209  3.845391
H    0.896878  0.985244  2.239232
H    0.975292  -0.965555  4.896171
N    -1.614920  3.652128  3.363650
C    -1.663518  5.097190  3.261582
H    -2.366443  3.099297  2.968684
H    -2.584992  5.485626  3.714440
H    -1.612203  5.428625  2.213850
H    -0.798709  5.500709  3.798601
