23
Energy: -24372.1773822 eV PBE+vdW (tier 2 basis)
C    -3.185856  -0.083745  1.514779
C    -2.022502  0.840015  1.820049
O    -1.379533  1.412003  0.947630
H    -3.906289  -0.165772  2.338717
H    -2.786966  -1.086618  1.306521
H    -3.696075  0.270514  0.613723
N    -1.739068  0.993022  3.163766
C    -0.487146  1.566268  3.665407
C    -0.361359  3.103349  3.500036
O    0.724912  3.652497  3.664033
H    -2.251130  0.400737  3.807449
H    -0.508131  1.402507  4.754795
C    0.771791  0.886627  3.114834
S    0.707578  -0.899836  3.531206
H    1.639739  1.353593  3.588629
H    0.829932  1.018826  2.029586
H    1.998845  -1.165921  3.236550
N    -1.523182  3.761294  3.260060
C    -1.571303  5.192674  3.037027
H    -2.334300  3.195733  3.039094
H    -1.682442  5.430734  1.968721
H    -0.628198  5.619882  3.393548
H    -2.405317  5.641617  3.591839
