23
Energy: -24372.3525075 eV PBE+vdW (tier 2 basis)
C    -1.329170  0.168615  -0.084286
C    -0.699745  0.198860  1.292033
O    0.528339  0.271436  1.436754
H    -2.421012  0.268725  -0.074304
H    -1.068506  -0.784293  -0.563552
H    -0.895729  0.972194  -0.690441
N    -1.567979  0.144451  2.339577
C    -1.228814  -0.054544  3.752719
C    -0.573848  1.157322  4.474446
O    -1.020460  1.513524  5.565409
H    -2.547835  0.041747  2.108835
H    -2.188750  -0.159116  4.271345
C    -0.400582  -1.329198  4.007805
S    -1.215032  -2.879866  3.488764
H    -0.144864  -1.383599  5.072430
H    0.535118  -1.299174  3.436881
H    -2.147724  -2.905597  4.469354
N    0.497172  1.704696  3.853940
C    1.231828  2.822080  4.413034
H    0.777340  1.292779  2.955398
H    1.179342  3.700198  3.753641
H    2.288735  2.560413  4.562502
H    0.786175  3.075347  5.380720
