23
Energy: -24372.8075361 eV PBE+vdW (tier 2 basis)
C    -0.524724  -0.007957  -0.283351
C    -0.102978  0.027629  1.177082
O    1.071394  -0.051723  1.518574
H    0.370207  -0.171024  -0.889034
H    -0.988470  0.942939  -0.584613
H    -1.244685  -0.814190  -0.484811
N    -1.108470  0.127247  2.112282
C    -2.497634  0.420625  1.849792
C    -2.734488  1.921916  1.538901
O    -2.074366  2.798304  2.084572
H    -0.786849  0.324780  3.059874
H    -2.826299  -0.186151  0.994056
C    -3.371334  -0.017583  3.039840
S    -2.898457  0.822930  4.612894
H    -3.251016  -1.096480  3.183399
H    -4.425950  0.194340  2.823983
H    -3.040874  -0.277988  5.383809
N    -3.733490  2.215740  0.650930
C    -4.549633  1.297786  -0.128220
H    -3.865851  3.212456  0.510252
H    -5.222334  1.887288  -0.759815
H    -5.175805  0.650308  0.503166
H    -3.943605  0.663531  -0.792753
