23
Energy: -24372.4608296 eV PBE+vdW (tier 2 basis)
C    -0.617668  -1.533292  -0.564271
C    -0.258109  -0.635785  0.603351
O    0.872049  -0.168325  0.753836
H    -0.397786  -1.003260  -1.499115
H    -1.667953  -1.848152  -0.568000
H    0.024545  -2.422410  -0.534113
N    -1.275650  -0.366425  1.473830
C    -1.048217  0.359229  2.702156
C    -2.201044  -0.024366  3.657013
O    -3.126347  -0.746466  3.275849
H    -2.164581  -0.866929  1.447191
H    -0.084719  0.038127  3.131419
C    -0.960376  1.881294  2.423463
S    -0.208423  2.880802  3.758674
H    -1.960898  2.305908  2.266927
H    -0.374462  2.031830  1.511114
H    1.044043  2.384939  3.621266
N    -2.102921  0.481865  4.908505
C    -3.132462  0.283336  5.912541
H    -1.363408  1.166201  5.075947
H    -3.848720  1.118674  5.938208
H    -2.670786  0.182181  6.901929
H    -3.681109  -0.632975  5.672283
