23
Energy: -24373.2301637 eV PBE+vdW (tier 2 basis)
C    -2.740843  0.498497  0.746785
C    -1.356838  0.886149  1.234094
O    -0.983782  2.053388  1.299061
H    -2.686501  -0.084465  -0.183887
H    -3.300013  1.417411  0.553846
H    -3.281708  -0.108439  1.486221
N    -0.521604  -0.139619  1.621844
C    -0.779111  -1.565235  1.611975
C    -1.378333  -2.141592  2.921578
O    -1.643576  -3.340008  2.999032
H    0.412711  0.148519  1.915247
H    -1.527539  -1.793917  0.838170
C    0.486510  -2.354787  1.240460
S    1.947316  -1.993469  2.284196
H    0.802146  -2.093169  0.222778
H    0.264650  -3.426163  1.276919
H    1.472852  -2.575625  3.411517
N    -1.574416  -1.241611  3.916484
C    -2.133023  -1.601092  5.204931
H    -1.288384  -0.284938  3.735502
H    -1.412712  -1.418735  6.014471
H    -2.375289  -2.668897  5.176678
H    -3.048304  -1.029761  5.411263
