23
Energy: -24373.0288763 eV PBE+vdW (tier 2 basis)
C    -0.025577  0.552174  -0.089027
C    0.074802  -0.123589  1.264003
O    1.106607  -0.709948  1.607438
H    0.837494  1.215912  -0.216490
H    -0.948387  1.125733  -0.237545
H    0.038086  -0.221363  -0.865253
N    -1.037045  -0.027692  2.047628
C    -1.333471  -0.657881  3.346420
C    -0.413406  -0.355234  4.560970
O    -0.939212  -0.319323  5.675317
H    -1.802411  0.509300  1.659148
H    -2.276040  -0.187722  3.658066
C    -1.663764  -2.160391  3.260720
S    -0.226263  -3.258141  2.909280
H    -2.431299  -2.307578  2.489503
H    -2.078408  -2.445022  4.234428
H    -0.823745  -4.366861  3.405624
N    0.899896  -0.166023  4.323463
C    1.839224  0.022111  5.412787
H    1.241557  -0.398436  3.382133
H    2.746905  0.498333  5.025907
H    2.111748  -0.933826  5.886637
H    1.388950  0.662163  6.179792
