23
Energy: -24372.2893935 eV PBE+vdW (tier 2 basis)
C    -0.856814  -0.075034  -0.124041
C    -0.489882  0.139414  1.330020
O    0.478197  0.802388  1.680278
H    0.059287  -0.148846  -0.718616
H    -1.416197  0.804014  -0.473535
H    -1.476300  -0.965733  -0.289430
N    -1.329290  -0.480306  2.240729
C    -1.306807  -0.109746  3.646009
C    -0.923439  -1.261949  4.603766
O    -1.049440  -1.132461  5.819793
H    -2.209288  -0.830341  1.873478
H    -0.495070  0.630883  3.737131
C    -2.626759  0.519356  4.118227
S    -3.182374  1.965863  3.154454
H    -2.537270  0.767458  5.180221
H    -3.452861  -0.202320  4.027652
H    -2.095264  2.738677  3.384889
N    -0.434273  -2.375627  3.998633
C    0.062675  -3.516628  4.741003
H    -0.338050  -2.340220  2.989436
H    1.147816  -3.636409  4.611756
H    -0.437010  -4.441784  4.423052
H    -0.149586  -3.340653  5.801095
