23
Energy: -24372.4182763 eV PBE+vdW (tier 2 basis)
C    1.044555  -0.356754  0.233558
C    0.445691  0.172954  1.518926
O    1.113008  0.817812  2.334692
H    0.334570  -0.915995  -0.387663
H    1.895762  -1.003603  0.479008
H    1.433788  0.490040  -0.345454
N    -0.877539  -0.096889  1.717546
C    -1.609613  0.377450  2.894559
C    -1.399781  -0.596824  4.086205
O    -2.266015  -1.399716  4.437064
H    -1.353520  -0.724982  1.079492
H    -1.177152  1.352761  3.158237
C    -3.087952  0.541601  2.554803
S    -4.047106  1.406266  3.842687
H    -3.552569  -0.434413  2.363395
H    -3.187626  1.162346  1.654935
H    -4.011734  0.384679  4.730102
N    -0.178593  -0.472274  4.661762
C    0.279210  -1.344965  5.725088
H    0.484692  0.148815  4.192744
H    0.717297  -0.757287  6.542258
H    1.031903  -2.061903  5.364285
H    -0.583274  -1.903117  6.103770
