23
Energy: -24372.2688104 eV PBE+vdW (tier 2 basis)
C    -2.682835  1.101528  1.291616
C    -1.220123  1.133253  1.691962
O    -0.623664  2.178364  1.934511
H    -2.812088  0.694807  0.278481
H    -3.060266  2.126909  1.311347
H    -3.278530  0.481525  1.976107
N    -0.571409  -0.079265  1.786275
C    -1.102480  -1.410963  1.581268
C    -1.670776  -2.106426  2.847061
O    -2.161091  -3.230204  2.755444
H    0.409107  -0.015009  2.058393
H    -1.957712  -1.351427  0.891541
C    -0.070484  -2.332888  0.911222
S    1.526660  -2.465649  1.802120
H    0.125126  -2.014546  -0.118246
H    -0.485564  -3.346856  0.891581
H    2.154563  -1.447183  1.171282
N    -1.599029  -1.386471  3.992995
C    -2.066608  -1.892123  5.268687
H    -1.130749  -0.487904  3.947699
H    -2.570870  -2.846640  5.084202
H    -2.774505  -1.191816  5.731548
H    -1.229674  -2.061017  5.960908
