23
Energy: -24372.6169328 eV PBE+vdW (tier 2 basis)
C    0.216341  0.150027  0.081458
C    -0.018844  0.377733  1.559410
O    0.853611  0.887901  2.261145
H    0.077678  -0.896712  -0.215656
H    1.247735  0.443244  -0.131047
H    -0.462401  0.769958  -0.519378
N    -1.220989  0.039241  2.149119
C    -2.459943  -0.635618  1.771463
C    -2.679936  -2.031813  2.426515
O    -3.808889  -2.302173  2.835346
H    -1.197830  0.310764  3.129528
H    -3.270784  -0.056494  2.237616
C    -2.823213  -0.738239  0.283748
S    -3.154696  0.851673  -0.560587
H    -3.718606  -1.365759  0.211014
H    -2.042825  -1.224569  -0.311595
H    -4.313484  1.119446  0.085740
N    -1.658951  -2.928537  2.542774
C    -0.297397  -2.897184  2.028831
H    -1.965460  -3.785695  2.992830
H    0.148478  -3.882368  2.201368
H    0.325580  -2.147131  2.531568
H    -0.269430  -2.713596  0.946460
