23
Energy: -24372.8201963 eV PBE+vdW (tier 2 basis)
C    0.500484  -0.283886  0.303630
C    0.267239  -0.164228  1.796419
O    1.168786  -0.346043  2.614628
H    1.288839  0.422101  0.015263
H    -0.392785  -0.092495  -0.302728
H    0.867480  -1.294801  0.087499
N    -1.013680  0.138344  2.167748
C    -1.426262  0.367516  3.552803
C    -0.810101  1.701003  4.075320
O    -1.239935  2.737068  3.566608
H    -1.667816  0.408918  1.444817
H    -2.490584  0.631998  3.488529
C    -1.343884  -0.903670  4.402092
S    -2.455791  -2.170239  3.653118
H    -1.698677  -0.685299  5.416020
H    -0.329966  -1.306590  4.442280
H    -2.684228  -2.851125  4.798726
N    0.107674  1.747277  5.080613
C    0.964815  0.711460  5.646929
H    0.352209  2.709571  5.296462
H    1.818137  1.208213  6.121516
H    1.347224  0.051664  4.859732
H    0.451915  0.121084  6.420014
