23
Energy: -24372.2534257 eV PBE+vdW (tier 2 basis)
C    -2.483880  0.014710  -0.200712
C    -1.340878  0.233489  0.770814
O    -0.337441  0.884610  0.474350
H    -2.915034  0.989537  -0.461432
H    -3.277589  -0.631026  0.193571
H    -2.083470  -0.423952  -1.122669
N    -1.502911  -0.329990  2.002503
C    -0.478492  -0.264299  3.015286
C    -0.729203  -1.437176  3.987520
O    -1.773297  -2.087136  3.947599
H    -2.284750  -0.943516  2.223431
H    0.502085  -0.392543  2.525193
C    -0.421153  1.102948  3.729716
S    -1.929431  1.389759  4.736166
H    -0.333052  1.876697  2.959381
H    0.467004  1.149030  4.375008
H    -1.679972  2.696909  4.971111
N    0.274882  -1.676619  4.870020
C    0.175684  -2.667759  5.925977
H    1.092897  -1.079703  4.840624
H    -0.733809  -3.250552  5.749715
H    0.105769  -2.192936  6.915009
H    1.043040  -3.340480  5.910818
