23
Energy: -24372.2810579 eV PBE+vdW (tier 2 basis)
C    -3.789085  0.153034  1.264220
C    -2.412927  0.602406  1.711026
O    -1.532505  0.887061  0.889582
H    -3.677933  -0.741147  0.638422
H    -4.228309  0.938131  0.636411
H    -4.475466  -0.072427  2.089071
N    -2.222884  0.668231  3.059394
C    -0.976982  1.029566  3.757131
C    -0.627918  2.540981  3.647588
O    -0.598703  3.243107  4.656899
H    -3.020827  0.468625  3.649719
H    -1.180247  0.888686  4.824728
C    0.187733  0.101097  3.365994
S    1.636902  0.248384  4.463467
H    0.486435  0.241812  2.322687
H    -0.136855  -0.942168  3.479928
H    1.921472  1.541372  4.182065
N    -0.332747  2.973275  2.394817
C    -0.027089  4.362236  2.111442
H    -0.528714  2.325083  1.624329
H    -0.896147  4.895536  1.696302
H    0.799960  4.428225  1.393242
H    0.262837  4.850898  3.047537
