23
Energy: -24372.1313567 eV PBE+vdW (tier 2 basis)
C    0.378353  1.175257  0.959204
C    -0.659608  0.657689  1.933969
O    -1.779035  0.298682  1.575238
H    1.234641  1.660333  1.443894
H    -0.099645  1.881595  0.271588
H    0.745991  0.328979  0.363708
N    -0.257223  0.614068  3.245435
C    -1.058590  0.007810  4.299463
C    -1.324498  1.053068  5.408303
O    -0.667330  1.054235  6.449908
H    0.696391  0.874138  3.472293
H    -1.997608  -0.291483  3.812396
C    -0.388287  -1.220532  4.919606
S    -0.168827  -2.516127  3.638961
H    -1.023592  -1.598587  5.728992
H    0.580233  -0.943941  5.352180
H    0.558267  -3.348123  4.417525
N    -2.301470  1.975663  5.180867
C    -3.066970  2.235028  3.971951
H    -2.366253  2.659828  5.930179
H    -2.641235  3.069680  3.393511
H    -4.101829  2.485131  4.238146
H    -3.082876  1.358610  3.316680
