23
Energy: -24372.8683041 eV PBE+vdW (tier 2 basis)
C    0.325742  0.802450  -0.253446
C    -0.512214  0.686888  1.006090
O    -1.593864  1.251413  1.134494
H    -0.305526  0.573329  -1.119799
H    1.204304  0.145427  -0.264265
H    0.659888  1.842994  -0.356429
N    0.021545  -0.101530  1.997794
C    -0.579379  -0.153271  3.333462
C    0.506387  -0.460587  4.385374
O    0.795868  0.383054  5.227347
H    0.978630  -0.419281  1.896179
H    -0.910580  0.863310  3.586230
C    -1.827548  -1.059748  3.366358
S    -2.381805  -1.511175  5.048647
H    -1.638320  -2.018724  2.870587
H    -2.634963  -0.560469  2.819868
H    -2.481223  -0.248653  5.528009
N    1.207383  -1.639398  4.300999
C    0.844444  -2.877403  3.625642
H    1.868568  -1.724401  5.068811
H    0.505250  -2.687096  2.601022
H    0.057092  -3.432994  4.159646
H    1.734989  -3.513274  3.562335
