23
Energy: -24373.1740332 eV PBE+vdW (tier 2 basis)
C    0.040299  0.230530  0.018029
C    -0.008764  0.159332  1.532317
O    1.000130  0.256844  2.230686
H    0.746547  -0.524440  -0.347373
H    0.430118  1.213201  -0.275927
H    -0.933546  0.076510  -0.461792
N    -1.253016  -0.019535  2.069032
C    -1.471371  -0.110284  3.501461
C    -2.713799  -0.995253  3.692438
O    -3.698394  -0.820145  2.968759
H    -2.084564  -0.093046  1.489275
H    -0.563466  -0.538858  3.943857
C    -1.702793  1.300653  4.089474
S    -1.807440  1.396766  5.912463
H    -2.660494  1.692684  3.722613
H    -0.903543  1.963852  3.740449
H    -0.481961  1.250124  6.145549
N    -2.686960  -1.952750  4.652660
C    -1.597873  -2.304530  5.553621
H    -3.556575  -2.471728  4.726350
H    -1.352171  -1.476531  6.231666
H    -0.694558  -2.604235  5.004253
H    -1.920334  -3.159157  6.157492
