23
Energy: -24372.2828554 eV PBE+vdW (tier 2 basis)
C    -0.616573  -0.664166  -0.020256
C    -0.374891  -0.447054  1.457444
O    0.767049  -0.435706  1.936328
H    -0.230855  -1.652256  -0.301245
H    -0.042938  0.082708  -0.582539
H    -1.672809  -0.599154  -0.306861
N    -1.488223  -0.284214  2.224721
C    -1.421428  0.130638  3.623478
C    -1.158328  -1.088464  4.564266
O    -2.035032  -1.544065  5.297471
H    -2.374805  -0.120186  1.754845
H    -0.570286  0.824840  3.721526
C    -2.715875  0.817203  4.064656
S    -3.421286  2.022580  2.890709
H    -2.558963  1.290717  5.039519
H    -3.502112  0.064113  4.208014
H    -2.345820  2.842028  2.812696
N    0.111214  -1.554285  4.486579
C    0.547991  -2.734928  5.206265
H    0.686702  -1.172134  3.727920
H    1.564647  -2.586525  5.591032
H    0.541166  -3.630139  4.565500
H    -0.136545  -2.904551  6.043936
