23
Energy: -24372.9360584 eV PBE+vdW (tier 2 basis)
C    -0.084342  0.504168  0.051268
C    -0.164474  0.822352  1.532168
O    0.777698  1.312128  2.147248
H    0.893944  0.836476  -0.305281
H    -0.865443  1.012118  -0.530607
H    -0.184691  -0.576396  -0.115673
N    -1.344755  0.546953  2.189108
C    -2.573633  -0.051237  1.689661
C    -3.751088  0.807067  2.214249
O    -4.357707  0.495079  3.237333
H    -1.304745  0.749601  3.186022
H    -2.545056  -0.015225  0.593168
C    -2.779625  -1.505975  2.142381
S    -1.515094  -2.681935  1.550273
H    -3.776181  -1.857625  1.850317
H    -2.740042  -1.557880  3.237083
H    -1.982936  -2.794046  0.284595
N    -4.061511  1.935403  1.511721
C    -3.351872  2.514964  0.383045
H    -4.782200  2.494819  1.957930
H    -3.917254  3.383510  0.029903
H    -3.281411  1.809783  -0.456792
H    -2.338765  2.849091  0.651317
