23
Energy: -24372.2030723 eV PBE+vdW (tier 2 basis)
C    0.791640  1.454951  1.349393
C    -0.354080  0.907630  2.175393
O    -1.508712  0.865455  1.748067
H    0.939702  0.797735  0.482857
H    1.736907  1.530027  1.900563
H    0.514008  2.444919  0.969074
N    -0.014018  0.455930  3.420348
C    -0.975449  -0.158264  4.316732
C    -1.218590  0.796205  5.508444
O    -0.383205  0.889582  6.409455
H    0.944539  0.543340  3.738290
H    -1.884130  -0.294037  3.718103
C    -0.505304  -1.514097  4.860127
S    -0.014581  -2.728872  3.593394
H    -1.285408  -1.936808  5.506067
H    0.383865  -1.374255  5.489543
H    -1.207844  -2.798874  2.958395
N    -2.357945  1.538875  5.498566
C    -3.428883  1.563817  4.509029
H    -2.446362  2.142021  6.311456
H    -3.033216  1.441808  3.493420
H    -3.924673  2.540037  4.558978
H    -4.186260  0.786877  4.697307
