23
Energy: -24372.2007859 eV PBE+vdW (tier 2 basis)
C    0.784521  -0.139067  0.266682
C    0.430470  -0.078283  1.738700
O    1.302767  0.060221  2.604436
H    1.493150  -0.961992  0.111959
H    1.298049  0.790286  -0.009383
H    -0.077962  -0.281887  -0.395196
N    -0.897873  -0.182885  2.028781
C    -1.508941  -0.191431  3.366243
C    -1.492111  1.192273  4.077220
O    -2.555009  1.734972  4.375601
H    -1.538928  -0.238566  1.247336
H    -2.577684  -0.373596  3.197718
C    -0.954658  -1.337752  4.228591
S    -1.935757  -1.451757  5.776306
H    0.098877  -1.168497  4.471005
H    -1.046191  -2.274168  3.663594
H    -1.185423  -2.435533  6.321234
N    -0.261056  1.693084  4.340335
C    -0.069233  2.965049  5.007902
H    0.541924  1.185811  3.956529
H    0.285887  3.739534  4.311459
H    0.660740  2.863305  5.821723
H    -1.031558  3.281879  5.423225
