23
Energy: -24372.745905 eV PBE+vdW (tier 2 basis)
C    0.151901  0.231651  0.142810
C    -0.058379  0.263944  1.639483
O    0.873389  0.397558  2.426303
H    -0.260666  1.140983  -0.317444
H    -0.318912  -0.649381  -0.307986
H    1.229726  0.205718  -0.038054
N    -1.349024  0.208816  2.150382
C    -2.631265  -0.164149  1.573726
C    -2.725110  -1.675816  1.233015
O    -1.777018  -2.298716  0.767831
H    -1.322352  0.221804  3.165732
H    -3.362349  0.069694  2.360127
C    -3.053148  0.643022  0.335648
S    -2.938620  2.437129  0.712684
H    -4.091769  0.393463  0.087298
H    -2.425805  0.394707  -0.527212
H    -3.740573  2.829568  -0.304404
N    -3.937847  -2.271376  1.446990
C    -5.128311  -1.710753  2.067689
H    -3.947656  -3.256124  1.199486
H    -5.499280  -0.824388  1.533660
H    -4.966739  -1.443532  3.122956
H    -5.920573  -2.465836  2.034338
