23
Energy: -24372.3374081 eV PBE+vdW (tier 2 basis)
C    -0.298567  -1.844907  0.126716
C    -0.207527  -0.948254  1.343282
O    0.642812  -1.119304  2.221531
H    -0.463776  -2.877217  0.459350
H    0.664032  -1.820900  -0.399004
H    -1.094055  -1.561022  -0.572893
N    -1.117002  0.070857  1.402986
C    -1.155951  1.002194  2.531573
C    -2.015535  0.397630  3.674321
O    -3.207654  0.667911  3.805246
H    -1.883049  0.087406  0.738679
H    -0.116886  1.100432  2.874429
C    -1.699289  2.357352  2.091114
S    -1.469673  3.666638  3.342290
H    -2.788157  2.292862  1.960768
H    -1.244448  2.666417  1.142431
H    -0.145625  3.848773  3.128269
N    -1.323538  -0.471113  4.455495
C    -1.955307  -1.251232  5.501923
H    -0.388229  -0.723595  4.136717
H    -2.116074  -2.294926  5.191723
H    -2.927537  -0.798821  5.722807
H    -1.337964  -1.244176  6.409249
