23
Energy: -24372.3122016 eV PBE+vdW (tier 2 basis)
C    -0.482385  -0.307708  -0.150036
C    -0.218002  -0.200174  1.339677
O    0.897171  -0.000191  1.805316
H    -1.462834  -0.736449  -0.390904
H    0.305623  -0.914339  -0.609533
H    -0.422107  0.697341  -0.589578
N    -1.330530  -0.360442  2.145254
C    -1.287307  0.025812  3.548331
C    -0.635635  -1.010052  4.493501
O    -0.357328  -0.689123  5.645997
H    -2.236605  -0.229982  1.696781
H    -0.673410  0.933412  3.662416
C    -2.705468  0.285867  4.082465
S    -3.732771  1.408568  3.070455
H    -2.631150  0.654415  5.110133
H    -3.282202  -0.650398  4.106708
H    -2.917517  2.487031  3.147273
N    -0.477274  -2.253625  3.974902
C    0.167425  -3.326940  4.704524
H    -0.669807  -2.360505  2.984818
H    0.267591  -3.007915  5.747418
H    1.169074  -3.539808  4.303482
H    -0.435550  -4.243794  4.663600
