23
Energy: -24372.9370692 eV PBE+vdW (tier 2 basis)
C    -0.412060  -0.531967  -0.554542
C    0.092892  -0.520611  0.874450
O    1.267916  -0.739707  1.148113
H    -0.566189  0.495475  -0.913725
H    -1.347839  -1.092127  -0.663513
H    0.359083  -0.999557  -1.172356
N    -0.787564  -0.185937  1.889143
C    -2.235076  -0.077584  1.883192
C    -2.928909  -1.435066  1.530568
O    -2.284765  -2.454984  1.310398
H    -0.350281  -0.295102  2.798900
H    -2.505993  0.135529  2.928518
C    -2.715737  1.134832  1.041178
S    -4.342196  1.847089  1.494438
H    -2.833724  0.869763  -0.016984
H    -1.957462  1.923478  1.103858
H    -4.006613  2.225426  2.751291
N    -4.286156  -1.397669  1.524598
C    -5.076815  -2.581384  1.231967
H    -4.751528  -0.504212  1.685095
H    -6.134261  -2.344969  1.389600
H    -4.790034  -3.410087  1.892169
H    -4.935272  -2.915694  0.194273
