23
Energy: -24372.2158831 eV PBE+vdW (tier 2 basis)
C    0.703284  0.390386  0.563477
C    0.180329  -0.238315  1.840321
O    0.616522  -1.303195  2.278273
H    1.781059  0.564827  0.670987
H    0.210947  1.335737  0.305846
H    0.568582  -0.322578  -0.259390
N    -0.799178  0.466960  2.482263
C    -1.488579  -0.067169  3.635455
C    -2.887027  0.578538  3.639891
O    -3.142227  1.526161  2.894971
H    -1.278680  1.252352  2.042254
H    -1.568295  -1.161245  3.506833
C    -0.691645  0.165222  4.939581
S    -0.608801  1.892930  5.518982
H    0.317661  -0.236727  4.794505
H    -1.141664  -0.383540  5.775816
H    -0.018276  2.391591  4.408106
N    -3.825195  0.070339  4.483385
C    -3.734602  -1.067109  5.381282
H    -4.694745  0.594543  4.467926
H    -3.054427  -1.827626  4.980459
H    -4.724489  -1.529634  5.472781
H    -3.392559  -0.784448  6.388994
