23
Energy: -24372.9170194 eV PBE+vdW (tier 2 basis)
C    -1.111470  0.792815  1.197580
C    0.094680  0.365147  2.009998
O    1.084583  1.078384  2.147703
H    -1.447268  0.014718  0.498680
H    -0.843695  1.695356  0.642523
H    -1.962699  1.021146  1.854882
N    0.031684  -0.863244  2.632241
C    -0.974063  -1.892104  2.460443
C    -2.413382  -1.525477  2.898836
O    -3.358189  -1.932591  2.225387
H    0.921293  -1.164932  3.029092
H    -1.096614  -2.157962  1.397043
C    -0.581867  -3.175881  3.217657
S    1.108320  -3.791748  2.893318
H    -1.318688  -3.954461  2.992096
H    -0.596419  -3.011115  4.304116
H    0.956493  -3.971633  1.559281
N    -2.615747  -0.802490  4.039742
C    -1.673015  -0.226284  4.990401
H    -3.603293  -0.635675  4.207901
H    -0.880518  -0.932557  5.262143
H    -2.226033  0.017994  5.904578
H    -1.197256  0.690233  4.614953
