23
Energy: -24372.2450145 eV PBE+vdW (tier 2 basis)
C    -2.347646  -0.380569  0.144234
C    -1.229858  -0.257450  1.160929
O    -0.047555  -0.196105  0.847157
H    -3.286528  -0.757373  0.569326
H    -2.022061  -1.038691  -0.667961
H    -2.537630  0.612516  -0.286098
N    -1.641187  -0.221725  2.479962
C    -0.738370  0.174568  3.552847
C    -0.168990  -0.996586  4.392220
O    0.491360  -0.769390  5.403546
H    -2.636787  -0.128719  2.655311
H    0.137354  0.634559  3.066077
C    -1.395508  1.178601  4.500807
S    -1.901075  2.671945  3.562327
H    -0.666620  1.438495  5.274011
H    -2.274013  0.728752  4.986213
H    -2.340344  3.368170  4.634516
N    -0.442316  -2.236775  3.915395
C    0.097495  -3.441768  4.512374
H    -0.960348  -2.289521  3.045504
H    0.614736  -3.152835  5.433582
H    0.816108  -3.932324  3.840494
H    -0.703218  -4.152775  4.757224
