23
Energy: -24373.1760773 eV PBE+vdW (tier 2 basis)
C    0.135606  -0.020574  0.243379
C    0.013512  -0.186634  1.744295
O    0.962934  -0.497192  2.455875
H    -0.445268  -0.792668  -0.280826
H    1.190869  -0.126668  -0.020173
H    -0.226383  0.959653  -0.096100
N    -1.226617  0.049750  2.312156
C    -2.504605  0.231080  1.644659
C    -3.194430  1.584418  1.965907
O    -4.360859  1.781812  1.633953
H    -1.247808  -0.186478  3.303164
H    -2.318105  0.253638  0.562609
C    -3.479812  -0.919637  1.925936
S    -2.996787  -2.510110  1.177053
H    -4.451043  -0.666683  1.484589
H    -3.635816  -1.044461  3.006843
H    -1.866362  -2.697083  1.899567
N    -2.407450  2.498193  2.590162
C    -2.862133  3.836875  2.912005
H    -1.453058  2.220523  2.794521
H    -2.296977  4.595178  2.352150
H    -2.758977  4.039617  3.986511
H    -3.919224  3.904962  2.633628
