23
Energy: -24373.1261842 eV PBE+vdW (tier 2 basis)
C    -1.238614  -0.202690  -0.536800
C    -0.772992  -0.277177  0.903606
O    0.416049  -0.359913  1.204140
H    -0.734697  0.640356  -1.024849
H    -2.323425  -0.083782  -0.645744
H    -0.924119  -1.116782  -1.055969
N    -1.772120  -0.222497  1.845317
C    -1.494526  -0.416827  3.260269
C    -1.799355  -1.883869  3.628649
O    -2.953514  -2.312073  3.561880
H    -2.728910  -0.380458  1.543404
H    -0.436399  -0.168602  3.392798
C    -2.353105  0.504488  4.134483
S    -1.972310  2.279570  3.942032
H    -2.154766  0.289031  5.192924
H    -3.419465  0.311967  3.961859
H    -2.160302  2.319349  2.601667
N    -0.754530  -2.663591  4.014159
C    0.662477  -2.319176  4.067061
H    -1.026971  -3.612716  4.252570
H    0.916453  -1.740124  4.967899
H    0.965124  -1.755240  3.175611
H    1.240236  -3.249521  4.090512
