23
Energy: -24372.9688292 eV PBE+vdW (tier 2 basis)
C    0.185617  0.604810  0.749431
C    -0.042195  0.021389  2.134161
O    0.890741  -0.264672  2.878034
H    -0.245858  -0.028522  -0.038397
H    1.265136  0.676159  0.594559
H    -0.252029  1.607856  0.647428
N    -1.343855  -0.158003  2.544739
C    -2.556438  -0.035780  1.755124
C    -3.681071  0.679570  2.547066
O    -4.797453  0.175699  2.673775
H    -1.428311  -0.692048  3.408348
H    -2.327872  0.607173  0.889815
C    -3.046598  -1.386455  1.205010
S    -3.267101  -2.695232  2.463562
H    -2.287231  -1.781698  0.517921
H    -3.982311  -1.256844  0.650101
H    -4.374110  -2.139193  3.010927
N    -3.395232  1.896997  3.091041
C    -2.197371  2.713324  2.965528
H    -4.180263  2.286035  3.603785
H    -2.445244  3.733306  3.278836
H    -1.853075  2.766667  1.923906
H    -1.370344  2.345274  3.586846
