23
Energy: -24373.2009588 eV PBE+vdW (tier 2 basis)
C    -0.086661  0.006836  -0.059834
C    -0.037353  0.056211  1.453594
O    1.038050  0.153196  2.057922
H    0.505436  -0.851931  -0.399975
H    0.391639  0.910692  -0.456792
H    -1.099670  -0.073767  -0.471724
N    -1.243133  -0.013772  2.085763
C    -1.475055  -0.036647  3.540363
C    -1.206872  1.333578  4.224623
O    -2.123677  1.946584  4.769129
H    -2.070897  -0.036469  1.503245
H    -2.553482  -0.182790  3.669232
C    -0.748476  -1.214254  4.215985
S    -1.303337  -1.528711  5.926197
H    0.338450  -1.091173  4.187370
H    -0.992284  -2.138842  3.675279
H    -0.903910  -0.342728  6.443634
N    0.084474  1.749190  4.200812
C    0.480422  3.029862  4.756006
H    0.726944  1.234895  3.588691
H    1.552390  3.009060  4.981729
H    -0.082766  3.217181  5.677152
H    0.279168  3.862321  4.063425
