23
Energy: -24372.2142035 eV PBE+vdW (tier 2 basis)
C    0.542748  0.949865  0.420224
C    -0.038063  0.692059  1.795472
O    -0.512584  1.592462  2.487661
H    1.254347  1.781021  0.486365
H    -0.270070  1.263396  -0.247569
H    1.040899  0.076200  -0.017271
N    -0.018944  -0.615647  2.199699
C    -0.456743  -1.007023  3.516440
C    0.613502  -1.935522  4.117560
O    1.269230  -2.685294  3.393134
H    0.512730  -1.311721  1.684711
H    -0.565532  -0.077502  4.093160
C    -1.805980  -1.764359  3.524917
S    -3.178914  -0.918411  2.672984
H    -2.092502  -1.996946  4.559531
H    -1.695344  -2.719092  2.992127
H    -3.018330  0.285925  3.269474
N    0.761917  -1.924012  5.470657
C    0.133373  -1.026915  6.429868
H    1.457079  -2.581417  5.810165
H    0.341119  0.028412  6.204466
H    0.542816  -1.244916  7.421463
H    -0.955749  -1.168560  6.481765
