23
Energy: -24372.8354692 eV PBE+vdW (tier 2 basis)
C    -0.352584  -0.227402  -0.235923
C    -0.015642  -0.226416  1.243253
O    1.135992  -0.368480  1.642075
H    -0.863710  -1.161359  -0.507502
H    0.588431  -0.168666  -0.788900
H    -0.995481  0.611346  -0.531547
N    -1.040258  -0.076884  2.152653
C    -2.477260  0.095530  1.962057
C    -3.062881  -1.022973  1.057344
O    -2.937761  -2.198240  1.379588
H    -0.715781  -0.168829  3.110293
H    -2.930343  -0.120748  2.940159
C    -2.839842  1.555750  1.622805
S    -4.557158  2.052314  2.021841
H    -2.587400  1.827239  0.587306
H    -2.230427  2.207819  2.261169
H    -5.186977  1.090336  1.306370
N    -3.732912  -0.626300  -0.063347
C    -4.281108  -1.586673  -1.004940
H    -3.687480  0.345665  -0.343514
H    -5.187875  -1.179587  -1.467217
H    -4.526979  -2.502265  -0.457557
H    -3.559758  -1.843469  -1.795999
