23
Energy: -24372.9246136 eV PBE+vdW (tier 2 basis)
C    -0.033677  -0.278284  0.016210
C    0.025232  -0.163509  1.524360
O    1.094743  -0.163175  2.128908
H    0.995617  -0.255360  -0.350769
H    -0.602194  0.538442  -0.445073
H    -0.501187  -1.226859  -0.280702
N    -1.146488  -0.069953  2.253026
C    -2.563704  -0.031985  1.902993
C    -2.907225  -0.841376  0.626865
O    -2.846279  -2.067755  0.649949
H    -0.944513  -0.068817  3.249872
H    -3.073152  -0.626422  2.680248
C    -3.159312  1.386199  2.043856
S    -2.511337  2.697962  0.940879
H    -3.026824  1.720434  3.081278
H    -4.239893  1.359618  1.846716
H    -1.208149  2.528767  1.272030
N    -3.319268  -0.127002  -0.451453
C    -3.617622  -0.778003  -1.714178
H    -3.141798  0.879136  -0.442739
H    -4.217920  -0.103960  -2.334728
H    -4.180767  -1.698034  -1.524214
H    -2.701263  -1.050025  -2.261669
