23
Energy: -24373.099013 eV PBE+vdW (tier 2 basis)
C    0.682575  -0.857235  0.569802
C    0.092219  0.246888  1.422584
O    0.700639  1.279062  1.685044
H    1.766196  -0.885779  0.719822
H    0.488981  -0.614242  -0.484596
H    0.254383  -1.845044  0.781992
N    -1.182328  0.001460  1.892162
C    -2.017969  1.088300  2.389668
C    -2.324888  2.084253  1.223247
O    -2.192403  1.733910  0.053202
H    -1.680460  -0.752082  1.431531
H    -2.983923  0.625569  2.650223
C    -1.410506  1.670878  3.684878
S    -2.525171  2.675820  4.734575
H    -0.569699  2.332645  3.449717
H    -1.017221  0.842858  4.285572
H    -3.487358  1.739080  4.918177
N    -2.794232  3.300773  1.586720
C    -3.173685  4.293417  0.596911
H    -2.937823  3.490812  2.579251
H    -3.513186  5.194991  1.117487
H    -3.982470  3.924083  -0.049373
H    -2.321265  4.550051  -0.046062
