23
Energy: -24373.1053318 eV PBE+vdW (tier 2 basis)
C    -0.167781  1.275823  1.468529
C    0.133798  -0.175722  1.797699
O    1.194729  -0.521709  2.308016
H    0.742336  1.853279  1.650065
H    -0.963293  1.667707  2.119805
H    -0.487115  1.407717  0.426382
N    -0.830525  -1.111437  1.495363
C    -2.182749  -0.897174  1.025929
C    -3.150731  -1.631913  1.977830
O    -2.870789  -2.739119  2.429542
H    -0.640688  -2.047456  1.852692
H    -2.391970  0.179991  1.019586
C    -2.406471  -1.455260  -0.398374
S    -1.442408  -0.619082  -1.701423
H    -3.456066  -1.318135  -0.693383
H    -2.197724  -2.532588  -0.410372
H    -0.224907  -0.979866  -1.230176
N    -4.324128  -0.983936  2.219830
C    -5.381744  -1.548865  3.039596
H    -4.448617  -0.056161  1.832914
H    -6.313341  -1.653666  2.466926
H    -5.573393  -0.926036  3.923908
H    -5.049747  -2.539078  3.368047
