23
Energy: -24373.2057029 eV PBE+vdW (tier 2 basis)
C    -1.737775  -0.490852  0.505038
C    -1.018718  0.502934  1.391605
O    0.075946  0.982040  1.070618
H    -1.691425  -0.141823  -0.532276
H    -2.783765  -0.659626  0.788076
H    -1.203514  -1.449123  0.558333
N    -1.651334  0.817265  2.558047
C    -1.098762  1.583548  3.684056
C    -0.945259  3.114323  3.455473
O    -1.383174  3.893205  4.302031
H    -2.554637  0.389777  2.719238
H    -1.853459  1.517991  4.476397
C    0.211823  0.997221  4.228317
S    -0.054086  -0.762272  4.697582
H    0.491474  1.570653  5.119343
H    1.011772  1.061192  3.483291
H    1.034850  -0.861938  5.492421
N    -0.284247  3.474998  2.330374
C    -0.039570  4.860941  1.983974
H    0.046882  2.718183  1.719721
H    -0.481994  5.491517  2.762325
H    -0.495526  5.111572  1.015813
H    1.038467  5.068257  1.926516
