23
Energy: -24372.162822 eV PBE+vdW (tier 2 basis)
C    0.439788  -0.633094  0.399134
C    0.225281  -0.569955  1.897672
O    1.057957  -0.996010  2.697797
H    1.375154  -0.113066  0.158965
H    -0.375736  -0.188060  -0.183469
H    0.561865  -1.682590  0.103757
N    -0.949238  0.010547  2.296639
C    -1.330094  0.108491  3.697316
C    -2.284999  -1.056085  4.052062
O    -3.427272  -1.082021  3.590906
H    -1.654370  0.227763  1.600646
H    -0.393358  0.052373  4.263598
C    -2.042979  1.427463  3.996666
S    -0.979353  2.830299  3.477120
H    -2.232282  1.490865  5.075289
H    -3.006533  1.456725  3.473069
H    -1.709491  3.784001  4.097892
N    -1.806941  -2.036496  4.862763
C    -0.479089  -2.168898  5.452784
H    -2.490646  -2.762805  5.055315
H    -0.365216  -1.556952  6.360829
H    0.299888  -1.899482  4.728442
H    -0.331335  -3.218013  5.731809
