23
Energy: -24373.1623357 eV PBE+vdW (tier 2 basis)
C    -0.231779  -0.171477  0.306493
C    -0.432954  0.496456  1.655229
O    0.256234  1.438552  2.032968
H    -0.068585  0.602622  -0.451294
H    -1.067459  -0.812641  -0.000241
H    0.679223  -0.783798  0.350919
N    -1.454938  -0.025753  2.418211
C    -1.662853  0.283188  3.833430
C    -2.261744  1.684416  4.120377
O    -2.319687  2.094930  5.277076
H    -1.883072  -0.880237  2.082535
H    -2.434167  -0.423804  4.174363
C    -0.419797  0.067285  4.712090
S    0.184562  -1.653986  4.731258
H    -0.695030  0.300837  5.746383
H    0.390327  0.741288  4.417584
H    0.800525  -1.628035  3.526439
N    -2.761899  2.348492  3.048491
C    -3.313458  3.685138  3.151155
H    -2.577941  1.955129  2.133515
H    -4.265125  3.754032  2.608222
H    -2.618458  4.438684  2.752287
H    -3.486560  3.895090  4.211823
