23
Energy: -24372.3671789 eV PBE+vdW (tier 2 basis)
C    -0.040051  -0.959262  0.235685
C    -0.337376  -0.655885  1.687564
O    -0.100252  -1.470624  2.588491
H    1.038518  -1.131662  0.130038
H    -0.340975  -0.159898  -0.451812
H    -0.549772  -1.888619  -0.045564
N    -0.882846  0.565517  1.942611
C    -1.085231  1.076782  3.298348
C    -2.420481  0.557206  3.912841
O    -3.380926  1.300851  4.107296
H    -1.016109  1.213715  1.173915
H    -0.255000  0.689233  3.910675
C    -1.082931  2.599961  3.308836
S    0.484967  3.220097  2.579952
H    -1.177946  2.944208  4.343654
H    -1.944022  2.982382  2.747432
H    0.167062  4.531022  2.668312
N    -2.385094  -0.766324  4.202851
C    -3.538549  -1.486059  4.705752
H    -1.552745  -1.279067  3.893438
H    -3.263305  -2.091590  5.579298
H    -3.965619  -2.149794  3.939125
H    -4.298315  -0.754187  4.999263
