23
Energy: -24372.2623334 eV PBE+vdW (tier 2 basis)
C    1.384963  1.061288  0.489724
C    0.381451  0.770044  1.588884
O    -0.494274  1.572520  1.911842
H    2.105227  0.251064  0.323778
H    1.929362  1.978674  0.745501
H    0.840136  1.253767  -0.442769
N    0.517536  -0.445479  2.199520
C    -0.352806  -0.866293  3.282681
C    0.485721  -1.793759  4.176512
O    1.201423  -2.652919  3.653721
H    1.242562  -1.105094  1.931117
H    -0.691372  0.041161  3.798141
C    -1.581915  -1.611183  2.714359
S    -2.877391  -2.046223  3.927036
H    -1.257692  -2.566467  2.280713
H    -2.024360  -1.004576  1.916442
H    -3.376999  -0.796559  4.068478
N    0.420979  -1.632456  5.521767
C    -0.352660  -0.663003  6.285494
H    0.976986  -2.310773  6.033584
H    -0.139099  0.366077  5.966719
H    -0.063541  -0.751761  7.337924
H    -1.432237  -0.849048  6.203832
