23
Energy: -24372.0822002 eV PBE+vdW (tier 2 basis)
C    -1.281539  -0.755569  -0.881667
C    -1.807148  0.039623  0.304434
O    -2.542854  1.010489  0.156330
H    -0.184092  -0.736863  -0.936899
H    -1.686797  -0.304068  -1.790749
H    -1.597387  -1.808006  -0.838442
N    -1.438174  -0.382549  1.556227
C    -0.569715  -1.475211  1.914784
C    -1.032706  -2.018467  3.281939
O    -1.590201  -1.294389  4.102536
H    -1.814403  0.150095  2.339393
H    -0.666010  -2.278612  1.166308
C    0.939198  -1.102819  1.970098
S    1.390951  0.288445  3.056198
H    1.256092  -0.771457  0.972293
H    1.534409  -1.991693  2.223378
H    0.920889  -0.240716  4.210124
N    -0.727783  -3.326360  3.510819
C    -1.013610  -3.993146  4.769052
H    -0.297458  -3.859335  2.764555
H    -0.089756  -4.318389  5.267238
H    -1.662391  -4.865404  4.613612
H    -1.531515  -3.274601  5.412436
