23
Energy: -24372.9514574 eV PBE+vdW (tier 2 basis)
C    -0.245196  -0.076524  -0.012316
C    -0.380057  -0.161750  1.497125
O    0.100290  -1.083843  2.149432
H    0.820668  -0.065684  -0.271259
H    -0.728795  0.804418  -0.452993
H    -0.677940  -0.981970  -0.456124
N    -1.082692  0.862809  2.077818
C    -1.311707  0.944024  3.501608
C    -2.570199  0.265359  4.103479
O    -2.618076  0.170669  5.329508
H    -1.497271  1.582363  1.494782
H    -0.490196  0.386112  3.977339
C    -1.241966  2.396180  3.992430
S    -2.430374  3.533908  3.166493
H    -0.232179  2.801197  3.868148
H    -1.496509  2.415132  5.057564
H    -1.593002  3.975607  2.199976
N    -3.580120  -0.223167  3.329051
C    -3.855870  -0.120318  1.902928
H    -4.296153  -0.658794  3.902648
H    -3.191317  -0.753266  1.299656
H    -3.793211  0.916564  1.548501
H    -4.884627  -0.460695  1.739879
