23
Energy: -24372.9743518 eV PBE+vdW (tier 2 basis)
C    -0.080617  -0.008173  -0.980750
C    -0.330278  0.726851  0.323329
O    0.286661  1.740193  0.639756
H    -0.674684  -0.923273  -1.093753
H    0.984644  -0.261372  -1.046557
H    -0.305566  0.670121  -1.813481
N    -1.271613  0.160570  1.143926
C    -1.780048  0.847210  2.317564
C    -0.746758  1.318470  3.369623
O    -0.971791  2.369385  3.963726
H    -1.893892  -0.549767  0.760972
H    -2.269032  1.790493  2.024904
C    -2.805943  -0.037710  3.046735
S    -4.126757  -0.735310  1.987068
H    -2.321417  -0.924063  3.479592
H    -3.249636  0.534331  3.868462
H    -4.656990  0.448808  1.596631
N    0.305491  0.520673  3.720910
C    0.822529  -0.694874  3.113713
H    0.899967  0.979221  4.405046
H    1.493676  -1.175891  3.834935
H    1.388190  -0.497908  2.190316
H    0.020013  -1.403386  2.883438
