23
Energy: -24373.2645228 eV PBE+vdW (tier 2 basis)
C    0.115143  0.198717  0.029467
C    0.010363  0.157144  1.541783
O    1.001259  0.155379  2.272051
H    0.687792  -0.674852  -0.306357
H    0.681839  1.091781  -0.261551
H    -0.856843  0.208972  -0.478078
N    -1.263215  0.138735  2.040310
C    -1.528276  -0.056499  3.447449
C    -2.946633  -0.657980  3.546037
O    -3.637863  -0.828560  2.542302
H    -2.069196  -0.048717  1.443383
H    -0.794568  -0.782137  3.843937
C    -1.349476  1.242539  4.260645
S    -2.592832  2.540643  3.933344
H    -0.339198  1.627638  4.081380
H    -1.430124  1.042917  5.338198
H    -2.300750  2.679721  2.618710
N    -3.348905  -0.989614  4.799195
C    -4.676257  -1.500238  5.090154
H    -2.725059  -0.796552  5.573138
H    -4.616373  -2.419217  5.687636
H    -5.163292  -1.722875  4.135716
H    -5.281200  -0.758312  5.630746
