23
Energy: -24372.9988154 eV PBE+vdW (tier 2 basis)
C    -0.516389  -1.818352  1.223058
C    -0.404845  -0.667609  2.199751
O    0.589163  -0.525307  2.903972
H    0.449858  -1.922274  0.719634
H    -1.300127  -1.714695  0.469770
H    -0.692333  -2.736804  1.801897
N    -1.487774  0.184664  2.395562
C    -2.633940  0.508098  1.548977
C    -3.497568  -0.711936  1.149941
O    -4.055014  -0.776158  0.056099
H    -1.241487  0.898429  3.078153
H    -3.305785  1.091482  2.205414
C    -2.348153  1.446864  0.361978
S    -1.237873  0.854438  -0.958627
H    -1.860041  2.351314  0.748288
H    -3.301721  1.747415  -0.087134
H    -2.124518  -0.024191  -1.483161
N    -3.643863  -1.636848  2.135159
C    -4.392054  -2.864914  1.952236
H    -3.071218  -1.519371  2.964492
H    -5.061426  -3.040138  2.804071
H    -3.724261  -3.732386  1.840088
H    -4.988840  -2.762265  1.040024
