23
Energy: -24372.8571224 eV PBE+vdW (tier 2 basis)
C    -0.112759  0.278218  0.097190
C    -0.062010  -0.023470  1.579246
O    0.989973  -0.008985  2.213648
H    0.849416  0.713424  -0.184864
H    -0.262313  -0.646813  -0.476981
H    -0.925061  0.959572  -0.180163
N    -1.234353  -0.355409  2.230420
C    -2.622392  -0.407020  1.767204
C    -2.789562  -1.237170  0.468591
O    -3.183463  -0.730325  -0.578230
H    -1.076942  -0.521995  3.220182
H    -3.169685  -0.942144  2.558011
C    -3.269551  0.977934  1.612404
S    -5.098669  0.931882  1.619646
H    -3.002688  1.413739  0.643233
H    -2.914241  1.644191  2.405680
H    -5.239683  0.935424  2.966337
N    -2.469938  -2.561422  0.546418
C    -1.981707  -3.315840  1.689184
H    -2.573976  -3.048452  -0.338070
H    -2.110344  -4.383316  1.479975
H    -2.560401  -3.089130  2.594866
H    -0.919406  -3.124417  1.898309
