23
Energy: -24372.9288298 eV PBE+vdW (tier 2 basis)
C    -0.849500  0.784533  1.031920
C    0.236972  0.183569  1.901335
O    1.294402  0.763506  2.135819
H    -1.125953  0.119329  0.202208
H    -0.477118  1.729085  0.627780
H    -1.761997  0.978116  1.614259
N    -0.006114  -1.063111  2.432709
C    -1.256694  -1.789371  2.437163
C    -2.397619  -1.303997  3.374383
O    -3.544737  -1.645482  3.082971
H    0.716973  -1.377923  3.076093
H    -1.720754  -1.693842  1.443987
C    -1.024851  -3.296520  2.632359
S    -0.155765  -3.777146  4.175567
H    -0.473908  -3.709885  1.780208
H    -2.001872  -3.790880  2.680049
H    1.106287  -3.667629  3.699383
N    -2.152165  -0.507890  4.452301
C    -0.907478  -0.119725  5.111011
H    -3.015520  -0.271298  4.932485
H    -0.241825  -0.980057  5.251232
H    -1.165945  0.262740  6.104555
H    -0.370932  0.671348  4.571084
