23
Energy: -24372.2252871 eV PBE+vdW (tier 2 basis)
C    1.330632  1.611488  1.185033
C    0.159424  0.869106  1.798522
O    -0.808633  0.508128  1.136599
H    2.172507  1.750677  1.873832
H    0.981828  2.595472  0.845432
H    1.673154  1.062582  0.300155
N    0.276989  0.615367  3.147937
C    -0.848107  0.130423  3.919410
C    -1.231435  1.210700  4.948287
O    -0.372990  1.950059  5.432134
H    0.951139  1.158620  3.683520
H    -1.654207  -0.064161  3.199744
C    -0.508694  -1.166545  4.682355
S    -0.249169  -2.622100  3.616603
H    -1.343183  -1.449036  5.338655
H    0.367592  -1.000620  5.323311
H    0.708473  -2.057885  2.844210
N    -2.537760  1.269312  5.325575
C    -3.657753  0.523198  4.768664
H    -2.729773  1.972327  6.032279
H    -3.590621  -0.553600  4.981771
H    -3.742039  0.660713  3.681956
H    -4.579373  0.895778  5.227015
