23
Energy: -24372.9280051 eV PBE+vdW (tier 2 basis)
C    -1.117524  -1.127632  0.146632
C    -0.525747  -0.556041  1.425515
O    0.388126  -1.110167  2.025659
H    -0.938754  -0.456874  -0.706652
H    -2.202291  -1.286302  0.230512
H    -0.631953  -2.086492  -0.051315
N    -1.080971  0.610433  1.899076
C    -2.030758  1.454069  1.213557
C    -1.387246  2.273959  0.068072
O    -0.276982  2.786207  0.191077
H    -0.570974  1.049135  2.666313
H    -2.833376  0.822028  0.807205
C    -2.707773  2.424598  2.205483
S    -1.568987  3.400474  3.255109
H    -3.309527  1.846193  2.918445
H    -3.381862  3.098705  1.661089
H    -0.791722  3.853035  2.238507
N    -2.128412  2.436635  -1.068530
C    -3.431113  1.872851  -1.389090
H    -1.672247  3.016067  -1.766578
H    -4.217594  2.215018  -0.700785
H    -3.417299  0.772875  -1.392986
H    -3.709424  2.202738  -2.395355
