23
Energy: -24372.963751 eV PBE+vdW (tier 2 basis)
C    -0.056383  0.050172  0.045402
C    -0.003459  0.141912  1.555677
O    1.048569  0.362940  2.148052
H    0.284784  -0.952038  -0.252505
H    0.657430  0.776266  -0.356017
H    -1.041728  0.236774  -0.389304
N    -1.145418  -0.128340  2.303636
C    -2.563573  -0.110669  1.950948
C    -2.946017  -1.030970  0.764602
O    -3.855392  -0.740568  -0.006221
H    -0.942090  -0.025131  3.295479
H    -3.067353  -0.589222  2.810810
C    -3.214915  1.281303  1.850769
S    -2.529904  2.468041  0.646469
H    -3.220546  1.751881  2.841375
H    -4.256026  1.140697  1.536046
H    -1.433108  2.805618  1.364764
N    -2.260981  -2.205944  0.729424
C    -2.462661  -3.197345  -0.308651
H    -1.485865  -2.309752  1.375341
H    -2.557061  -4.200213  0.127045
H    -1.633638  -3.200536  -1.032499
H    -3.387344  -2.945322  -0.838067
