23
Energy: -24372.2093523 eV PBE+vdW (tier 2 basis)
C    -4.105187  0.460566  2.213975
C    -2.731511  0.084643  2.736637
O    -2.394814  -1.081480  2.927656
H    -4.269670  -0.051014  1.257909
H    -4.246340  1.538993  2.070874
H    -4.861177  0.090899  2.917952
N    -1.884927  1.136416  2.975707
C    -0.573189  0.949363  3.585341
C    -0.046363  2.264851  4.177909
O    0.438823  2.312252  5.303176
H    -2.240620  2.081505  2.899003
H    -0.675802  0.261232  4.437719
C    0.436138  0.279208  2.623738
S    0.783624  1.164747  1.057859
H    0.014795  -0.686652  2.322154
H    1.379121  0.087532  3.148137
H    1.825092  1.901541  1.507602
N    -0.176892  3.357551  3.361357
C    0.369737  4.648082  3.749063
H    -0.275119  3.160635  2.364357
H    0.185581  4.802518  4.817178
H    -0.125003  5.440297  3.176112
H    1.456702  4.708314  3.582588
