23
Energy: -24372.5481843 eV PBE+vdW (tier 2 basis)
C    0.568558  0.081348  0.532541
C    0.267095  -0.175254  1.992901
O    1.168360  -0.292278  2.835995
H    1.228338  -0.712166  0.160872
H    1.117411  1.027976  0.449294
H    -0.327504  0.132453  -0.097180
N    -1.048275  -0.263868  2.319933
C    -1.533326  -0.446770  3.680777
C    -1.482993  -1.934774  4.135052
O    -2.502677  -2.578238  4.394098
H    -1.769755  -0.274407  1.599219
H    -0.852112  0.115269  4.340952
C    -2.940144  0.139815  3.822324
S    -4.130946  -0.381282  2.532330
H    -2.894452  1.232848  3.738236
H    -3.348346  -0.117674  4.805047
H    -4.126976  -1.685257  2.903102
N    -0.220339  -2.415960  4.224657
C    0.073789  -3.791923  4.573104
H    0.534486  -1.782646  3.938693
H    -0.864863  -4.283492  4.849162
H    0.767094  -3.837825  5.423842
H    0.522580  -4.330893  3.726047
