23
Energy: -24372.5256524 eV PBE+vdW (tier 2 basis)
C    -1.968476  1.604117  0.150642
C    -2.232862  0.507706  1.159309
O    -3.221960  -0.234699  1.074058
H    -1.075900  2.199907  0.375264
H    -2.843364  2.264081  0.105304
H    -1.852167  1.147595  -0.840531
N    -1.318449  0.386355  2.156391
C    -1.371754  -0.646381  3.181719
C    -2.350248  -0.286497  4.337564
O    -1.961830  -0.093113  5.491954
H    -0.572946  1.072491  2.272625
H    -1.764099  -1.556398  2.698340
C    0.035815  -0.943357  3.705026
S    1.012808  0.529917  4.182890
H    0.626860  -1.429781  2.918939
H    -0.026559  -1.619788  4.563629
H    0.194673  0.874042  5.207601
N    -3.642327  -0.230696  3.935902
C    -4.726345  0.140903  4.823627
H    -3.819126  -0.371595  2.935149
H    -5.516352  -0.622081  4.812081
H    -5.167052  1.105972  4.533901
H    -4.324339  0.225299  5.838615
