23
Energy: -24372.1197721 eV PBE+vdW (tier 2 basis)
C    -1.099918  -0.590889  -0.939864
C    -1.892059  -0.066010  0.246005
O    -2.793433  0.754524  0.104125
H    -0.904757  -1.670617  -0.888997
H    -0.129193  -0.079083  -1.004368
H    -1.665579  -0.366029  -1.848014
N    -1.548075  -0.520401  1.497052
C    -0.618659  -1.563109  1.865447
C    -1.072250  -2.079609  3.256506
O    -1.980698  -1.533652  3.874777
H    -2.171619  -0.244155  2.259379
H    -0.687878  -2.408242  1.156158
C    0.854146  -1.091082  1.872277
S    1.259725  0.147516  3.148001
H    1.118960  -0.703832  0.880922
H    1.531696  -1.932956  2.072793
H    0.314643  1.040529  2.769449
N    -0.401455  -3.170288  3.711250
C    -0.635397  -3.740262  5.026629
H    0.352961  -3.546482  3.150364
H    0.177898  -3.492512  5.723961
H    -0.733078  -4.831200  4.960481
H    -1.567980  -3.317158  5.412668
