23
Energy: -24372.841633 eV PBE+vdW (tier 2 basis)
C    0.006863  0.174574  -0.023027
C    -0.008047  0.194211  1.494255
O    1.008468  0.352543  2.162255
H    0.540484  1.062314  -0.381774
H    -0.991312  0.146399  -0.477418
H    0.572852  -0.705285  -0.355299
N    -1.245322  0.029889  2.072071
C    -1.393867  -0.165299  3.518929
C    -2.733151  -0.870419  3.806549
O    -2.748118  -1.994511  4.296425
H    -2.011532  -0.257938  1.474137
H    -0.631402  -0.878736  3.858830
C    -1.169281  1.152046  4.291516
S    -1.303914  0.994443  6.102167
H    -1.814897  1.958441  3.928482
H    -0.130242  1.458755  4.120170
H    -2.601239  0.606474  6.146566
N    -3.909142  -0.244391  3.465016
C    -4.168142  1.130739  3.061066
H    -4.716083  -0.804702  3.726202
H    -3.390426  1.498465  2.383107
H    -4.235919  1.818753  3.918845
H    -5.121315  1.162878  2.520152
