23
Energy: -24372.9229372 eV PBE+vdW (tier 2 basis)
C    -0.753554  -0.500212  -0.796501
C    -0.091909  -0.246920  0.541637
O    1.126979  -0.141762  0.653630
H    -1.675381  -1.090130  -0.748195
H    -0.024952  -0.997314  -1.443312
H    -1.003234  0.468260  -1.253981
N    -0.888304  -0.092583  1.658353
C    -2.332799  -0.228203  1.829946
C    -2.882490  -1.594234  1.345185
O    -3.792856  -1.664609  0.520729
H    -0.344715  0.141735  2.483247
H    -2.492847  -0.192311  2.919356
C    -3.149143  0.919008  1.221031
S    -2.772023  2.543574  1.960636
H    -4.214205  0.751157  1.419717
H    -3.036464  0.960708  0.132782
H    -1.482559  2.605980  1.551322
N    -2.323983  -2.715621  1.885215
C    -1.288228  -2.834187  2.899727
H    -2.718901  -3.571596  1.508093
H    -1.340260  -3.840820  3.329101
H    -0.278918  -2.678000  2.493509
H    -1.448109  -2.121783  3.720073
