23
Energy: -24373.1464542 eV PBE+vdW (tier 2 basis)
C    -0.718234  0.855413  -0.627340
C    0.011575  0.221401  0.539601
O    1.225025  0.053547  0.549557
H    -1.415374  0.142189  -1.090472
H    0.024040  1.159625  -1.369277
H    -1.309072  1.728332  -0.319280
N    -0.754067  -0.153219  1.635319
C    -2.203233  -0.266980  1.670585
C    -2.951202  1.080757  1.822208
O    -4.133600  1.171467  1.502174
H    -0.248081  -0.782367  2.259766
H    -2.597443  -0.712496  0.742757
C    -2.649243  -1.146501  2.853661
S    -1.856817  -2.789432  2.957708
H    -3.739030  -1.247017  2.825386
H    -2.383469  -0.661753  3.804361
H    -2.292303  -3.251509  1.761179
N    -2.214187  2.080802  2.370869
C    -2.744724  3.405687  2.623101
H    -1.233555  1.879525  2.543511
H    -2.660907  3.669063  3.686336
H    -3.802476  3.400561  2.338873
H    -2.218515  4.165543  2.028366
