23
Energy: -24372.1121978 eV PBE+vdW (tier 2 basis)
C    -0.069456  -1.030028  0.063197
C    0.014426  -0.561017  1.503189
O    1.073440  -0.210001  2.021851
H    0.620898  -1.871477  -0.072440
H    0.271838  -0.218487  -0.591551
H    -1.076510  -1.337793  -0.243317
N    -1.170048  -0.555419  2.186655
C    -1.260804  -0.143673  3.575275
C    -2.435534  -0.924677  4.182731
O    -3.481652  -1.054381  3.540672
H    -2.042740  -0.843397  1.752577
H    -0.300926  -0.375141  4.052764
C    -1.503843  1.381352  3.657488
S    -1.509553  2.107137  5.333122
H    -2.435482  1.638803  3.138947
H    -0.673338  1.880667  3.143000
H    -2.712714  1.621130  5.717623
N    -2.288522  -1.438834  5.431224
C    -1.087174  -1.473553  6.257659
H    -3.102506  -1.957125  5.748429
H    -0.316673  -2.139425  5.841355
H    -1.366038  -1.851340  7.247026
H    -0.668087  -0.468322  6.386526
