23
Energy: -24372.8790677 eV PBE+vdW (tier 2 basis)
C    -0.767728  0.104301  0.043962
C    -0.399342  -0.610847  1.332022
O    0.693811  -1.145582  1.489216
H    -0.248680  -0.376345  -0.790893
H    -0.414149  1.142608  0.114660
H    -1.847209  0.119916  -0.154769
N    -1.401681  -0.617913  2.275955
C    -1.253321  -0.897033  3.693656
C    -0.739329  0.371829  4.433026
O    -0.157278  1.272052  3.839225
H    -2.215985  -0.062219  2.042266
H    -2.264506  -1.134048  4.059407
C    -0.352968  -2.104491  4.021286
S    -0.938703  -3.695773  3.348493
H    -0.334404  -2.251701  5.107738
H    0.668282  -1.924948  3.676973
H    -0.497436  -3.476279  2.087735
N    -0.979199  0.448776  5.779711
C    -1.643412  -0.495583  6.661056
H    -0.568831  1.276848  6.201481
H    -2.108011  0.053412  7.488827
H    -0.953045  -1.239839  7.089178
H    -2.443213  -1.031167  6.136336
