23
Energy: -24372.2760135 eV PBE+vdW (tier 2 basis)
C    -0.849279  0.352032  -0.120695
C    -0.939028  -0.158621  1.303727
O    -1.012090  -1.358186  1.565252
H    -1.732455  0.009050  -0.673706
H    0.030434  -0.096496  -0.598557
H    -0.779272  1.443913  -0.196632
N    -0.913216  0.809679  2.275423
C    -1.068370  0.492785  3.689238
C    -2.480252  0.928434  4.131972
O    -2.752090  2.127955  4.234157
H    -1.008318  1.782809  2.003898
H    -0.930858  -0.590557  3.767767
C    -0.003707  1.204942  4.526836
S    -0.049673  0.741895  6.294143
H    -0.100842  2.293858  4.438561
H    0.991877  0.912330  4.170950
H    -1.130952  1.490217  6.613198
N    -3.398476  -0.046362  4.350929
C    -3.203465  -1.492307  4.324789
H    -4.305112  0.309849  4.638992
H    -2.664929  -1.803833  3.421192
H    -4.189375  -1.969329  4.311843
H    -2.658548  -1.849061  5.211724
