23
Energy: -24372.1444968 eV PBE+vdW (tier 2 basis)
C    -0.017477  0.686080  0.328318
C    -0.478760  -0.035689  1.578388
O    -0.292090  -1.238149  1.751459
H    1.079892  0.723409  0.332910
H    -0.402828  1.709559  0.244716
H    -0.324177  0.105570  -0.549096
N    -1.083864  0.759080  2.518761
C    -1.683836  0.198301  3.707282
C    -3.112021  0.761935  3.828171
O    -3.397777  1.852318  3.331129
H    -1.418462  1.686175  2.266833
H    -1.685657  -0.893204  3.567843
C    -0.908582  0.550134  4.993013
S    0.715437  -0.303346  5.001792
H    -1.483618  0.240461  5.875149
H    -0.760776  1.636936  5.033687
H    1.157649  0.281111  6.139246
N    -4.025865  0.027440  4.520530
C    -3.848075  -1.253678  5.183949
H    -4.923620  0.493087  4.617212
H    -3.498490  -1.146262  6.222771
H    -3.129816  -1.878465  4.641886
H    -4.806187  -1.785803  5.196054
