23
Energy: -24372.8218333 eV PBE+vdW (tier 2 basis)
C    -0.040786  0.285305  0.114209
C    -0.033894  0.031493  1.605566
O    0.949797  -0.423153  2.181827
H    0.861593  -0.171498  -0.300889
H    -0.008112  1.365261  -0.091383
H    -0.927721  -0.145026  -0.363772
N    -1.140722  0.381557  2.366400
C    -2.505555  0.754309  2.030006
C    -3.317943  -0.417456  1.418924
O    -2.819115  -1.229159  0.646542
H    -0.986154  0.140966  3.340838
H    -2.957667  1.038650  2.989653
C    -2.638686  1.982304  1.107507
S    -1.929302  3.513783  1.802927
H    -3.703000  2.209283  0.960979
H    -2.217473  1.780132  0.117182
H    -0.713305  2.986607  2.082228
N    -4.642990  -0.471635  1.755368
C    -5.367988  0.335810  2.724857
H    -5.132883  -1.246788  1.319290
H    -5.332300  1.408011  2.485832
H    -4.998913  0.192506  3.751719
H    -6.419995  0.032919  2.704898
