23
Energy: -24373.0419312 eV PBE+vdW (tier 2 basis)
C    -0.017662  -0.151418  -0.010058
C    0.038530  -0.054136  1.505600
O    1.104806  0.013403  2.108774
H    1.000391  -0.041058  -0.391429
H    -0.652674  0.628736  -0.452326
H    -0.411295  -1.123258  -0.336255
N    -1.156086  -0.056605  2.187794
C    -2.496901  0.018411  1.656211
C    -3.360452  0.709242  2.742661
O    -2.908863  0.967906  3.853997
H    -1.099714  0.164570  3.184794
H    -2.515454  0.656316  0.754232
C    -3.066945  -1.362655  1.254110
S    -3.379202  -2.503494  2.643947
H    -2.395307  -1.838514  0.528970
H    -4.041546  -1.252529  0.757776
H    -2.112624  -2.477787  3.123277
N    -4.632752  1.008484  2.378191
C    -5.578218  1.583208  3.323878
H    -4.962508  0.745464  1.458538
H    -6.498237  1.842276  2.791376
H    -5.157565  2.488373  3.777485
H    -5.814456  0.875513  4.130486
