23
Energy: -24372.9846325 eV PBE+vdW (tier 2 basis)
C    -1.019933  1.641666  0.593138
C    -0.108555  0.921615  1.569076
O    1.036556  1.300521  1.797609
H    -0.430068  2.423524  0.107853
H    -1.867067  2.114939  1.108898
H    -1.424451  0.959440  -0.165784
N    -0.604313  -0.192770  2.213180
C    -1.909565  -0.830284  2.099573
C    -2.434932  -1.080225  3.534036
O    -2.266747  -2.162754  4.092715
H    0.068996  -0.628665  2.840411
H    -2.575081  -0.140306  1.566774
C    -1.867061  -2.165721  1.341371
S    -1.407091  -2.026099  -0.418738
H    -2.869784  -2.613250  1.334962
H    -1.208096  -2.875459  1.853147
H    -0.123004  -1.646691  -0.217108
N    -3.065967  -0.042887  4.157460
C    -3.211808  1.328694  3.698780
H    -3.309198  -0.249509  5.121698
H    -3.855861  1.862048  4.405583
H    -3.698793  1.376325  2.715296
H    -2.248638  1.857610  3.643704
