23
Energy: -24373.1200256 eV PBE+vdW (tier 2 basis)
C    -0.086527  -0.310457  -0.121815
C    -0.523367  -0.534636  1.311147
O    -0.516386  -1.650877  1.832042
H    0.990035  -0.513258  -0.191992
H    -0.277492  0.705825  -0.487410
H    -0.601240  -1.031448  -0.767239
N    -0.913068  0.589024  1.986012
C    -1.288637  0.565823  3.387228
C    -2.802393  0.858979  3.497256
O    -3.223329  2.009850  3.368326
H    -0.929037  1.480504  1.503724
H    -1.048537  -0.446296  3.734195
C    -0.524186  1.596013  4.228779
S    1.292704  1.502857  4.100166
H    -0.832705  1.509722  5.278416
H    -0.787713  2.611651  3.904329
H    1.425625  0.235607  4.558417
N    -3.634315  -0.197024  3.704025
C    -3.303225  -1.608931  3.857418
H    -4.612195  0.072352  3.763391
H    -4.173961  -2.203931  3.559091
H    -3.055118  -1.866403  4.898983
H    -2.466181  -1.893051  3.208197
