23
Energy: -24373.112064 eV PBE+vdW (tier 2 basis)
C    0.218551  0.061245  0.166858
C    0.122418  0.115471  1.678527
O    1.104288  0.322826  2.391217
H    0.916077  -0.737660  -0.114650
H    0.644117  1.006221  -0.192408
H    -0.743490  -0.113185  -0.330099
N    -1.125836  -0.116578  2.192783
C    -1.438111  0.044821  3.601647
C    -2.070771  -1.233458  4.200139
O    -3.207252  -1.216318  4.673516
H    -1.928609  -0.152417  1.569057
H    -0.472496  0.238864  4.097041
C    -2.353411  1.250850  3.843375
S    -3.888573  1.222296  2.829359
H    -1.809923  2.174430  3.620190
H    -2.669007  1.268858  4.891258
H    -3.521940  2.213033  1.983253
N    -1.320420  -2.370749  4.194180
C    0.028193  -2.584417  3.695404
H    -1.823676  -3.173028  4.561314
H    0.521569  -3.343365  4.314665
H    0.622894  -1.665907  3.750235
H    0.033831  -2.928522  2.649356
