23
Energy: -24372.1293166 eV PBE+vdW (tier 2 basis)
C    -2.710202  -0.124837  0.739935
C    -1.415273  0.641950  0.953902
O    -1.341157  1.854101  0.785038
H    -3.450664  0.570160  0.335986
H    -3.087184  -0.534023  1.688265
H    -2.583820  -0.962243  0.038690
N    -0.310709  -0.087675  1.327570
C    -0.261369  -1.478975  1.714425
C    -0.820407  -1.733717  3.135736
O    -0.439456  -1.091365  4.111869
H    0.509402  0.466798  1.577555
H    -0.846160  -2.072147  0.991265
C    1.187490  -2.006763  1.632096
S    2.451790  -0.989176  2.474703
H    1.503115  -2.021053  0.580752
H    1.222793  -3.036460  2.010520
H    1.809361  -0.941024  3.669052
N    -1.733283  -2.744847  3.209726
C    -2.339728  -3.168797  4.458679
H    -2.025174  -3.191286  2.348620
H    -3.427865  -3.017482  4.443697
H    -1.907395  -2.556722  5.257178
H    -2.129109  -4.227416  4.662743
