23
Energy: -24372.1501513 eV PBE+vdW (tier 2 basis)
C    -2.420081  0.646523  0.420382
C    -1.224981  0.966146  1.295075
O    -0.936661  2.109602  1.632960
H    -2.122834  0.113802  -0.494170
H    -2.894014  1.591508  0.143383
H    -3.143975  0.014952  0.953388
N    -0.427505  -0.090277  1.696013
C    -0.724341  -1.511052  1.601242
C    -1.548816  -2.014340  2.815328
O    -2.758180  -2.211889  2.700789
H    0.270237  0.191371  2.382102
H    -1.410073  -1.652059  0.756328
C    0.534240  -2.329802  1.261003
S    1.981981  -2.162260  2.376386
H    0.864788  -2.085526  0.244482
H    0.293595  -3.400801  1.286346
H    2.356892  -0.924875  1.976322
N    -0.874709  -2.161561  3.984165
C    -1.543493  -2.564402  5.209364
H    0.136678  -2.036146  3.978996
H    -2.478963  -2.003919  5.324249
H    -0.886861  -2.351716  6.059574
H    -1.790923  -3.636280  5.207292
