23
Energy: -24373.2732991 eV PBE+vdW (tier 2 basis)
C    -0.184111  -0.041937  -0.027836
C    -0.084950  0.066864  1.478635
O    1.012340  0.088921  2.052775
H    0.535279  0.647715  -0.482836
H    -1.186992  0.164939  -0.420159
H    0.101838  -1.061173  -0.320670
N    -1.271244  0.135097  2.143998
C    -1.473495  0.009671  3.591271
C    -1.035337  1.230439  4.449089
O    -1.815004  1.679359  5.289993
H    -2.108715  0.062224  1.580643
H    -2.560081  -0.013636  3.733545
C    -0.880541  -1.285196  4.180557
S    -1.540012  -2.824784  3.447946
H    -1.041372  -1.292088  5.264901
H    0.199736  -1.330358  3.998523
H    -2.771329  -2.750772  4.006859
N    0.222683  1.680398  4.232779
C    0.788548  2.791084  4.972249
H    0.774706  1.196082  3.514251
H    1.068271  3.612463  4.297514
H    1.682272  2.477612  5.530146
H    0.034638  3.150627  5.680409
