23
Energy: -24372.2696247 eV PBE+vdW (tier 2 basis)
C    -3.888409  0.510419  1.403562
C    -2.467957  0.857307  1.800325
O    -1.602993  1.095744  0.948859
H    -4.295271  1.332442  0.801744
H    -4.556613  0.322782  2.252549
H    -3.864683  -0.381201  0.764740
N    -2.220463  0.887091  3.141263
C    -0.924008  1.151991  3.786003
C    -0.469955  2.636134  3.701876
O    -0.342438  3.291939  4.734686
H    -3.006355  0.731822  3.760217
H    -1.099695  1.008807  4.859255
C    0.139350  0.134167  3.331068
S    1.792693  0.408017  4.042865
H    0.292871  0.193991  2.247278
H    -0.212814  -0.880307  3.559805
H    1.425894  0.358531  5.345012
N    -0.231618  3.097603  2.450499
C    0.204466  4.455573  2.194312
H    -0.476268  2.480057  1.671230
H    -0.567180  5.031515  1.662556
H    1.123549  4.460458  1.592544
H    0.403899  4.936119  3.157753
