23
Energy: -24372.2239107 eV PBE+vdW (tier 2 basis)
C    2.276274  1.158574  2.003528
C    0.888072  0.554036  2.071471
O    0.419006  -0.128052  1.158123
H    3.007094  0.349443  1.881738
H    2.541120  1.749757  2.888287
H    2.339950  1.794469  1.111867
N    0.190163  0.812909  3.214248
C    -1.156086  0.336808  3.404581
C    -1.846718  1.292184  4.387578
O    -1.185892  2.023455  5.126854
H    0.553155  1.406424  3.955733
H    -1.654016  0.353085  2.421025
C    -1.212795  -1.134921  3.890731
S    -0.355712  -1.497172  5.457882
H    -0.693463  -1.747907  3.143128
H    -2.249414  -1.489812  3.939959
H    -1.131518  -0.731877  6.261093
N    -3.208890  1.276506  4.441696
C    -4.154030  0.532565  3.626176
H    -3.582491  1.893074  5.157181
H    -3.748271  0.352197  2.624395
H    -5.069613  1.124271  3.508958
H    -4.424927  -0.437019  4.071764
