23
Energy: -24372.6701364 eV PBE+vdW (tier 2 basis)
C    0.139499  0.256360  0.169198
C    0.052896  -0.004634  1.656913
O    1.054576  -0.187391  2.342450
H    -0.226321  1.260425  -0.086528
H    -0.443831  -0.489342  -0.384502
H    1.191702  0.185569  -0.118381
N    -1.184736  0.010464  2.281196
C    -2.547987  0.000486  1.774474
C    -2.908031  -1.326693  1.054749
O    -2.058286  -2.015762  0.500498
H    -1.084390  -0.233842  3.261903
H    -3.164251  0.042987  2.683205
C    -2.913801  1.276403  0.946233
S    -3.442862  1.087519  -0.793439
H    -2.078230  1.981361  1.005760
H    -3.776589  1.774136  1.406147
H    -2.316814  0.500958  -1.260763
N    -4.215686  -1.719873  1.118358
C    -5.368693  -0.949703  1.551292
H    -4.395846  -2.547688  0.556956
H    -6.211553  -1.633793  1.699064
H    -5.664684  -0.185407  0.814916
H    -5.179502  -0.457827  2.514148
