23
Energy: -24372.152807 eV PBE+vdW (tier 2 basis)
C    -0.437266  -0.092751  -0.104529
C    -0.177899  -0.221870  1.382371
O    0.950858  -0.311903  1.855016
H    -0.374354  0.971634  -0.371914
H    -1.423618  -0.467495  -0.405651
H    0.343513  -0.628710  -0.652822
N    -1.308183  -0.239742  2.171836
C    -1.217572  0.006423  3.605028
C    -0.741235  1.474680  3.857442
O    -0.882879  2.327164  2.985084
H    -2.161403  0.083149  1.729321
H    -2.254676  -0.039056  3.978220
C    -0.409620  -1.106832  4.303203
S    -0.964388  -1.298766  6.051687
H    0.660887  -0.888092  4.273890
H    -0.590012  -2.049329  3.775783
H    0.126995  -1.968309  6.484940
N    -0.236429  1.722899  5.092228
C    0.185820  3.046319  5.509582
H    -0.220817  0.958280  5.768170
H    -0.042015  3.744806  4.697885
H    1.266573  3.074846  5.708520
H    -0.349280  3.359655  6.416707
