23
Energy: -24373.189025 eV PBE+vdW (tier 2 basis)
C    -0.177697  -0.354912  -0.016743
C    -0.105313  -0.218196  1.492127
O    0.919905  -0.459932  2.127803
H    0.573646  0.305957  -0.466522
H    -1.162695  -0.115134  -0.435278
H    0.087400  -1.384003  -0.288846
N    -1.260795  0.191366  2.098409
C    -1.364806  0.355061  3.536677
C    -2.826438  0.057847  3.902689
O    -3.736899  0.505583  3.199778
H    -2.105197  0.388048  1.568151
H    -0.657480  -0.343128  4.000429
C    -0.974283  1.797802  3.932130
S    -0.928669  2.157305  5.723551
H    -1.634448  2.514224  3.428249
H    0.052605  1.973640  3.588213
H    -2.268347  2.172257  5.919033
N    -3.072023  -0.685057  5.012693
C    -2.112233  -1.370501  5.870786
H    -4.061251  -0.851597  5.172169
H    -2.653870  -1.771188  6.734101
H    -1.349697  -0.675843  6.243448
H    -1.620994  -2.209194  5.355575
