23
Energy: -24372.2958101 eV PBE+vdW (tier 2 basis)
C    -0.457841  0.087420  -0.215256
C    -0.192312  0.113674  1.277926
O    0.906376  0.372938  1.753619
H    0.354423  -0.454629  -0.712326
H    -0.441475  1.119254  -0.591463
H    -1.418862  -0.368734  -0.482337
N    -1.280232  -0.196618  2.072879
C    -1.255654  0.084599  3.501075
C    -0.498811  -0.954681  4.360572
O    -0.231610  -0.694920  5.530908
H    -2.198636  -0.111772  1.638828
H    -0.727597  1.034393  3.681850
C    -2.685233  0.168674  4.061125
S    -3.826719  1.263489  3.145209
H    -2.632590  0.463100  5.113752
H    -3.171387  -0.816911  4.016058
H    -3.115018  2.405088  3.299993
N    -0.239815  -2.138368  3.750205
C    0.510771  -3.199135  4.391724
H    -0.436208  -2.189276  2.756436
H    1.523678  -3.285055  3.971976
H    -0.004199  -4.162659  4.281252
H    0.591954  -2.953871  5.455997
