23
Energy: -24372.1527983 eV PBE+vdW (tier 2 basis)
C    -4.258360  -0.216513  3.307934
C    -2.745451  -0.129810  3.247516
O    -2.020529  -1.109756  3.421177
H    -4.761754  0.742391  3.135558
H    -4.548156  -0.602920  4.292933
H    -4.600492  -0.941484  2.558994
N    -2.239487  1.110768  2.981800
C    -0.818376  1.378976  2.960222
C    -0.653683  2.885329  3.226804
O    -1.574758  3.675080  3.005069
H    -2.829714  1.936348  2.895577
H    -0.332243  0.786544  3.750199
C    -0.217621  0.940938  1.599865
S    1.606281  0.961134  1.481606
H    -0.649845  1.527592  0.780456
H    -0.491257  -0.110582  1.450641
H    1.743824  2.269517  1.167618
N    0.559715  3.251237  3.710209
C    0.935727  4.635790  3.928872
H    1.272896  2.529571  3.768202
H    1.650484  4.986612  3.169729
H    1.385331  4.759508  4.922271
H    0.028468  5.244730  3.864749
