23
Energy: -24372.5300705 eV PBE+vdW (tier 2 basis)
C    0.075558  -0.272047  0.305017
C    -0.028997  -0.010409  1.794351
O    0.960035  0.225334  2.481037
H    -0.604167  0.360763  -0.279951
H    -0.156739  -1.322030  0.080563
H    1.104940  -0.065489  0.001609
N    -1.276222  -0.042026  2.379264
C    -2.587928  -0.377152  1.824587
C    -2.581850  -1.827364  1.247810
O    -2.327919  -2.729305  2.043048
H    -1.221029  0.033817  3.390124
H    -3.227606  -0.512737  2.709591
C    -3.186527  0.814460  1.054047
S    -5.012537  0.621953  0.949800
H    -2.760717  0.935584  0.052763
H    -2.962122  1.716086  1.634729
H    -5.241564  1.784044  0.296749
N    -2.851021  -2.127763  -0.058827
C    -3.091163  -1.316943  -1.244439
H    -2.808232  -3.133294  -0.199102
H    -3.952073  -0.648261  -1.110416
H    -3.325081  -1.999263  -2.068325
H    -2.208345  -0.732377  -1.540668
