23
Energy: -24372.4710295 eV PBE+vdW (tier 2 basis)
C    1.355833  -0.364070  1.061888
C    0.035290  0.166612  1.584280
O    -0.659805  0.956180  0.942600
H    1.181245  -0.862395  0.100306
H    1.847626  -1.065994  1.745825
H    2.025431  0.484338  0.873307
N    -0.342855  -0.301376  2.810501
C    -1.507789  0.213530  3.492371
C    -1.298478  -0.079690  4.994880
O    -0.320969  -0.722549  5.388066
H    0.290591  -0.827162  3.413716
H    -1.564192  1.302401  3.328179
C    -2.796976  -0.422286  2.913230
S    -4.356236  0.437654  3.333279
H    -2.921270  -1.449684  3.280368
H    -2.705869  -0.453510  1.822740
H    -4.107866  1.551631  2.604551
N    -2.246648  0.418814  5.820541
C    -2.230810  0.164169  7.250578
H    -3.082487  0.815182  5.388039
H    -1.211591  0.286276  7.634061
H    -2.564197  -0.856378  7.492653
H    -2.891975  0.882307  7.747042
