23
Energy: -24373.0131277 eV PBE+vdW (tier 2 basis)
C    -0.357208  -0.341518  -0.287282
C    0.075952  0.021206  1.122745
O    1.251446  -0.014743  1.472394
H    0.516382  -0.737285  -0.811637
H    -0.712304  0.548859  -0.827679
H    -1.163323  -1.086728  -0.296866
N    -0.905568  0.390063  2.016197
C    -2.306064  0.637131  1.755813
C    -2.659827  2.040235  2.294399
O    -2.105953  2.481197  3.298745
H    -0.558462  0.768729  2.897395
H    -2.485150  0.573055  0.677027
C    -3.226183  -0.379804  2.473232
S    -3.053698  -2.101083  1.895121
H    -4.281705  -0.129549  2.297458
H    -3.054062  -0.329651  3.556126
H    -1.764945  -2.250307  2.284202
N    -3.643777  2.726758  1.646519
C    -4.317692  2.367936  0.407857
H    -3.849055  3.630676  2.060977
H    -5.064286  3.137769  0.187975
H    -4.848407  1.408591  0.485937
H    -3.625810  2.319196  -0.446185
