23
Energy: -24372.1098451 eV PBE+vdW (tier 2 basis)
C    1.222745  1.772883  1.029985
C    0.250048  0.888150  1.785482
O    -0.287046  -0.094466  1.271786
H    2.057356  1.156464  0.673771
H    1.617926  2.602744  1.628100
H    0.714876  2.177558  0.145712
N    0.009266  1.246137  3.078648
C    -0.931109  0.524401  3.903294
C    -1.210362  1.429781  5.116729
O    -0.464009  2.375174  5.383795
H    0.422120  2.067564  3.518133
H    -1.851827  0.358033  3.323541
C    -0.385747  -0.875341  4.343133
S    -1.333113  -2.295431  3.675562
H    -0.348922  -0.969705  5.433871
H    0.640173  -0.965487  3.972264
H    -1.784292  -2.754445  4.864692
N    -2.292990  1.145606  5.889212
C    -3.270065  0.080150  5.749724
H    -2.376360  1.763454  6.691431
H    -3.255022  -0.330058  4.734577
H    -4.276179  0.472460  5.945321
H    -3.076466  -0.748626  6.448231
