23
Energy: -24372.8832392 eV PBE+vdW (tier 2 basis)
C    0.024557  0.362062  0.865403
C    0.185266  -0.116510  2.295279
O    1.201549  0.106891  2.943348
H    -0.636579  1.239631  0.828847
H    -0.381160  -0.412173  0.203320
H    1.012121  0.660399  0.503911
N    -0.877962  -0.767016  2.894535
C    -2.084268  -1.310300  2.299039
C    -1.767200  -2.421221  1.241551
O    -0.644629  -2.902194  1.136684
H    -0.623969  -1.124380  3.809987
H    -2.592703  -1.834952  3.124941
C    -3.042855  -0.193747  1.811091
S    -4.798611  -0.724343  1.985208
H    -2.859464  0.066131  0.763088
H    -2.881554  0.692204  2.434270
H    -5.317480  0.128758  1.072838
N    -2.821745  -2.818876  0.483233
C    -2.694298  -3.897102  -0.482555
H    -3.742911  -2.424902  0.677795
H    -3.599654  -3.928680  -1.097844
H    -2.561054  -4.871446  0.010190
H    -1.824277  -3.727441  -1.128547
