23
Energy: -24372.0421187 eV PBE+vdW (tier 2 basis)
C    2.140621  -0.991927  1.837534
C    0.803750  -0.968214  2.557491
O    0.149316  -1.992429  2.735624
H    2.746363  -1.807602  2.247931
H    2.702618  -0.052469  1.908863
H    1.962243  -1.216392  0.777522
N    0.402590  0.271003  2.989258
C    -0.931841  0.594553  3.510977
C    -1.024673  2.112811  3.742834
O    -2.002162  2.758900  3.386622
H    0.942375  1.059469  2.648319
H    -1.703871  0.355773  2.767043
C    -1.277531  -0.140132  4.841069
S    -2.417111  -1.552025  4.704118
H    -1.801449  0.555008  5.510280
H    -0.349986  -0.445653  5.343165
H    -1.610727  -2.259755  3.872251
N    0.047061  2.661857  4.398918
C    0.069237  4.053779  4.813261
H    0.747881  2.032585  4.776091
H    -0.187673  4.167616  5.877077
H    -0.676871  4.591225  4.219151
H    1.059839  4.491019  4.636602
