23
Energy: -24372.3153417 eV PBE+vdW (tier 2 basis)
C    1.110285  2.188652  1.803177
C    -0.134758  1.346808  1.995772
O    -0.953309  1.168706  1.093947
H    0.813117  3.189666  1.467093
H    1.714976  1.742437  1.003726
H    1.723300  2.279982  2.707864
N    -0.297819  0.826199  3.253635
C    -1.319761  -0.160156  3.560796
C    -2.215147  0.289017  4.739140
O    -2.263431  -0.351253  5.792616
H    0.483520  0.852328  3.906042
H    -1.939369  -0.234046  2.651703
C    -0.700825  -1.540218  3.827121
S    0.678880  -1.551827  5.030176
H    -0.263804  -1.916509  2.893690
H    -1.470629  -2.244147  4.160488
H    -0.100680  -1.255407  6.097877
N    -2.962479  1.413713  4.565925
C    -3.048373  2.300838  3.417094
H    -3.486246  1.665815  5.399139
H    -2.345001  3.144419  3.494011
H    -4.067577  2.700334  3.349752
H    -2.830873  1.767650  2.485217
