30
Energy: -180629.9723067  eV PBE+vdW (tier 2 basis)
C    0.439274  1.846776  1.339163
C    0.009506  0.791054  2.297207
O    0.643319  0.634222  3.385608
H    0.187311  2.841182  1.737705
H    0.012502  1.723467  0.339497
H    1.536167  1.816801  1.274272
N    -1.038809  -0.030208  2.015749
C    -2.344762  0.421105  1.541350
C    -3.113790  0.983429  2.774359
O    -2.709567  0.789126  3.962982
H    -1.096569  -0.835670  2.641878
H    -2.188301  1.243102  0.827266
C    -3.109048  -0.736261  0.857346
C    -2.403393  -1.226267  -0.420225
S    -3.092526  -2.763033  -1.096112
C    -4.562078  -2.214039  -1.970522
H    -4.127778  -0.401594  0.619807
H    -3.218389  -1.566270  1.572717
H    -2.418047  -0.458934  -1.208195
H    -1.353500  -1.475740  -0.212547
H    -5.300392  -1.777244  -1.284431
H    -4.295343  -1.489525  -2.752311
H    -4.991264  -3.110071  -2.433746
N    -4.228173  1.662858  2.553373
C    -5.066605  2.237381  3.613339
H    -4.540262  1.782465  1.593350
H    -5.833622  2.859590  3.145581
H    -4.456099  2.853489  4.282587
H    -5.546087  1.440767  4.194973
Cd    -0.785703  0.480428  5.083765
