30
Energy: -180630.5149891  eV PBE+vdW (tier 2 basis)
C    0.130300  -0.495441  0.213460
C    0.091301  -0.486839  1.709382
O    1.101715  -0.951848  2.320653
H    -0.769299  -0.075955  -0.249358
H    0.259125  -1.533083  -0.125629
H    1.014034  0.061049  -0.125679
N    -1.016425  0.006744  2.296926
C    -1.484485  -0.002103  3.699841
C    -0.793237  1.065101  4.569850
O    0.415092  0.969377  4.968183
H    -1.702580  0.362858  1.636724
H    -2.541563  0.290005  3.623447
C    -1.506583  -1.398967  4.362176
C    -2.306300  -1.440494  5.676780
S    -4.050587  -0.973073  5.480412
C    -4.836572  -2.529159  5.012244
H    -0.486472  -1.773281  4.596568
H    -1.909645  -2.109755  3.627183
H    -1.892537  -0.742405  6.419097
H    -2.251185  -2.445280  6.114780
H    -5.899915  -2.299571  4.878043
H    -4.720865  -3.263611  5.819306
H    -4.433042  -2.924496  4.072384
N    -1.524026  2.103142  4.939450
C    -1.048787  3.204744  5.783587
H    -2.480694  2.156186  4.596559
H    -0.609059  3.995072  5.161538
H    -0.294057  2.832582  6.481841
H    -1.900864  3.611583  6.335862
Cd    1.700962  -0.655241  4.361558
