30
Energy: -180630.2620856  eV PBE+vdW (tier 2 basis)
C    -0.326175  -0.048773  -0.198945
C    -0.263885  -0.066357  1.294091
O    0.852708  0.133499  1.855432
H    0.405842  -0.761851  -0.599641
H    -0.024732  0.948600  -0.549745
H    -1.321203  -0.281520  -0.593333
N    -1.408089  -0.285695  1.976080
C    -1.571104  -0.149306  3.424633
C    -0.993735  -1.371409  4.183160
O    0.120224  -1.242223  4.792730
H    -2.249600  -0.403308  1.417314
H    -0.921507  0.681494  3.745685
C    -3.013489  0.273992  3.776201
C    -3.220939  0.480492  5.285996
S    -4.749907  1.371437  5.699738
C    -6.023213  0.115090  5.511586
H    -3.742573  -0.447345  3.384681
H    -3.194534  1.223967  3.252239
H    -2.428442  1.118366  5.703983
H    -3.208801  -0.468063  5.843418
H    -6.964928  0.598097  5.797817
H    -5.833457  -0.731383  6.185505
H    -6.105130  -0.229530  4.472208
N    -1.600886  -2.548231  4.236700
C    -2.877626  -2.985397  3.668324
H    -1.084387  -3.245414  4.776253
H    -2.844978  -4.075269  3.575332
H    -3.030790  -2.568491  2.668658
H    -3.718297  -2.721293  4.322842
Cd    1.705664  -0.044086  3.864941
