30
Energy: -180630.8711846  eV PBE+vdW (tier 2 basis)
C    0.413624  -1.095232  1.071159
C    -0.366710  0.151240  0.789095
O    0.022425  1.038322  0.018611
H    0.685605  -1.567440  0.118992
H    -0.110818  -1.818208  1.705016
H    1.355370  -0.809761  1.561194
N    -1.578343  0.291774  1.436058
C    -2.379770  1.507869  1.436936
C    -2.997352  1.961301  0.092960
O    -4.184079  2.500212  0.101713
H    -1.936130  -0.499358  1.961317
H    -3.266279  1.222015  2.031382
C    -1.663567  2.717352  2.133160
C    -1.990967  2.871970  3.622756
S    -3.578073  3.730046  4.081606
C    -3.118364  5.494931  4.008225
H    -1.851925  3.661712  1.596275
H    -0.580771  2.562649  2.028539
H    -1.230717  3.471893  4.142459
H    -2.057043  1.904396  4.139267
H    -4.040471  6.072555  4.140941
H    -2.617080  5.758424  3.071904
H    -2.457866  5.665735  4.867763
N    -2.319134  1.830889  -1.011086
C    -2.765671  2.212147  -2.349837
H    -1.336299  1.487589  -0.859797
H    -3.726732  2.728708  -2.300154
H    -2.863156  1.308794  -2.965163
H    -2.006268  2.861154  -2.801680
Cd    -4.759322  3.326232  1.928072
