30
Energy: -180629.8702933  eV PBE+vdW (tier 2 basis)
C    -0.016130  0.643791  -0.133023
C    -0.021114  0.179247  1.280968
O    1.042442  -0.288693  1.794203
H    0.571596  1.569471  -0.224827
H    -1.019709  0.788510  -0.543374
H    0.514869  -0.110544  -0.731559
N    -1.154210  0.219993  2.033026
C    -2.032108  1.381222  2.162778
C    -1.288179  2.408419  3.061612
O    -0.364390  2.049309  3.857968
H    -1.089575  -0.334264  2.888702
H    -2.181414  1.821121  1.165947
C    -3.396123  0.911454  2.732205
C    -4.509985  1.971480  2.720077
S    -6.172392  1.275475  2.967112
C    -6.233955  0.958920  4.734129
H    -3.249192  0.530106  3.754279
H    -3.703941  0.059313  2.109984
H    -4.583133  2.452848  1.733140
H    -4.356946  2.753370  3.477703
H    -7.243833  0.583111  4.936289
H    -6.069897  1.886765  5.299145
H    -5.502701  0.196277  5.033978
N    -1.656122  3.679628  2.999068
C    -1.054585  4.751301  3.803223
H    -2.396651  3.936855  2.352025
H    0.018498  4.827089  3.591222
H    -1.194971  4.550803  4.871564
H    -1.541480  5.693554  3.540154
Cd    1.360161  0.602489  3.805801
