30
Energy: -180629.8414279  eV PBE+vdW (tier 2 basis)
C    0.660018  -0.903016  0.384383
C    0.191664  0.003431  1.471636
O    1.010009  0.811558  2.012918
H    -0.035817  -0.919626  -0.462046
H    0.766161  -1.931958  0.767022
H    1.647735  -0.573136  0.047157
N    -1.095662  -0.002633  1.911277
C    -1.892701  -1.202027  2.225589
C    -1.067207  -2.051360  3.234957
O    -0.162137  -1.511090  3.946013
H    -1.302714  0.797340  2.508645
H    -2.737817  -0.817960  2.820589
C    -2.496908  -1.939084  1.014812
C    -3.540278  -1.136241  0.227992
S    -2.859371  0.292787  -0.665207
C    -4.318570  0.907549  -1.515315
H    -3.040371  -2.821385  1.385516
H    -1.713780  -2.322881  0.348884
H    -4.348636  -0.778012  0.885269
H    -4.005253  -1.795442  -0.520836
H    -3.998837  1.789743  -2.080872
H    -5.099253  1.188598  -0.795991
H    -4.701791  0.143951  -2.206568
N    -1.355466  -3.331542  3.398547
C    -0.710074  -4.193755  4.397296
H    -2.083927  -3.743761  2.824014
H    -0.887971  -3.803284  5.406068
H    0.369463  -4.243585  4.214650
H    -1.138645  -5.195366  4.313192
Cd    1.188715  0.264691  4.156075
