30
Energy: -180630.4070158  eV PBE+vdW (tier 2 basis)
C    0.282222  -0.353985  0.312336
C    0.249105  -0.321264  1.808163
O    1.304985  -0.657833  2.423169
H    -0.657005  -0.035946  -0.152693
H    0.515531  -1.378507  -0.009944
H    1.102438  0.284796  -0.041164
N    -0.903810  0.061670  2.393341
C    -1.334297  0.059429  3.807225
C    -0.657167  1.180434  4.622957
O    0.495919  1.045421  5.155285
H    -1.638049  0.304823  1.733939
H    -2.401238  0.309408  3.754745
C    -1.278333  -1.322933  4.493321
C    -2.046614  -1.379450  5.825857
S    -3.828446  -1.089964  5.628307
C    -4.477257  -2.746523  5.324471
H    -0.236771  -1.653220  4.709700
H    -1.665825  -2.063169  3.779186
H    -1.688213  -0.613114  6.528658
H    -1.893232  -2.353853  6.306557
H    -5.557184  -2.624738  5.181875
H    -4.293723  -3.385646  6.197367
H    -4.043417  -3.193848  4.422035
N    -1.305557  2.318455  4.813877
C    -2.641281  2.713733  4.346791
H    -0.785246  3.009137  5.357904
H    -2.877816  3.679898  4.800954
H    -3.406496  1.995123  4.664833
H    -2.659517  2.834705  3.256646
Cd    1.863010  -0.492397  4.496455
