30
Energy: -180630.9623029  eV PBE+vdW (tier 2 basis)
C    0.038624  0.350860  0.061403
C    0.056709  0.217172  1.537274
O    1.140726  0.062695  2.171102
H    0.752217  1.117741  -0.265771
H    -0.960505  0.532847  -0.345151
H    0.404803  -0.604317  -0.353400
N    -1.116089  0.238250  2.263098
C    -2.134324  1.291119  2.217617
C    -1.449537  2.664074  2.052311
O    -0.321870  2.901093  2.584419
H    -1.048063  -0.271830  3.141862
H    -2.820372  1.123639  1.376875
C    -2.986473  1.279880  3.530032
C    -2.403335  0.731320  4.844834
S    -0.954383  1.469025  5.735236
C    -1.390568  3.223832  5.913344
H    -3.870073  0.649841  3.348497
H    -3.377270  2.292995  3.692421
H    -2.143966  -0.337391  4.792253
H    -3.197590  0.785837  5.604723
H    -0.584010  3.680252  6.499338
H    -2.320556  3.264386  6.493651
H    -1.495776  3.729455  4.949914
N    -2.070087  3.611466  1.361580
C    -3.351421  3.533167  0.645110
H    -1.568027  4.499011  1.320211
H    -4.180866  3.303966  1.324524
H    -3.311607  2.792049  -0.163044
H    -3.542349  4.511800  0.196606
Cd    0.779060  1.430741  3.884842
