30
Energy: -180630.7656424  eV PBE+vdW (tier 2 basis)
C    -0.007506  -0.837573  0.179719
C    -0.083410  -0.515370  1.633307
O    0.615688  -1.262700  2.424181
H    1.040358  -0.833420  -0.147536
H    -0.595946  -0.147514  -0.433638
H    -0.381993  -1.861428  0.031448
N    -0.854303  0.493363  2.028552
C    -1.411754  0.802898  3.348557
C    -2.954807  0.971469  3.030109
O    -3.235448  1.335264  1.891746
H    -1.477879  0.917997  1.315570
H    -1.268805  -0.050537  4.035289
C    -0.947344  2.150443  3.953095
C    0.535917  2.446445  4.187647
S    1.506909  1.502652  5.455447
C    0.495951  1.542494  6.965585
H    -1.513885  2.318338  4.879410
H    -1.282644  2.944714  3.265705
H    0.648709  3.487596  4.525443
H    1.144874  2.345898  3.276334
H    1.050333  0.976080  7.723105
H    -0.504125  1.126165  6.819841
H    0.445098  2.596849  7.267508
N    -3.845240  0.757047  4.010549
C    -3.612486  0.266671  5.364195
H    -4.808780  0.939363  3.732998
H    -3.136304  1.023223  6.005468
H    -3.020619  -0.658902  5.366349
H    -4.581407  0.026251  5.811443
Cd    1.201706  -0.644645  4.308036
