30
Energy: -180631.0139200  eV PBE+vdW (tier 2 basis)
C    0.837774  0.984078  0.392281
C    0.243407  -0.079428  1.236085
O    0.970384  -0.846270  1.935594
H    1.533957  1.596620  0.979151
H    0.090951  1.602218  -0.114542
H    1.445915  0.483051  -0.380438
N    -1.118209  -0.279533  1.264395
C    -2.133407  0.737014  1.556252
C    -1.603344  1.697484  2.643502
O    -0.794094  1.290906  3.530893
H    -1.369686  -1.231874  1.524864
H    -2.376232  1.309838  0.651379
C    -3.449428  0.047832  2.042598
C    -3.383333  -1.288397  2.802096
S    -2.592523  -1.309784  4.483333
C    -2.854595  -3.042339  4.969990
H    -4.059397  -0.172818  1.154265
H    -4.023244  0.777691  2.628830
H    -2.950849  -2.106372  2.207290
H    -4.418423  -1.590901  3.018970
H    -2.355881  -3.171250  5.937553
H    -2.453743  -3.741499  4.229851
H    -3.935125  -3.180073  5.098972
N    -2.021423  2.955931  2.647972
C    -2.915725  3.627518  1.695244
H    -1.661632  3.514629  3.422489
H    -3.926988  3.203771  1.721419
H    -2.516902  3.582703  0.674243
H    -2.981621  4.679654  1.984835
Cd    -0.186167  -0.856902  3.830181
