30
Energy: -180630.5768101  eV PBE+vdW (tier 2 basis)
C    0.178817  -1.625222  0.230552
C    -0.044226  -0.873904  1.501799
O    0.965056  -0.324901  2.052741
H    0.588680  -0.928722  -0.515609
H    -0.734367  -2.078953  -0.169184
H    0.939889  -2.399669  0.392001
N    -1.295807  -0.796679  1.986989
C    -1.796754  0.103371  3.039093
C    -1.700137  -0.561663  4.430341
O    -0.582829  -0.549252  5.075491
H    -1.999078  -1.312339  1.463813
H    -1.082609  0.940221  3.091772
C    -3.136613  0.768891  2.623675
C    -4.282376  -0.069767  2.034030
S    -5.276030  -1.105688  3.165138
C    -6.344478  0.118443  3.960865
H    -2.866899  1.510202  1.856122
H    -3.496323  1.356017  3.480458
H    -3.949289  -0.759806  1.244159
H    -4.982309  0.614151  1.534658
H    -6.965659  -0.436665  4.673108
H    -6.991173  0.581809  3.205460
H    -5.770716  0.885198  4.494968
N    -2.739606  -1.134615  4.980324
C    -2.725331  -1.796848  6.288638
H    -3.644234  -1.152675  4.436538
H    -3.719888  -2.214971  6.464972
H    -2.485011  -1.075229  7.078581
H    -1.981855  -2.602389  6.303641
Cd    1.256003  0.019061  4.152132
