30
Energy: -180630.0694058  eV PBE+vdW (tier 2 basis)
C    0.476077  0.742428  0.146867
C    0.075434  0.082418  1.425582
O    0.847109  0.165567  2.425385
H    1.483684  0.408649  -0.132476
H    0.535172  1.827367  0.314506
H    -0.218276  0.544203  -0.676878
N    -1.100942  -0.581128  1.466330
C    -1.662949  -1.125259  2.698591
C    -0.885408  -2.362194  3.215075
O    -0.322871  -2.263025  4.360329
H    -1.680266  -0.540909  0.632229
H    -1.456780  -0.379784  3.484127
C    -3.211744  -1.202040  2.713536
C    -3.950473  -2.127049  1.733696
S    -5.734004  -1.766232  1.642969
C    -6.372671  -2.444708  3.181213
H    -3.558505  -0.168442  2.562065
H    -3.491442  -1.465257  3.743258
H    -3.831631  -3.187389  1.992230
H    -3.621200  -1.992829  0.693252
H    -6.143998  -3.516239  3.257185
H    -7.459633  -2.308182  3.136119
H    -5.984038  -1.907027  4.056120
N    -0.753302  -3.503329  2.555326
C    -1.217287  -3.924420  1.235170
H    -0.200704  -4.194330  3.068519
H    -1.552199  -3.071171  0.644411
H    -2.028135  -4.657874  1.324516
H    -0.377924  -4.399834  0.713604
Cd    0.950030  -0.479121  4.539510
