30
Energy: -180629.9185236  eV PBE+vdW (tier 2 basis)
C    -0.673797  0.066929  -0.419321
C    -0.160552  -0.186505  0.954799
O    1.078748  -0.396502  1.135805
H    -0.341182  1.055427  -0.770068
H    -1.761687  -0.017008  -0.496088
H    -0.204819  -0.665065  -1.092564
N    -0.999686  -0.222188  2.025113
C    -2.009686  0.790183  2.331083
C    -1.247972  2.070091  2.775466
O    -0.081074  2.002559  3.274133
H    -0.574298  -0.632689  2.858394
H    -2.582828  1.006746  1.417881
C    -2.948431  0.222689  3.423548
C    -4.201397  1.051536  3.724585
S    -5.248902  0.119193  4.886639
C    -6.659402  1.210963  5.084766
H    -2.371039  0.075609  4.350093
H    -3.251566  -0.774694  3.072460
H    -3.966320  2.019393  4.193489
H    -4.794228  1.239553  2.814770
H    -7.166271  1.368869  4.122865
H    -7.339686  0.703347  5.778249
H    -6.350065  2.174071  5.513389
N    -1.869762  3.233508  2.640293
C    -1.327206  4.538345  3.030001
H    -2.806782  3.224890  2.243991
H    -0.251476  4.446587  3.194380
H    -1.804507  4.885143  3.955312
H    -1.524033  5.260535  2.230449
Cd    1.794870  0.829260  2.848777
