30
Energy: -180630.5538109  eV PBE+vdW (tier 2 basis)
C    -0.071840  0.364832  0.483126
C    0.022200  -0.113671  1.894563
O    1.093404  -0.709767  2.246305
H    -1.033622  0.836483  0.255715
H    0.100266  -0.477839  -0.199044
H    0.735749  1.089595  0.305217
N    -1.010198  0.122325  2.720180
C    -1.018051  -0.089989  4.175493
C    -1.321742  -1.566167  4.527489
O    -0.365707  -2.351717  4.880384
H    -1.821636  0.592623  2.317112
H    0.020485  0.066922  4.512489
C    -1.818716  1.010338  4.921112
C    -3.350144  0.958994  5.015552
S    -4.154253  0.550379  3.429672
C    -5.900257  0.851283  3.788801
H    -1.506168  1.962180  4.467819
H    -1.438969  1.031308  5.952654
H    -3.708164  1.945004  5.341324
H    -3.678266  0.230674  5.771425
H    -6.453175  0.566981  2.886742
H    -6.052523  1.917665  3.993795
H    -6.230834  0.241632  4.637452
N    -2.551021  -2.024130  4.463839
C    -2.931317  -3.415629  4.728799
H    -3.287808  -1.367173  4.132339
H    -2.890253  -3.621073  5.805814
H    -2.251881  -4.102169  4.211720
H    -3.953029  -3.563698  4.369643
Cd    1.527475  -1.952196  3.949466
