30
Energy: -180630.3688992  eV PBE+vdW (tier 2 basis)
C    0.400559  0.120474  0.064563
C    0.159072  0.002267  1.536638
O    1.071633  -0.528212  2.240482
H    -0.424433  0.593752  -0.478322
H    0.566325  -0.887347  -0.341934
H    1.325956  0.686894  -0.103752
N    -1.016407  0.456631  2.011354
C    -1.655607  0.316413  3.338494
C    -1.035883  1.264049  4.385167
O    0.059864  1.007936  4.987386
H    -1.620206  0.858690  1.299480
H    -2.679928  0.670652  3.169504
C    -1.776754  -1.142644  3.824315
C    -2.705043  -1.324922  5.030158
S    -4.418713  -0.877891  4.603403
C    -5.337662  -1.556035  5.995897
H    -0.793876  -1.571715  4.088516
H    -2.138530  -1.741400  2.976195
H    -2.379142  -0.735533  5.902107
H    -2.698224  -2.381787  5.331168
H    -6.388403  -1.298604  5.821465
H    -4.998366  -1.111465  6.940102
H    -5.228746  -2.647986  6.026208
N    -1.677454  2.376207  4.707120
C    -2.950540  2.898843  4.189729
H    -1.197404  2.945436  5.406473
H    -3.174460  3.820225  4.734323
H    -3.769530  2.190114  4.363698
H    -2.874246  3.145709  3.123751
Cd    1.544883  -0.424859  4.338227
