30
Energy: -180631.8684361  eV PBE+vdW (tier 2 basis)
C    -0.657273  0.366200  -0.742018
C    -0.326310  0.024306  0.675286
O    0.730102  -0.639615  0.895812
H    0.167037  0.956587  -1.164978
H    -1.595244  0.920130  -0.853115
H    -0.714447  -0.562602  -1.325990
N    -1.187809  0.441332  1.628661
C    -1.199885  0.204069  3.087478
C    -0.090545  1.020455  3.785504
O    1.134822  0.719147  3.691060
H    -1.977510  0.974280  1.275252
H    -2.153025  0.637243  3.413585
C    -1.277040  -1.329170  3.435467
C    -0.611345  -1.821053  4.734785
S    1.037989  -2.657037  4.592857
C    0.614844  -4.275462  3.875128
H    -0.928632  -1.920053  2.576714
H    -2.347428  -1.565779  3.498788
H    -1.238080  -2.572028  5.233280
H    -0.438140  -1.021169  5.466765
H    1.565679  -4.780957  3.669912
H    0.022399  -4.189366  2.959251
H    0.069100  -4.831425  4.646843
N    -0.483922  2.073771  4.491275
C    0.417116  2.992987  5.192099
H    -1.476735  2.291059  4.521126
H    1.405898  2.535964  5.273857
H    0.014087  3.197193  6.189841
H    0.495349  3.935465  4.635281
Cd    1.728945  -1.159474  2.718192
