30
Energy: -180629.7938959  eV PBE+vdW (tier 2 basis)
C    -0.593714  1.154349  -1.352582
C    0.187225  1.199894  -0.086763
O    1.429315  1.468510  -0.121165
H    -0.674448  2.162493  -1.785303
H    -1.585261  0.708802  -1.231895
H    -0.018123  0.561184  -2.078580
N    -0.396351  0.935514  1.112584
C    -1.640861  1.545934  1.594330
C    -1.327688  3.048552  1.801619
O    -0.159505  3.412850  2.173342
H    0.278585  0.763972  1.860343
H    -2.415236  1.423758  0.826436
C    -2.049002  0.786900  2.880926
C    -3.400524  1.097825  3.532720
S    -3.348895  2.555443  4.621783
C    -4.924952  2.426600  5.478662
H    -1.247626  0.898505  3.629119
H    -2.061629  -0.275125  2.595296
H    -3.680780  0.242061  4.164264
H    -4.208252  1.219263  2.794846
H    -5.761788  2.444566  4.767928
H    -4.986524  3.292442  6.147241
H    -4.956683  1.501820  6.070869
N    -2.248375  3.978611  1.593037
C    -3.663029  3.847494  1.247640
H    -1.918416  4.929187  1.773614
H    -4.284028  3.963640  2.145755
H    -3.870243  2.878243  0.786241
H    -3.920779  4.636420  0.532689
Cd    1.898694  2.983153  1.432572
