30
Energy: -180630.3283906  eV PBE+vdW (tier 2 basis)
C    -0.239147  1.726148  0.187694
C    -0.832912  1.049084  1.381134
O    -1.580469  1.721319  2.149584
H    0.361948  2.582074  0.522611
H    -1.053518  2.132742  -0.427799
H    0.380043  1.062167  -0.425038
N    -0.551984  -0.256380  1.575253
C    -1.154916  -1.121557  2.593093
C    -0.509802  -0.899198  3.985244
O    -1.133774  -0.184252  4.840348
H    0.065792  -0.692642  0.895529
H    -2.190899  -0.774930  2.733788
C    -1.230278  -2.588237  2.125485
C    -2.352862  -2.826707  1.106281
S    -2.300035  -4.562418  0.564095
C    -3.719982  -4.653300  -0.533310
H    -1.399671  -3.222225  3.007868
H    -0.267833  -2.903599  1.697897
H    -2.248835  -2.184614  0.217519
H    -3.341380  -2.631515  1.550135
H    -3.746633  -5.682841  -0.908142
H    -3.606361  -3.958751  -1.376383
H    -4.647355  -4.438366  0.014355
N    0.654022  -1.419400  4.343925
C    1.578897  -2.293895  3.617696
H    0.922528  -1.179080  5.300105
H    2.568044  -2.178699  4.071172
H    1.656855  -2.002632  2.565907
H    1.280325  -3.346422  3.699011
Cd    -2.293219  1.562154  4.219928
