30
Energy: -180631.1427925  eV PBE+vdW (tier 2 basis)
C    0.179216  0.042068  0.763600
C    -0.499620  -0.222933  2.054067
O    0.145520  -0.615348  3.070534
H    1.060924  0.677427  0.913286
H    -0.485815  0.452635  -0.001866
H    0.557485  -0.927865  0.395914
N    -1.862946  -0.066783  2.180362
C    -2.638015  1.129923  1.821887
C    -1.806996  2.388490  2.158420
O    -1.034765  2.398416  3.164299
H    -2.275725  -0.656097  2.901153
H    -2.889474  1.114893  0.750963
C    -3.968571  1.117885  2.626515
C    -4.002371  1.664957  4.062973
S    -3.168444  0.838568  5.497404
C    -3.870859  -0.838223  5.538949
H    -4.388583  0.102054  2.574777
H    -4.687358  1.744664  2.077599
H    -5.050052  1.702155  4.396116
H    -3.619275  2.692512  4.128013
H    -3.405372  -1.347103  6.391225
H    -3.702680  -1.408997  4.620285
H    -4.945379  -0.725845  5.730115
N    -1.969229  3.449475  1.382820
C    -1.323475  4.751102  1.581405
H    -2.568433  3.351448  0.565669
H    -2.087989  5.536065  1.606031
H    -0.633216  4.949667  0.752525
H    -0.771356  4.738207  2.523539
Cd    -0.813499  0.675797  4.604253
