30
Energy: -180629.8439243  eV PBE+vdW (tier 2 basis)
C    -0.010693  0.335709  1.613761
C    -1.072080  0.674047  2.604434
O    -0.735785  0.980017  3.790750
H    -0.209863  0.755482  0.622791
H    0.071089  -0.760309  1.520081
H    0.951521  0.698608  1.990217
N    -2.394975  0.665539  2.281023
C    -3.109564  -0.390565  1.544195
C    -2.942305  -1.721629  2.328411
O    -2.608107  -1.732861  3.556881
H    -2.970449  1.134438  2.979805
H    -4.173280  -0.125958  1.665362
C    -2.830847  -0.454632  0.028441
C    -3.015600  0.878717  -0.705406
S    -4.735947  1.460470  -0.609917
C    -4.690244  2.935360  -1.634655
H    -3.523479  -1.183751  -0.418831
H    -1.818248  -0.828986  -0.172167
H    -2.758666  0.748384  -1.766872
H    -2.362488  1.666594  -0.300753
H    -5.702912  3.353328  -1.618226
H    -4.415795  2.671242  -2.665193
H    -3.977997  3.667347  -1.230884
N    -3.210395  -2.863600  1.718185
C    -3.186719  -4.173529  2.382192
H    -3.470777  -2.839632  0.736974
H    -3.491910  -4.930749  1.655914
H    -3.880604  -4.179505  3.230623
H    -2.175900  -4.399969  2.740899
Cd    -1.814669  -0.400106  5.153979
