30
Energy: -180630.2816316  eV PBE+vdW (tier 2 basis)
C    -0.448778  0.726899  -0.225780
C    -0.330871  0.550355  1.253832
O    0.778165  0.801838  1.807570
H    0.313528  0.112735  -0.723069
H    -0.224140  1.773715  -0.474002
H    -1.439044  0.468459  -0.616111
N    -1.421275  0.137315  1.934673
C    -1.535465  0.061846  3.391980
C    -0.826929  -1.193372  3.964663
O    0.311310  -1.049671  4.524486
H    -2.257988  -0.039854  1.385242
H    -0.938538  0.894008  3.800976
C    -2.981806  0.283988  3.878822
C    -3.402873  1.765934  3.789609
S    -4.992648  2.121365  4.590174
C    -6.199024  1.641474  3.345013
H    -3.041239  -0.042878  4.926312
H    -3.683825  -0.344127  3.313974
H    -3.445432  2.123564  2.750772
H    -2.684829  2.398108  4.331943
H    -6.060893  2.228803  2.427327
H    -7.181118  1.869582  3.775536
H    -6.150248  0.567045  3.123722
N    -1.347525  -2.409876  3.916816
C    -2.630177  -2.877843  3.386641
H    -0.756168  -3.119505  4.353607
H    -2.526018  -3.942889  3.157786
H    -2.887686  -2.360038  2.457868
H    -3.433227  -2.758208  4.124658
Cd    1.729776  0.426807  3.750864
