30
Energy: -180631.1824561  eV PBE+vdW (tier 2 basis)
C    1.530199  -2.027879  1.170785
C    0.782574  -1.204594  2.164273
O    1.312300  -0.941802  3.283308
H    2.486782  -1.535026  0.949187
H    0.977361  -2.183871  0.238339
H    1.771134  -3.000311  1.621194
N    -0.460578  -0.755260  1.826093
C    -1.152818  0.103594  2.765839
C    -1.912048  -0.685109  3.857178
O    -1.409850  -0.753917  5.023785
H    -0.841659  -0.995589  0.914974
H    -0.287058  0.515423  3.279466
C    -1.806575  1.420935  2.328380
C    -1.836759  2.365805  3.549367
S    -0.166259  2.672423  4.334830
C    -0.641069  3.672873  5.775668
H    -2.836608  1.312011  1.959631
H    -1.213456  1.859768  1.514188
H    -2.512582  2.009155  4.337946
H    -2.161414  3.370727  3.247255
H    -1.363045  3.150719  6.410797
H    -1.058161  4.613240  5.395680
H    0.282962  3.884190  6.325657
N    -3.057190  -1.271185  3.551526
C    -3.858611  -2.090857  4.467992
H    -3.412835  -1.155643  2.605252
H    -3.299326  -2.242951  5.393662
H    -4.067907  -3.057478  3.996091
H    -4.806253  -1.584071  4.687218
Cd    0.579745  0.233677  5.099437
