30
Energy: -180630.8646678  eV PBE+vdW (tier 2 basis)
C    0.049744  0.370502  0.086438
C    -0.138284  -0.658168  1.149139
O    0.794552  -1.547390  1.259746
H    1.020577  0.866177  0.215783
H    -0.754216  1.113631  0.076079
H    0.081349  -0.139919  -0.887846
N    -1.233863  -0.612843  1.900904
C    -1.868600  -1.648612  2.721502
C    -3.361327  -1.632307  2.178183
O    -3.758700  -0.563603  1.721757
H    -1.975576  0.056586  1.616377
H    -1.413434  -2.633821  2.510333
C    -1.950061  -1.327635  4.234525
C    -0.697149  -0.989850  5.046423
S    0.598683  -2.272722  5.385182
C    -0.301597  -3.710825  6.036475
H    -2.508780  -2.140468  4.719530
H    -2.593002  -0.438046  4.340342
H    -0.994424  -0.678394  6.059092
H    -0.119861  -0.155662  4.619495
H    0.449713  -4.487093  6.223375
H    -1.077328  -4.073362  5.357483
H    -0.734122  -3.387721  6.992490
N    -4.072865  -2.757141  2.309534
C    -5.478869  -2.865510  1.901637
H    -3.613712  -3.599929  2.638467
H    -6.066602  -3.300224  2.717615
H    -5.568029  -3.496981  1.009459
H    -5.851825  -1.863543  1.674439
Cd    1.118816  -2.601079  3.009407
