30
Energy: -180629.8387052  eV PBE+vdW (tier 2 basis)
C    -0.563971  0.243434  -0.166725
C    -0.375217  0.223411  1.312416
O    0.737459  0.602876  1.793150
H    -0.367255  -0.761024  -0.576716
H    0.181853  0.916938  -0.602767
H    -1.569674  0.553522  -0.465482
N    -1.356575  -0.168711  2.172500
C    -2.199021  -1.371193  2.077185
C    -1.265366  -2.616850  2.176049
O    -0.027785  -2.501197  2.436334
H    -1.141333  0.089572  3.135432
H    -2.786870  -1.367399  3.009312
C    -3.201041  -1.394610  0.905340
C    -4.159599  -0.197014  0.929107
S    -5.205358  -0.229398  -0.556055
C    -6.358035  1.108918  -0.236816
H    -3.801303  -2.312545  0.980991
H    -2.674714  -1.458092  -0.056052
H    -3.618803  0.762175  0.949774
H    -4.811882  -0.223434  1.815797
H    -7.014821  1.161036  -1.112572
H    -5.824355  2.061718  -0.117114
H    -6.955348  0.896689  0.660676
N    -1.794616  -3.819573  2.020728
C    -1.040533  -5.071427  2.166484
H    -2.780807  -3.892341  1.790020
H    -1.744043  -5.904840  2.098316
H    -0.537563  -5.096707  3.139580
H    -0.291994  -5.161016  1.370272
Cd    1.561324  -1.039304  3.039446
