30
Energy: -180630.0249461  eV PBE+vdW (tier 2 basis)
C    -0.192149  -0.233720  -0.146324
C    0.097830  0.072251  1.280136
O    1.305570  0.084726  1.686204
H    0.140836  0.596033  -0.787502
H    -1.244712  -0.463029  -0.335500
H    0.423994  -1.099473  -0.430893
N    -0.896238  0.318182  2.171944
C    -2.057395  1.177199  1.951000
C    -1.632152  2.626875  2.351152
O    -0.434808  2.932871  2.692905
H    -0.616079  0.219079  3.149551
H    -2.242468  1.198382  0.866035
C    -3.307330  0.600685  2.672364
C    -4.659047  0.793253  1.967012
S    -5.452360  2.388859  2.356055
C    -6.764750  2.471207  1.124221
H    -3.356472  0.957942  3.712035
H    -3.141273  -0.483849  2.730909
H    -4.565684  0.698880  0.874882
H    -5.352595  0.009012  2.302592
H    -7.450067  1.624946  1.264632
H    -7.303259  3.407632  1.307785
H    -6.355510  2.465567  0.106569
N    -2.540411  3.573116  2.302889
C    -2.294014  4.982167  2.627969
H    -3.525030  3.307270  2.079548
H    -1.578043  5.417567  1.920955
H    -1.899337  5.077859  3.646056
H    -3.245262  5.515800  2.554747
Cd    1.499403  1.912995  2.900153
