30
Energy: -180629.8351683  eV PBE+vdW (tier 2 basis)
C    -0.197589  1.664768  1.651827
C    0.035396  0.259632  2.078828
O    1.182017  -0.253004  1.848501
H    -1.023512  2.146731  2.177718
H    -0.356565  1.711108  0.563707
H    0.732769  2.220004  1.840764
N    -0.870134  -0.486561  2.773433
C    -2.273818  -0.820939  2.488604
C    -2.252024  -2.175241  1.728156
O    -1.267781  -2.533347  0.991849
H    -0.404473  -1.244475  3.276951
H    -2.761380  -1.006454  3.459893
C    -3.072002  0.290865  1.776998
C    -4.561176  -0.008602  1.522186
S    -5.533765  -0.691440  2.897543
C    -5.519160  0.623999  4.131927
H    -2.624542  0.530411  0.801645
H    -2.992855  1.190706  2.400798
H    -4.696498  -0.737253  0.711662
H    -5.048354  0.919732  1.190787
H    -6.143028  0.268076  4.959719
H    -5.966501  1.531338  3.705543
H    -4.510005  0.836433  4.505499
N    -3.315287  -2.941790  1.866044
C    -3.535596  -4.247015  1.238496
H    -4.060355  -2.576207  2.477526
H    -3.506782  -5.032978  2.003717
H    -2.762618  -4.429162  0.489513
H    -4.522046  -4.253044  0.761066
Cd    0.901550  -2.269297  1.031334
