30
Energy: -180631.8490815  eV PBE+vdW (tier 2 basis)
C    -0.270775  -1.193297  -0.255440
C    -0.593797  -0.158694  0.774279
O    0.269655  0.084027  1.667422
H    -1.065638  -1.342189  -0.993652
H    -0.067886  -2.145689  0.253721
H    0.655811  -0.904401  -0.769617
N    -1.799359  0.445863  0.686747
C    -2.444630  1.432391  1.577942
C    -1.749091  2.808372  1.467624
O    -0.632223  3.055897  2.009971
H    -2.367640  0.139530  -0.097875
H    -3.443194  1.560862  1.143377
C    -2.671977  0.862088  3.026425
C    -2.619729  1.842382  4.218188
S    -1.121252  1.546070  5.269278
C    -0.928569  3.102899  6.185990
H    -1.994170  0.012399  3.196891
H    -3.665708  0.397575  3.015496
H    -3.464188  1.675366  4.897875
H    -2.627012  2.897942  3.920684
H    -0.855998  3.964820  5.516359
H    -0.019780  2.996915  6.789892
H    -1.794891  3.189197  6.853047
N    -2.382075  3.730327  0.751792
C    -1.872694  5.075552  0.474212
H    -3.278229  3.485742  0.338200
H    -1.736392  5.198640  -0.607104
H    -0.915442  5.209226  0.982305
H    -2.593337  5.820784  0.831010
Cd    0.349208  1.526405  3.250968
