30
Energy: -180630.4661095  eV PBE+vdW (tier 2 basis)
C    -0.772055  1.035370  0.278718
C    -0.463578  0.337279  1.565717
O    0.714553  0.447288  2.026590
H    -1.807764  0.905953  -0.052678
H    -0.096918  0.645117  -0.496426
H    -0.548084  2.104848  0.384928
N    -1.451964  -0.372357  2.140637
C    -1.440206  -1.352399  3.250378
C    -1.389239  -0.683255  4.637638
O    -0.345075  -0.137504  5.121978
H    -2.336022  -0.325580  1.640993
H    -2.426639  -1.831695  3.178400
C    -0.398183  -2.477433  3.077529
C    -0.594585  -3.657069  4.036539
S    -2.200900  -4.468473  3.754499
C    -2.048133  -5.951433  4.764179
H    0.630603  -2.102393  3.207806
H    -0.456868  -2.824374  2.036060
H    -0.525236  -3.351751  5.092970
H    0.196768  -4.399100  3.860091
H    -2.998269  -6.487827  4.663469
H    -1.878646  -5.691566  5.816886
H    -1.230371  -6.581343  4.390334
N    -2.492450  -0.720447  5.366428
C    -2.608614  -0.139425  6.709226
H    -3.307024  -1.191065  4.981334
H    -3.626179  -0.307971  7.069805
H    -2.406983  0.937566  6.672331
H    -1.893143  -0.613581  7.391452
Cd    1.468839  0.343001  4.038092
