30
Energy: -180631.7455417  eV PBE+vdW (tier 2 basis)
C    -1.277995  0.624191  -0.770432
C    -0.725264  0.186231  0.547916
O    0.437472  -0.315213  0.568858
H    -2.291611  1.033724  -0.708257
H    -1.275881  -0.232970  -1.457667
H    -0.606065  1.378525  -1.202107
N    -1.514953  0.347537  1.632998
C    -1.304900  -0.048638  3.040806
C    -0.242995  0.855751  3.698466
O    0.995357  0.720580  3.466216
H    -2.418352  0.768341  1.435221
H    -2.257824  0.190237  3.522910
C    -1.113399  -1.602884  3.197781
C    -0.224854  -2.128290  4.342275
S    1.488619  -2.691168  3.910418
C    1.195395  -4.264746  3.043953
H    -0.795518  -2.032567  2.237251
H    -2.121921  -2.011268  3.345275
H    -0.675908  -3.013463  4.809428
H    -0.064914  -1.396408  5.144777
H    2.170461  -4.597808  2.669697
H    0.482909  -4.166802  2.219342
H    0.833874  -4.977598  3.794692
N    -0.643491  1.814582  4.526153
C    -2.002294  2.200441  4.928618
H    0.121669  2.384756  4.890140
H    -2.545531  1.357872  5.372785
H    -2.566592  2.617606  4.085179
H    -1.913908  2.977644  5.692862
Cd    1.721036  -0.905162  2.181620
