30
Energy: -180630.4608640  eV PBE+vdW (tier 2 basis)
C    -0.920586  -0.272867  0.415871
C    -0.590124  -0.655787  1.822533
O    0.613975  -1.013516  2.064002
H    -1.956456  0.062430  0.300207
H    -0.730523  -1.126908  -0.247909
H    -0.237227  0.529013  0.102197
N    -1.564299  -0.584820  2.736841
C    -1.453595  -0.575111  4.206797
C    -1.553883  -1.999985  4.798873
O    -0.659715  -2.879382  4.542163
H    -2.475072  -0.224837  2.390570
H    -0.427659  -0.252168  4.462381
C    -2.394265  0.503158  4.793841
C    -3.896296  0.475513  4.437225
S    -4.359812  0.878443  2.713674
C    -4.066599  2.659466  2.632659
H    -1.977598  1.478463  4.506002
H    -2.293610  0.472679  5.890279
H    -4.422157  1.183502  5.092754
H    -4.370759  -0.503936  4.595763
H    -4.707369  3.172818  3.360451
H    -4.356738  2.966070  1.621016
H    -3.014133  2.917623  2.801109
N    -2.541060  -2.326456  5.609101
C    -2.684178  -3.638511  6.253274
H    -3.258463  -1.632215  5.794385
H    -3.406390  -3.544031  7.068171
H    -1.717078  -3.963750  6.650104
H    -3.043457  -4.380199  5.528950
Cd    1.182121  -2.463700  3.517714
