30
Energy: -180630.4792669  eV PBE+vdW (tier 2 basis)
C    -1.302144  -0.661082  0.337783
C    -0.789204  -0.941912  1.712767
O    0.391010  -1.415317  1.817424
H    -0.586984  0.000869  -0.170827
H    -2.292021  -0.194054  0.338858
H    -1.331306  -1.596217  -0.237688
N    -1.589912  -0.666959  2.754189
C    -1.212951  -0.528831  4.171761
C    -1.395734  -1.863210  4.929852
O    -0.628023  -2.857491  4.688481
H    -2.499768  -0.245163  2.509458
H    -0.123620  -0.348673  4.206431
C    -1.864209  0.730315  4.790418
C    -3.381674  0.942257  4.632994
S    -3.797284  1.582683  2.972316
C    -5.597997  1.655808  3.040608
H    -1.344320  1.602920  4.368244
H    -1.609507  0.742585  5.860738
H    -3.710685  1.689721  5.368866
H    -3.982884  0.034347  4.803901
H    -5.923034  2.051551  2.071697
H    -5.912212  2.343438  3.835945
H    -6.031919  0.660660  3.197039
N    -2.326978  -1.993351  5.853853
C    -2.542525  -3.213321  6.643147
H    -2.939022  -1.201830  6.030147
H    -2.990936  -3.996130  6.019053
H    -3.216130  -2.973148  7.469502
H    -1.586735  -3.573527  7.038373
Cd    1.055705  -2.761940  3.344670
