30
Energy: -180629.8173658  eV PBE+vdW (tier 2 basis)
C    0.239218  0.112859  0.133646
C    0.053582  0.037933  1.608891
O    1.055593  -0.167284  2.361231
H    0.778398  1.034136  -0.133159
H    -0.699873  0.046680  -0.423275
H    0.896028  -0.717204  -0.164178
N    -1.178986  0.162851  2.170706
C    -2.129117  1.236229  1.866586
C    -1.505884  2.541898  2.424541
O    -0.747600  2.495348  3.449396
H    -1.204654  -0.126481  3.150164
H    -2.250126  1.302843  0.777862
C    -3.475445  0.869786  2.537218
C    -4.665475  1.782870  2.228673
S    -6.144054  1.083942  3.029913
C    -7.429370  2.227010  2.518281
H    -3.320475  0.828762  3.627404
H    -3.708090  -0.153545  2.207764
H    -4.526395  2.803468  2.616266
H    -4.866203  1.845776  1.148162
H    -7.531466  2.231793  1.424366
H    -8.357971  1.860797  2.970999
H    -7.217860  3.240994  2.884436
N    -1.757731  3.720222  1.868799
C    -2.580475  4.069163  0.709903
H    -1.296717  4.501344  2.340527
H    -3.489399  4.594203  1.028974
H    -2.859864  3.179665  0.140311
H    -2.003686  4.735266  0.057791
Cd    1.037310  1.271283  4.061685
