30
Energy: -180630.5355990  eV PBE+vdW (tier 2 basis)
C    1.784911  -3.378773  2.076374
C    1.032233  -2.181266  2.559198
O    1.520740  -1.033435  2.324914
H    1.314617  -4.327323  2.356787
H    2.810580  -3.343582  2.465526
H    1.857812  -3.325072  0.980485
N    -0.134249  -2.380788  3.201035
C    -1.135256  -1.359121  3.547675
C    -0.756330  -0.658191  4.875087
O    -0.115734  0.446503  4.867611
H    -0.407950  -3.352056  3.332729
H    -1.083624  -0.573937  2.775841
C    -2.547621  -1.975112  3.486863
C    -3.692731  -0.966673  3.350280
S    -3.845524  0.145410  4.783796
C    -5.296241  1.109340  4.326051
H    -2.728398  -2.647457  4.341418
H    -2.581191  -2.615856  2.592763
H    -4.639221  -1.515999  3.243404
H    -3.568007  -0.354161  2.444163
H    -5.125794  1.647261  3.384845
H    -5.460203  1.826201  5.138048
H    -6.170936  0.452019  4.234337
N    -1.066419  -1.232137  6.023592
C    -0.752617  -0.669295  7.340417
H    -1.646629  -2.066363  6.001388
H    -1.492476  0.096341  7.609355
H    0.241757  -0.214010  7.319909
H    -0.778184  -1.476007  8.077996
Cd    1.222685  0.916539  3.227111
