30
Energy: -180630.5255862  eV PBE+vdW (tier 2 basis)
C    1.399128  0.275004  0.890159
C    0.822321  -0.301598  2.143384
O    1.574208  -0.360296  3.167017
H    2.200687  -0.384416  0.528555
H    1.865280  1.240843  1.125367
H    0.651620  0.407637  0.100329
N    -0.453425  -0.721709  2.106675
C    -1.321073  -1.070443  3.242338
C    -1.108600  -2.541167  3.683589
O    -0.181772  -2.853991  4.503650
H    -0.943765  -0.526582  1.227918
H    -1.000426  -0.462440  4.106790
C    -2.791090  -0.714103  2.948100
C    -3.037394  0.743330  2.520232
S    -2.900657  0.893663  0.707320
C    -3.055817  2.670105  0.450796
H    -3.362221  -0.916492  3.864491
H    -3.210847  -1.375113  2.170997
H    -2.339990  1.444842  3.002575
H    -4.054782  1.043428  2.806563
H    -2.997298  2.831001  -0.631544
H    -2.247068  3.215304  0.953146
H    -4.031748  3.013578  0.817302
N    -1.894393  -3.489930  3.214052
C    -1.763989  -4.911801  3.559857
H    -2.659422  -3.222777  2.601129
H    -2.459619  -5.480712  2.938278
H    -2.006053  -5.067304  4.618329
H    -0.739082  -5.250374  3.372403
Cd    1.458289  -1.526488  4.976204
