30
Energy: -180631.0586630  eV PBE+vdW (tier 2 basis)
C    -0.519133  1.802873  0.282969
C    -0.848971  1.086775  1.537297
O    -0.085750  1.135224  2.544385
H    -0.151664  2.813738  0.493766
H    -1.342859  1.813261  -0.437422
H    0.318515  1.255303  -0.185205
N    -1.992762  0.317752  1.630446
C    -3.361797  0.783277  1.387786
C    -3.501003  2.246667  1.864704
O    -2.921479  2.650745  2.917021
H    -1.900618  -0.450392  2.292707
H    -3.601934  0.731206  0.315384
C    -4.386223  -0.130693  2.139792
C    -3.979099  -0.919540  3.396465
S    -3.468164  -0.137253  4.996985
C    -4.819720  1.017050  5.374094
H    -4.712980  -0.909148  1.433961
H    -5.283038  0.467220  2.348594
H    -3.178927  -1.652902  3.211519
H    -4.845919  -1.526829  3.698404
H    -4.584150  1.453443  6.351968
H    -5.735113  0.418836  5.460878
H    -4.922424  1.801362  4.619547
N    -4.274086  3.041325  1.138938
C    -4.586046  4.438833  1.452834
H    -4.678669  2.659040  0.286653
H    -4.248710  5.081407  0.631005
H    -4.073774  4.722809  2.374558
H    -5.669427  4.555781  1.575329
Cd    -1.587017  1.339592  4.169843
