30
Energy: -180630.8457110  eV PBE+vdW (tier 2 basis)
C    0.702120  -0.244474  0.343619
C    0.308381  0.291372  1.676408
O    1.275267  0.638600  2.467361
H    1.314866  0.498911  -0.183945
H    -0.163838  -0.514742  -0.269396
H    1.334501  -1.131565  0.492104
N    -0.975898  0.371677  1.988958
C    -1.621872  0.727625  3.249080
C    -3.003387  -0.026082  3.144590
O    -3.445832  -0.164752  2.006659
H    -1.696714  0.056764  1.313474
H    -1.031238  0.329327  4.095693
C    -1.883831  2.266622  3.367119
C    -1.934576  2.834142  4.789181
S    -0.313926  3.201708  5.630300
C    0.048694  4.909266  5.093350
H    -2.851603  2.478350  2.886506
H    -1.157360  2.826763  2.753464
H    -2.447992  2.170891  5.495657
H    -2.456124  3.800473  4.809394
H    1.060726  5.145801  5.442131
H    -0.673917  5.545135  5.620258
H    -0.036252  5.032219  4.009456
N    -3.645379  -0.419723  4.256532
C    -3.202720  -0.488422  5.644653
H    -4.554665  -0.835856  4.052105
H    -3.728089  0.245830  6.271054
H    -2.121848  -0.330192  5.725757
H    -3.412300  -1.487983  6.043859
Cd    1.046862  1.790264  4.153481
