30
Energy: -180629.9569817  eV PBE+vdW (tier 2 basis)
C    -0.281290  0.252855  -0.130829
C    -0.108765  0.125666  1.343225
O    1.049804  -0.052561  1.828566
H    0.099515  1.228055  -0.470658
H    -1.316849  0.121368  -0.458064
H    0.353606  -0.503829  -0.612463
N    -1.178949  0.176152  2.182996
C    -2.214469  1.208158  2.134733
C    -1.594141  2.505167  2.722283
O    -0.544718  2.452539  3.443265
H    -0.949003  -0.108347  3.137003
H    -2.483456  1.381637  1.083205
C    -3.457115  0.767742  2.936647
C    -4.162075  -0.446509  2.321609
S    -5.560407  -0.932515  3.375001
C    -6.271721  -2.297114  2.451333
H    -4.158984  1.609589  3.000876
H    -3.149881  0.549655  3.972145
H    -3.484014  -1.309571  2.230478
H    -4.551050  -0.219497  1.316308
H    -7.127625  -2.648735  3.038572
H    -5.542254  -3.110861  2.338472
H    -6.615484  -1.959083  1.464101
N    -2.169415  3.679128  2.504559
C    -3.395741  3.996309  1.770190
H    -1.699360  4.463154  2.960945
H    -3.243814  4.939273  1.234148
H    -4.241324  4.117466  2.459943
H    -3.629437  3.219170  1.036695
Cd    1.425055  1.376658  3.498869
