30
Energy: -180629.8769230  eV PBE+vdW (tier 2 basis)
C    0.807542  0.064446  0.594552
C    -0.110112  1.021199  1.267172
O    -0.138130  2.239200  0.895598
H    0.601608  0.020725  -0.483518
H    0.795071  -0.936174  1.036322
H    1.826374  0.474270  0.690809
N    -0.904700  0.627748  2.299801
C    -1.756958  -0.569323  2.276036
C    -3.195710  -0.058126  1.989995
O    -3.400358  0.939513  1.208326
H    -1.243952  1.398870  2.876404
H    -1.490946  -1.119145  1.358205
C    -1.511466  -1.535959  3.448430
C    -2.022089  -1.133346  4.847384
S    -3.463361  -2.173881  5.248735
C    -4.083111  -1.456315  6.778554
H    -0.424260  -1.682002  3.490784
H    -1.912096  -2.523383  3.169761
H    -2.313676  -0.073940  4.916808
H    -1.256050  -1.308080  5.614057
H    -4.952789  -2.055345  7.071591
H    -4.379495  -0.409426  6.637267
H    -3.312424  -1.531087  7.557146
N    -4.227911  -0.706272  2.483640
C    -5.626378  -0.374150  2.189877
H    -4.067152  -1.442757  3.193653
H    -6.262269  -1.040723  2.778057
H    -5.832102  -0.522913  1.123339
H    -5.840206  0.668419  2.453212
Cd    -2.271557  2.735168  0.634979
