30
Energy: -180630.4930460  eV PBE+vdW (tier 2 basis)
C    0.112691  0.104757  0.038252
C    -0.082040  0.146290  1.519539
O    0.849491  0.615090  2.240632
H    1.004582  -0.492673  -0.193010
H    0.317190  1.125674  -0.314628
H    -0.750358  -0.296729  -0.503570
N    -1.253330  -0.297699  2.017042
C    -1.750714  -0.143281  3.393229
C    -1.286475  -1.334903  4.260990
O    -0.103156  -1.373924  4.729933
H    -1.904055  -0.692738  1.341695
H    -1.248183  0.740288  3.819615
C    -3.267891  0.123825  3.389531
C    -3.628661  1.494688  2.781657
S    -5.411917  1.757120  2.561444
C    -5.968147  2.194272  4.215384
H    -3.625916  0.081339  4.427602
H    -3.794979  -0.667377  2.830670
H    -3.218309  1.600924  1.767824
H    -3.224781  2.315844  3.391772
H    -5.820591  1.370676  4.926397
H    -7.041521  2.398532  4.126254
H    -5.454006  3.098704  4.567343
N    -2.115801  -2.332449  4.508054
C    -1.758070  -3.518942  5.297350
H    -3.061250  -2.276445  4.140103
H    -2.641587  -4.156648  5.378062
H    -1.428130  -3.218840  6.298575
H    -0.949970  -4.071918  4.804133
Cd    1.495295  0.034777  4.239208
