30
Energy: -180631.0771371  eV PBE+vdW (tier 2 basis)
C    0.012021  -2.580602  0.350744
C    -0.358819  -1.814905  1.576533
O    -0.402924  -0.551225  1.531996
H    -0.651201  -2.282788  -0.472261
H    -0.040390  -3.665853  0.488429
H    1.031967  -2.299867  0.052916
N    -0.641527  -2.516998  2.711183
C    -1.032906  -1.791260  3.904917
C    0.168685  -1.294931  4.738489
O    0.511596  -0.076248  4.616414
H    -0.564742  -3.530531  2.690872
H    -1.381576  -0.881619  3.428951
C    -2.317908  -2.169553  4.674920
C    -3.447578  -1.205320  4.260411
S    -3.056707  0.604887  4.521758
C    -4.455349  1.387868  3.665917
H    -2.146676  -2.117709  5.758201
H    -2.652058  -3.193608  4.455897
H    -4.344933  -1.361721  4.874806
H    -3.720333  -1.332812  3.203824
H    -4.302963  2.470330  3.743918
H    -5.366270  1.112667  4.210763
H    -4.516706  1.077280  2.618471
N    0.808189  -2.131432  5.536926
C    1.976709  -1.790790  6.357163
H    0.462851  -3.086525  5.599085
H    2.800564  -2.471705  6.114323
H    1.723093  -1.894124  7.418998
H    2.272713  -0.760877  6.146937
Cd    -0.787824  1.007971  3.159500
