30
Energy: -180629.7966768  eV PBE+vdW (tier 2 basis)
C    -0.495086  0.054465  -0.317724
C    -0.133741  0.191823  1.119746
O    1.078214  0.077954  1.479539
H    -0.104849  0.909820  -0.889084
H    -1.570487  -0.056030  -0.483919
H    0.024336  -0.831705  -0.710676
N    -1.085037  0.415511  2.067197
C    -2.114015  1.455542  1.987022
C    -1.372811  2.813038  2.096750
O    -0.296221  2.893739  2.777881
H    -0.741800  0.271133  3.018644
H    -2.625485  1.375077  1.019482
C    -3.113226  1.213601  3.148496
C    -4.329969  2.149188  3.195998
S    -5.400459  1.845383  4.635607
C    -6.352712  0.403026  4.146530
H    -2.564689  1.289281  4.100433
H    -3.445509  0.170785  3.049327
H    -4.028297  3.197889  3.322088
H    -4.945846  2.072201  2.288556
H    -5.709166  -0.472379  3.985458
H    -7.035311  0.196847  4.979221
H    -6.935825  0.616413  3.240035
N    -1.841783  3.907135  1.511447
C    -3.035744  4.112271  0.689326
H    -1.265344  4.735958  1.673747
H    -3.778123  4.708306  1.234565
H    -3.483863  3.159719  0.397237
H    -2.747743  4.657525  -0.217033
Cd    1.628415  1.741565  2.856838
