30
Energy: -180630.1083614  eV PBE+vdW (tier 2 basis)
C    -0.290767  -1.331568  0.154378
C    -0.313088  -0.761432  1.536117
O    0.638465  -0.007106  1.892289
H    -0.282262  -0.502208  -0.566845
H    -1.144004  -1.984629  -0.058568
H    0.644045  -1.888629  0.008795
N    -1.357933  -1.071521  2.332841
C    -1.635691  -0.474170  3.638376
C    -0.781069  -1.130852  4.754400
O    0.267610  -0.525100  5.159193
H    -2.058121  -1.689360  1.932867
H    -1.230335  0.547331  3.595073
C    -3.155731  -0.305799  3.961107
C    -4.170248  -1.049772  3.082685
S    -5.822668  -0.792908  3.808278
C    -6.896704  -1.532826  2.570862
H    -3.378493  0.766261  3.892151
H    -3.316840  -0.568704  5.015761
H    -3.998721  -2.137127  3.034695
H    -4.186923  -0.654560  2.055525
H    -7.916753  -1.423416  2.957174
H    -6.669761  -2.598977  2.438657
H    -6.810897  -1.001300  1.613802
N    -1.085064  -2.287140  5.324136
C    -2.211334  -3.190155  5.085380
H    -0.424113  -2.567887  6.050620
H    -1.945969  -4.168872  5.495853
H    -2.392206  -3.316404  4.013098
H    -3.123188  -2.841496  5.586899
Cd    1.427951  0.728270  3.798834
