30
Energy: -180630.5388718  eV PBE+vdW (tier 2 basis)
C    -1.005213  1.291573  -1.757815
C    -0.700854  1.231506  -0.304693
O    0.413349  1.736217  0.113883
H    -1.959448  0.824973  -2.018206
H    -0.187981  0.845592  -2.339647
H    -1.040714  2.354622  -2.044753
N    -1.519382  0.694469  0.601364
C    -2.640698  -0.230725  0.552646
C    -3.356003  0.072214  1.904699
O    -2.632220  0.463181  2.841791
H    -1.439687  0.976682  1.607689
H    -3.289767  -0.022128  -0.306441
C    -2.196803  -1.740524  0.551265
C    -0.713648  -2.110599  0.520125
S    0.427464  -1.887501  1.983699
C    -0.602344  -2.057030  3.469030
H    -2.607536  -2.216752  -0.352167
H    -2.685194  -2.255406  1.389361
H    -0.162245  -1.651477  -0.312234
H    -0.637705  -3.198791  0.372240
H    0.088376  -1.999805  4.319099
H    -1.031898  -3.066584  3.427618
H    -1.375245  -1.282692  3.526399
N    -4.664787  -0.152954  1.975429
C    -5.467460  0.037537  3.187186
H    -5.155652  -0.424532  1.127541
H    -6.241810  0.790862  3.001492
H    -4.812983  0.379340  3.992509
H    -5.944919  -0.907613  3.471204
Cd    1.049155  0.527358  1.748925
