30
Energy: -180630.5589064  eV PBE+vdW (tier 2 basis)
C    1.471350  -2.817671  1.655454
C    0.895025  -1.633570  2.360614
O    1.687024  -0.694898  2.693059
H    2.276573  -3.249465  2.263776
H    1.932810  -2.470792  0.719135
H    0.727678  -3.587058  1.422271
N    -0.431281  -1.610387  2.588100
C    -1.260339  -0.452174  2.971868
C    -1.406612  -0.374845  4.508663
O    -0.424541  0.049854  5.224304
H    -0.938381  -2.439390  2.287215
H    -0.677323  0.446002  2.708993
C    -2.519218  -0.373812  2.077766
C    -3.500666  -1.561988  2.032275
S    -4.902744  -1.285493  3.168086
C    -5.772173  -2.865020  3.103306
H    -2.139758  -0.211922  1.059021
H    -3.058636  0.551380  2.331469
H    -3.038627  -2.531773  2.276631
H    -3.912590  -1.655968  1.018757
H    -6.639920  -2.763301  3.764937
H    -5.135073  -3.688214  3.447998
H    -6.120468  -3.049965  2.079219
N    -2.511198  -0.735730  5.114801
C    -2.708655  -0.666463  6.567074
H    -3.336448  -1.043722  4.545785
H    -3.746386  -0.937911  6.777864
H    -2.512908  0.348855  6.930861
H    -2.035604  -1.365063  7.078473
Cd    1.480090  0.593503  4.406226
