30
Energy: -180629.9334978  eV PBE+vdW (tier 2 basis)
C    -0.229652  1.138830  -0.623944
C    -0.276030  0.449878  0.694216
O    0.717112  -0.246030  1.076211
H    0.532666  1.931452  -0.612149
H    -1.197670  1.544173  -0.933541
H    0.110117  0.405808  -1.370883
N    -1.376368  0.525048  1.489692
C    -2.059745  1.767410  1.848479
C    -1.202517  2.468222  2.930925
O    -0.322153  1.822876  3.595991
H    -1.382304  -0.168308  2.240182
H    -2.106695  2.407369  0.954658
C    -3.491168  1.473518  2.341696
C    -4.398078  0.869716  1.255486
S    -4.737157  1.970145  -0.151488
C    -6.157052  2.918406  0.419696
H    -3.937611  2.393878  2.739439
H    -3.444619  0.772497  3.191396
H    -5.356109  0.565564  1.697170
H    -3.941773  -0.027222  0.814657
H    -6.382562  3.646445  -0.367587
H    -5.942411  3.444878  1.358806
H    -7.018444  2.250448  0.556721
N    -1.392490  3.749783  3.205975
C    -2.352250  4.693561  2.630513
H    -0.799729  4.107985  3.957340
H    -1.848194  5.655269  2.484385
H    -3.200467  4.842202  3.311688
H    -2.716359  4.343491  1.660236
Cd    1.183247  0.240642  3.187362
