30
Energy: -180631.8164537  eV PBE+vdW (tier 2 basis)
C    -0.146668  -0.270003  -0.349395
C    -0.317895  -0.420750  1.129615
O    0.671614  -0.772423  1.826234
H    -1.073247  -0.025425  -0.879086
H    0.275812  -1.196912  -0.758312
H    0.592417  0.522287  -0.535144
N    -1.542284  -0.155211  1.640686
C    -2.015663  -0.141109  3.037677
C    -1.145455  0.745607  3.966669
O    -0.143509  0.320142  4.621081
H    -2.238768  0.117980  0.952981
H    -2.969250  0.397310  2.966689
C    -2.427662  -1.529386  3.652686
C    -1.800433  -2.852008  3.182312
S    -0.317914  -3.570172  4.025870
C    -0.863761  -3.800872  5.745084
H    -3.495727  -1.639335  3.417880
H    -2.394186  -1.441335  4.748046
H    -1.515517  -2.838055  2.121414
H    -2.544858  -3.653574  3.288617
H    0.000347  -4.202002  6.287553
H    -1.660593  -4.554248  5.727520
H    -1.207239  -2.872527  6.210123
N    -1.530379  2.006545  4.097804
C    -0.843913  3.000640  4.928319
H    -2.378842  2.306665  3.624983
H    -0.998693  3.989763  4.487056
H    0.224254  2.771169  4.966432
H    -1.252499  2.990771  5.947151
Cd    0.908409  -1.418468  3.893901
