30
Energy: -180630.2454440  eV PBE+vdW (tier 2 basis)
C    0.540164  -0.250274  0.140839
C    0.128727  0.209901  1.500493
O    0.677498  1.237985  2.034811
H    1.622713  -0.433322  0.117157
H    0.345344  0.565499  -0.570670
H    0.010296  -1.149119  -0.191843
N    -0.851275  -0.450662  2.118680
C    -1.539281  -0.160081  3.379359
C    -0.670831  0.423965  4.489503
O    0.528097  0.018420  4.691714
H    -1.250363  -1.262840  1.613838
H    -2.349678  0.552953  3.157009
C    -2.171061  -1.467574  3.942037
C    -3.258299  -2.105401  3.056821
S    -2.695478  -2.971290  1.554490
C    -2.081822  -4.538967  2.201539
H    -2.640131  -1.222625  4.906092
H    -1.367523  -2.183705  4.165451
H    -3.976117  -1.353110  2.699463
H    -3.824172  -2.831976  3.656593
H    -1.278152  -4.395136  2.933718
H    -2.912632  -5.095550  2.654603
H    -1.699715  -5.098335  1.340099
N    -1.229020  1.272956  5.343666
C    -2.587478  1.827197  5.347464
H    -0.637874  1.509009  6.141545
H    -2.845509  2.237419  4.363870
H    -2.616808  2.642471  6.075634
H    -3.327557  1.072441  5.643417
Cd    2.130751  0.995231  3.597872
