30
Energy: -180629.8713359  eV PBE+vdW (tier 2 basis)
C    -0.894371  -0.783067  -0.497168
C    -0.238927  -0.801982  0.838416
O    0.840848  -1.452230  1.000278
H    -0.264926  -0.247362  -1.222551
H    -1.903701  -0.361512  -0.479022
H    -0.947885  -1.822423  -0.854653
N    -0.791697  -0.164177  1.905508
C    -1.273931  1.213832  1.889353
C    -0.053684  2.123508  2.224505
O    1.093989  1.647355  2.492091
H    -0.371488  -0.443586  2.792551
H    -1.569816  1.447581  0.856020
C    -2.520895  1.419759  2.783818
C    -2.298421  1.173771  4.285174
S    -3.837191  1.140771  5.253382
C    -4.303139  2.872144  5.362458
H    -3.295900  0.739114  2.405465
H    -2.906688  2.436628  2.622572
H    -1.621317  1.916906  4.732882
H    -1.877102  0.175147  4.471841
H    -4.556458  3.286191  4.377105
H    -3.502965  3.460372  5.831994
H    -5.196419  2.901491  5.997545
N    -0.239567  3.434304  2.221062
C    0.823119  4.415876  2.475288
H    -1.167725  3.790260  2.009762
H    1.639010  4.285600  1.754860
H    1.218189  4.295616  3.490714
H    0.399423  5.417059  2.364805
Cd    2.295939  -0.224835  2.139010
