30
Energy: -180631.7351430  eV PBE+vdW (tier 2 basis)
C    0.105513  -0.689977  0.055072
C    0.094058  -0.465565  1.533015
O    1.148498  -0.719405  2.184630
H    0.358152  -1.741202  -0.140569
H    0.906607  -0.083155  -0.388512
H    -0.844669  -0.450506  -0.433563
N    -1.054770  -0.009087  2.081024
C    -1.400253  0.237741  3.495568
C    -0.621825  1.458756  4.029729
O    0.583192  1.383365  4.416592
H    -1.810200  0.138957  1.417994
H    -2.451909  0.538733  3.459014
C    -1.353420  -1.078454  4.355370
C    -0.973623  -0.975904  5.848916
S    0.678097  -1.752198  6.177953
C    1.196143  -1.000693  7.749233
H    -0.721632  -1.823749  3.849108
H    -2.358670  -1.513158  4.292660
H    -1.671543  -1.551730  6.468774
H    -0.949116  0.052363  6.228616
H    0.499753  -1.357374  8.517815
H    1.203041  0.091903  7.696132
H    2.198088  -1.390253  7.964102
N    -1.239987  2.633955  4.074445
C    -2.606375  2.989504  3.670372
H    -0.645299  3.396890  4.401256
H    -2.744869  2.880254  2.587509
H    -2.765531  4.040723  3.926243
H    -3.353651  2.397947  4.212903
Cd    1.681200  -0.515682  4.253598
