30
Energy: -180630.5513376  eV PBE+vdW (tier 2 basis)
C    -1.019883  -2.347686  0.851602
C    -0.846928  -1.327981  1.930944
O    0.275135  -0.731606  2.000880
H    -0.764324  -1.888075  -0.112755
H    -2.038535  -2.748297  0.807436
H    -0.305910  -3.167116  1.012757
N    -1.884607  -1.110541  2.755246
C    -2.088800  0.014586  3.680992
C    -1.382634  -0.231477  5.039890
O    -0.153971  0.068461  5.206572
H    -2.747426  -1.605501  2.498886
H    -1.583836  0.900992  3.255992
C    -3.585246  0.350931  3.799765
C    -4.271372  0.711111  2.463949
S    -4.738709  -0.703016  1.409822
C    -6.333815  -1.190624  2.099462
H    -3.673290  1.213520  4.476509
H    -4.140227  -0.477801  4.268297
H    -3.623980  1.344732  1.841532
H    -5.181703  1.289455  2.666955
H    -6.658236  -2.068260  1.528755
H    -7.059713  -0.379224  1.961147
H    -6.259082  -1.456338  3.161340
N    -2.057999  -0.750825  6.045468
C    -1.481311  -1.031501  7.367415
H    -3.047651  -0.938552  5.911952
H    -0.583951  -1.650793  7.260750
H    -2.227907  -1.564587  7.961016
H    -1.213820  -0.093973  7.869997
Cd    1.161731  0.477986  3.538425
