30
Energy: -180630.0634375  eV PBE+vdW (tier 2 basis)
C    -3.008759  0.161564  -1.069382
C    -1.828654  -0.060045  -0.192666
O    -0.719722  -0.420692  -0.707027
H    -3.950067  0.232853  -0.517017
H    -3.062861  -0.683018  -1.772547
H    -2.858508  1.058252  -1.689135
N    -1.904568  0.091911  1.155936
C    -2.513097  1.216934  1.857356
C    -1.510433  2.405505  1.814362
O    -0.282009  2.277438  1.471948
H    -1.157312  -0.374932  1.673495
H    -3.407926  1.525546  1.297131
C    -2.928919  0.752833  3.276945
C    -3.551030  1.789851  4.218766
S    -4.863308  2.763594  3.408066
C    -5.508978  3.734223  4.784108
H    -2.048633  0.332300  3.788814
H    -3.632853  -0.077042  3.125483
H    -2.798585  2.485470  4.619268
H    -3.994513  1.266579  5.077351
H    -6.273225  4.396547  4.362625
H    -4.715514  4.327731  5.254574
H    -5.970319  3.063908  5.520645
N    -1.970275  3.589984  2.157951
C    -1.181373  4.826633  2.164640
H    -2.966264  3.640168  2.448877
H    -0.382656  4.768177  2.913832
H    -1.850306  5.655788  2.408620
H    -0.735079  4.998877  1.178572
Cd    0.823814  0.828557  0.247755
