30
Energy: -180630.3120221  eV PBE+vdW (tier 2 basis)
C    -0.024339  -0.089435  -0.062154
C    -0.135737  0.143476  1.410047
O    0.829851  0.698976  2.010445
H    0.870726  -0.692500  -0.264279
H    0.126217  0.878378  -0.560638
H    -0.903222  -0.582696  -0.491057
N    -1.269868  -0.242235  2.031461
C    -1.618605  0.047744  3.424087
C    -0.878719  -0.889920  4.411197
O    0.116774  -0.426242  5.063200
H    -1.978641  -0.681897  1.449672
H    -1.201643  1.041042  3.657687
C    -3.145165  0.146819  3.620795
C    -3.715152  1.463027  3.051088
S    -5.528060  1.522714  3.021966
C    -5.951949  1.913655  4.725733
H    -3.357869  0.084873  4.697029
H    -3.652041  -0.706861  3.150897
H    -3.428590  1.595067  1.997871
H    -3.341603  2.333053  3.610843
H    -5.506179  2.872464  5.022623
H    -5.639465  1.118351  5.415337
H    -7.044691  1.997392  4.751441
N    -1.232406  -2.148050  4.624823
C    -2.333738  -2.937061  4.066985
H    -0.645494  -2.620685  5.314847
H    -2.065293  -3.993770  4.160594
H    -2.478142  -2.721365  3.004199
H    -3.266503  -2.765957  4.618672
Cd    1.491962  0.969355  4.084894
