30
Energy: -180630.0228825  eV PBE+vdW (tier 2 basis)
C    0.241853  -0.333480  0.734193
C    0.150268  0.312489  2.073192
O    1.209738  0.672754  2.671541
H    0.502605  0.417310  -0.027332
H    -0.673259  -0.857496  0.443009
H    1.079801  -1.043936  0.757746
N    -1.052677  0.504757  2.680060
C    -2.222885  1.087706  2.027913
C    -1.992827  2.627950  1.955176
O    -1.054522  3.195522  2.596097
H    -0.966952  0.770565  3.662966
H    -2.275207  0.698752  1.000251
C    -3.515643  0.733595  2.792591
C    -3.821134  -0.768612  2.784861
S    -5.321807  -1.086660  3.758736
C    -5.542449  -2.854690  3.545320
H    -4.356371  1.281587  2.344782
H    -3.431443  1.102783  3.827470
H    -2.997612  -1.354729  3.222115
H    -3.989915  -1.139918  1.761606
H    -6.437391  -3.121277  4.118988
H    -4.675329  -3.403786  3.937397
H    -5.696674  -3.100363  2.485563
N    -2.822272  3.344652  1.213849
C    -2.741378  4.803433  1.064552
H    -3.579183  2.866473  0.732193
H    -3.473406  5.112788  0.314503
H    -1.737458  5.092742  0.734499
H    -2.963785  5.297188  2.018066
Cd    1.003992  2.769737  3.393646
