30
Energy: -180629.9075831  eV PBE+vdW (tier 2 basis)
C    -0.073149  0.360500  0.232165
C    -0.776569  0.837605  1.453608
O    -0.626780  2.039191  1.837713
H    -0.481530  0.858599  -0.659493
H    -0.103990  -0.726263  0.110292
H    0.975844  0.684280  0.303831
N    -1.556990  0.000969  2.190391
C    -2.581625  -0.878065  1.634478
C    -3.899891  -0.047230  1.562086
O    -3.955054  1.169017  1.928237
H    -1.797890  0.388934  3.103376
H    -2.295712  -1.103593  0.596355
C    -2.696641  -2.224363  2.386713
C    -3.085655  -2.108641  3.869995
S    -3.503427  -3.701098  4.639774
C    -1.907034  -4.498322  4.848563
H    -1.727714  -2.731294  2.284920
H    -3.424717  -2.861775  1.864051
H    -4.001267  -1.512699  4.001022
H    -2.287358  -1.646050  4.469917
H    -2.110044  -5.441704  5.368905
H    -1.242277  -3.876588  5.463684
H    -1.435145  -4.718565  3.881587
N    -4.983484  -0.643605  1.092385
C    -6.281036  0.023330  0.921601
H    -4.919043  -1.621000  0.821070
H    -6.170678  0.905336  0.280440
H    -6.681442  0.333086  1.894053
H    -6.970340  -0.682905  0.452345
Cd    -2.604466  2.924183  2.323040
