30
Energy: -180630.5500091  eV PBE+vdW (tier 2 basis)
C    0.030332  0.483780  0.405032
C    0.009252  -0.071953  1.794888
O    1.011212  -0.752745  2.169051
H    -0.880594  1.029673  0.137459
H    0.178080  -0.344120  -0.302066
H    0.899637  1.147147  0.300310
N    -1.078744  0.185899  2.548263
C    -1.504614  -0.321762  3.872347
C    -0.747652  0.352517  5.033368
O    0.459873  0.082153  5.337763
H    -1.765888  0.777032  2.088467
H    -2.552386  0.001577  3.952436
C    -1.543138  -1.859590  4.002382
C    -2.504453  -2.551643  3.008188
S    -4.238966  -2.110779  3.284151
C    -4.782212  -3.352959  4.474432
H    -1.829882  -2.100153  5.036078
H    -0.544972  -2.320937  3.846256
H    -2.390555  -3.640272  3.080827
H    -2.272437  -2.266084  1.973495
H    -5.829681  -3.119963  4.697622
H    -4.198300  -3.307154  5.402346
H    -4.715924  -4.353824  4.029576
N    -1.413311  1.238150  5.755088
C    -0.847670  1.953793  6.905316
H    -2.371895  1.451799  5.492252
H    -0.150107  2.729322  6.564850
H    -0.314566  1.251100  7.554184
H    -1.667607  2.418863  7.458389
Cd    1.664676  -1.273325  4.161354
