30
Energy: -180631.0237658  eV PBE+vdW (tier 2 basis)
C    0.396618  1.011530  1.453918
C    -0.270214  0.271865  2.565049
O    0.239420  0.293775  3.722448
H    1.394421  0.580488  1.290760
H    0.549137  2.055339  1.758453
H    -0.168844  0.982450  0.516445
N    -1.419927  -0.407397  2.284362
C    -2.093548  -1.114797  3.356652
C    -1.535166  -2.531747  3.602280
O    -0.752196  -2.688194  4.595462
H    -1.763128  -0.412437  1.327656
H    -1.674434  -0.564162  4.190628
C    -3.593052  -0.878823  3.647660
C    -3.727799  0.147523  4.789654
S    -2.874484  -0.345288  6.377938
C    -3.008616  1.192592  7.336614
H    -4.082290  -1.823742  3.919167
H    -4.132374  -0.483968  2.775003
H    -4.777692  0.263597  5.092221
H    -3.337470  1.132070  4.497408
H    -4.075140  1.371344  7.518156
H    -2.552913  2.039072  6.813927
H    -2.506930  1.008595  8.293459
N    -1.837523  -3.553699  2.821401
C    -2.700220  -3.573252  1.641527
H    -1.387325  -4.434994  3.077401
H    -2.104337  -3.783071  0.744474
H    -3.212426  -2.614881  1.518001
H    -3.457730  -4.357631  1.754988
Cd    -0.339817  -0.774156  5.663889
