30
Energy: -180631.2080103  eV PBE+vdW (tier 2 basis)
C    -0.237892  0.214737  -0.534152
C    -0.105313  0.235639  0.942276
O    1.028220  0.213179  1.501278
H    0.457030  0.924162  -0.998878
H    -1.263683  0.369405  -0.882072
H    0.075810  -0.791119  -0.865671
N    -1.224626  0.262466  1.750484
C    -2.335834  1.217178  1.650846
C    -1.769049  2.608510  1.288185
O    -0.645085  2.986201  1.740587
H    -1.105454  -0.204805  2.648875
H    -3.058786  0.891031  0.887941
C    -3.080028  1.273619  3.013672
C    -2.482296  2.099614  4.165878
S    -0.969268  1.405803  4.982640
C    -0.687520  2.591466  6.332429
H    -3.283627  0.240778  3.335001
H    -4.068936  1.717042  2.826369
H    -3.213191  2.117552  4.987131
H    -2.272535  3.137256  3.878627
H    -0.614318  3.617452  5.959898
H    0.241099  2.285457  6.827732
H    -1.525688  2.481449  7.031289
N    -2.519303  3.389649  0.526448
C    -2.186603  4.760778  0.128167
H    -3.390898  3.003902  0.168803
H    -2.097168  4.813191  -0.963469
H    -1.239223  5.048523  0.588757
H    -2.982616  5.440302  0.454509
Cd    0.667782  1.741581  3.084421
