30
Energy: -180630.1923096  eV PBE+vdW (tier 2 basis)
C    0.397912  -0.701591  0.240553
C    0.238359  -0.519866  1.714313
O    1.278104  -0.266250  2.401494
H    1.158199  -1.469582  0.048294
H    0.776230  0.236864  -0.189618
H    -0.538953  -0.972799  -0.257427
N    -0.995527  -0.624319  2.241336
C    -1.323674  -0.309897  3.629247
C    -0.871876  -1.428881  4.604130
O    0.058028  -1.143387  5.442123
H    -1.773498  -0.831638  1.606867
H    -0.662300  0.525487  3.916364
C    -2.727421  0.312287  3.844149
C    -4.018972  -0.421459  3.472209
S    -4.167239  -0.660327  1.671351
C    -5.697088  -1.603362  1.529963
H    -2.705412  1.277289  3.315035
H    -2.785646  0.564966  4.913733
H    -4.862243  0.207517  3.793960
H    -4.131126  -1.385553  3.983726
H    -5.856638  -1.774487  0.459608
H    -6.530589  -1.014618  1.933685
H    -5.620469  -2.564787  2.052686
N    -1.355617  -2.658478  4.619689
C    -2.367213  -3.311987  3.792152
H    -0.915670  -3.250957  5.328551
H    -1.960866  -4.272472  3.452638
H    -2.617685  -2.706238  2.917077
H    -3.271245  -3.509931  4.382076
Cd    1.706603  -0.055234  4.528859
