30
Energy: -180630.1259617  eV PBE+vdW (tier 2 basis)
C    0.178364  -0.687122  0.282351
C    -0.047730  0.425493  1.253304
O    0.622428  1.491972  1.126170
H    1.250050  -0.920960  0.243249
H    -0.109053  -0.342069  -0.721172
H    -0.387242  -1.593114  0.525514
N    -0.962178  0.250233  2.232080
C    -1.375882  1.319742  3.137032
C    -0.256608  1.701189  4.137586
O    0.179285  2.904858  4.098355
H    -1.493638  -0.616232  2.217675
H    -1.445315  2.231969  2.520625
C    -2.824750  1.172773  3.659383
C    -3.271259  -0.011272  4.530465
S    -3.129162  0.367818  6.304611
C    -4.016263  -1.008730  7.053634
H    -3.448343  1.170016  2.752747
H    -3.072556  2.115174  4.170662
H    -2.745707  -0.953248  4.309264
H    -4.336516  -0.198852  4.333128
H    -3.962771  -0.853825  8.137215
H    -3.554115  -1.969341  6.792835
H    -5.067146  -0.994872  6.735309
N    0.320872  0.858337  4.983484
C    -0.012728  -0.511804  5.332950
H    1.055035  1.299277  5.541907
H    0.874575  -0.978697  5.771000
H    -0.313597  -1.081918  4.449197
H    -0.830197  -0.526390  6.078719
Cd    0.822986  3.477389  2.082340
