30
Energy: -180630.3858037  eV PBE+vdW (tier 2 basis)
C    -0.383825  0.005948  -0.263591
C    -0.261890  -0.130315  1.219474
O    0.894189  -0.265527  1.720583
H    0.128382  -0.835754  -0.747299
H    0.140893  0.920338  -0.575575
H    -1.421931  0.053379  -0.609765
N    -1.389318  -0.096047  1.957320
C    -1.447344  -0.029371  3.420678
C    -1.068237  -1.382933  4.072997
O    0.033730  -1.457165  4.729574
H    -2.256360  0.052757  1.446672
H    -0.648135  0.655026  3.750948
C    -2.782009  0.600431  3.875857
C    -2.810271  1.054595  5.337175
S    -2.770415  -0.351897  6.488668
C    -2.729505  0.479215  8.084288
H    -3.629343  -0.067195  3.670045
H    -2.933273  1.497343  3.255624
H    -3.736204  1.619255  5.520526
H    -1.968217  1.724791  5.567104
H    -2.705602  -0.309251  8.844476
H    -3.636587  1.085094  8.212241
H    -1.836750  1.110936  8.173864
N    -1.801783  -2.477752  3.948339
C    -3.107502  -2.690222  3.319865
H    -1.408835  -3.282192  4.440982
H    -3.145827  -3.726132  2.967242
H    -3.243892  -2.034437  2.456641
H    -3.919244  -2.536906  4.042528
Cd    1.775925  -0.705087  3.670175
