30
Energy: -180630.4839892  eV PBE+vdW (tier 2 basis)
C    -0.478918  0.003202  -0.250257
C    -0.661195  0.735697  1.039003
O    -0.238428  1.931124  1.111461
H    -1.044717  0.529600  -1.032811
H    -0.815103  -1.038311  -0.206304
H    0.578408  0.040448  -0.542233
N    -1.277078  0.098355  2.052990
C    -1.759649  0.707995  3.300081
C    -0.610110  0.835126  4.331729
O    0.035882  1.931141  4.465105
H    -1.568684  -0.858221  1.864901
H    -2.050495  1.745747  3.062058
C    -3.024062  -0.015290  3.803586
C    -3.917338  0.874029  4.681930
S    -3.099305  1.674814  6.094553
C    -3.022289  0.347610  7.311644
H    -2.769651  -0.945813  4.333932
H    -3.616161  -0.319314  2.926574
H    -4.776496  0.297612  5.050494
H    -4.321096  1.708050  4.089964
H    -2.557108  0.774919  8.207190
H    -2.424851  -0.503948  6.961359
H    -4.037238  0.011095  7.560394
N    -0.231861  -0.230868  5.015037
C    0.881044  -0.237039  5.972240
H    -0.761840  -1.089576  4.898775
H    1.807976  0.075523  5.478172
H    0.998628  -1.252640  6.358121
H    0.670631  0.450913  6.800400
Cd    0.138754  3.265260  2.773966
