30
Energy: -180629.9855843  eV PBE+vdW (tier 2 basis)
C    -1.397346  -0.375201  -0.166888
C    -0.562860  -0.068463  1.027087
O    0.704096  -0.111665  0.939459
H    -1.262465  0.399380  -0.935856
H    -2.458759  -0.497316  0.072135
H    -1.016961  -1.307958  -0.608960
N    -1.136836  0.228243  2.223697
C    -2.193769  1.223288  2.402097
C    -1.522755  2.619441  2.359748
O    -0.262125  2.745111  2.527780
H    -0.480625  0.198495  3.006336
H    -2.889843  1.137984  1.554869
C    -2.947506  0.980249  3.726502
C    -3.714873  -0.344222  3.768621
S    -5.054321  -0.368876  2.540521
C    -5.853937  -1.942225  2.884119
H    -3.635478  1.814837  3.914645
H    -2.225393  0.993901  4.558197
H    -4.159850  -0.479158  4.765243
H    -3.054735  -1.206171  3.583860
H    -5.147264  -2.772847  2.756540
H    -6.674121  -2.036905  2.164022
H    -6.256702  -1.944081  3.905966
N    -2.255192  3.707726  2.179743
C    -3.704700  3.842395  2.017221
H    -1.719678  4.577821  2.199832
H    -4.152031  2.907975  1.666161
H    -4.173719  4.141003  2.963862
H    -3.897392  4.620002  1.270245
Cd    1.588543  1.695308  1.878121
