30
Energy: -180631.7159833  eV PBE+vdW (tier 2 basis)
C    -0.407562  0.794075  0.644804
C    -0.185532  0.400652  2.072078
O    0.992657  0.180972  2.465339
H    -1.464041  0.871034  0.367235
H    0.091950  0.070245  -0.011372
H    0.078823  1.764989  0.472389
N    -1.278231  0.314179  2.864298
C    -1.395866  0.024588  4.306087
C    -0.536451  0.980165  5.166807
O    0.654340  0.723309  5.527265
H    -2.158204  0.506211  2.393833
H    -2.428327  0.315559  4.532455
C    -1.356667  -1.488264  4.719562
C    -0.495912  -2.526756  3.979475
S    1.153268  -2.874588  4.749482
C    1.900908  -4.024437  3.554774
H    -2.387489  -1.842674  4.582665
H    -1.184526  -1.541601  5.805140
H    -0.355070  -2.297120  2.915640
H    -1.002031  -3.499941  4.039558
H    2.918147  -4.223246  3.911171
H    1.916518  -3.611552  2.541880
H    1.315895  -4.951203  3.595257
N    -1.096247  2.105465  5.592211
C    -2.456529  2.610635  5.374497
H    -0.477883  2.679814  6.167149
H    -2.527093  3.592862  5.849953
H    -3.206175  1.957553  5.839912
H    -2.668594  2.737536  4.306133
Cd    1.901924  -0.549460  4.309322
