30
Energy: -180631.0452936  eV PBE+vdW (tier 2 basis)
C    0.594562  1.780610  0.025441
C    0.405022  1.080020  1.317750
O    1.285243  1.122931  2.227224
H    0.878633  2.827182  0.193107
H    -0.268157  1.703670  -0.642745
H    1.455738  1.305243  -0.475066
N    -0.732237  0.343290  1.562806
C    -2.119758  0.797327  1.394965
C    -2.224192  2.273869  1.832418
O    -1.460963  2.717668  2.747695
H    -0.594934  -0.402552  2.242328
H    -2.427500  0.676297  0.348600
C    -3.043664  -0.088785  2.275484
C    -3.216230  0.238252  3.768445
S    -1.867588  0.049154  5.026645
C    -1.363652  -1.694036  4.907725
H    -2.751571  -1.139034  2.126468
H    -4.059815  -0.018746  1.858708
H    -4.005096  -0.409819  4.177803
H    -3.547782  1.272595  3.933930
H    -2.238768  -2.295913  5.182733
H    -0.577136  -1.839783  5.657520
H    -0.997898  -1.980465  3.916535
N    -3.130535  3.074082  1.289993
C    -4.111956  2.820622  0.231601
H    -3.134617  4.016216  1.687114
H    -5.126538  2.866971  0.646555
H    -3.960541  1.840760  -0.227470
H    -4.011951  3.590207  -0.542451
Cd    -0.052468  1.459906  3.971520
