30
Energy: -180630.5981409  eV PBE+vdW (tier 2 basis)
C    0.146779  -0.314059  0.275457
C    0.046605  -0.247906  1.760628
O    1.056782  -0.674497  2.468583
H    1.075016  0.156552  -0.072288
H    -0.716888  0.127440  -0.232031
H    0.212682  -1.377016  -0.006874
N    -1.072187  0.187877  2.309443
C    -1.597662  0.108366  3.676044
C    -3.048810  0.672146  3.490057
O    -3.261935  1.339536  2.469994
H    -1.818852  0.619073  1.717656
H    -1.616043  -0.948813  3.978463
C    -0.837877  0.887025  4.783239
C    -0.432362  2.335864  4.442193
S    1.324890  2.630583  4.950393
C    1.792708  4.173194  4.110396
H    0.036472  0.284561  5.092126
H    -1.465595  0.888307  5.682752
H    -1.009933  3.070687  5.018062
H    -0.537933  2.579792  3.377583
H    2.862893  4.321693  4.297396
H    1.225330  4.970566  4.608274
H    1.573103  4.146188  3.039195
N    -3.969906  0.435713  4.433001
C    -3.901480  -0.416962  5.617869
H    -4.868621  0.873773  4.232566
H    -4.849285  -0.956761  5.719982
H    -3.742152  0.171935  6.531903
H    -3.108944  -1.166813  5.523660
Cd    2.089552  0.675881  3.636989
