30
Energy: -180629.9983669  eV PBE+vdW (tier 2 basis)
C    -2.646076  -1.367438  0.108369
C    -1.262944  -1.046470  0.553370
O    -0.270978  -1.483524  -0.111353
H    -2.857924  -0.880358  -0.854533
H    -3.409880  -1.103869  0.846374
H    -2.689735  -2.449685  -0.085675
N    -1.036392  -0.318778  1.679336
C    -1.697749  0.941898  2.005405
C    -0.964196  2.066757  1.220653
O    0.119674  1.858251  0.584930
H    -0.072642  -0.374754  2.014351
H    -2.734482  0.887516  1.638603
C    -1.710935  1.186145  3.528386
C    -2.447791  0.093663  4.323053
S    -4.221504  -0.063958  3.957445
C    -4.969034  1.139772  5.067413
H    -2.160388  2.167303  3.734951
H    -0.674707  1.246925  3.899970
H    -2.330232  0.276136  5.399315
H    -2.024324  -0.897746  4.111708
H    -6.044212  1.131694  4.856093
H    -4.568637  2.148345  4.901718
H    -4.798776  0.838165  6.110095
N    -1.490811  3.279780  1.236122
C    -0.907547  4.441762  0.552629
H    -2.345523  3.428234  1.765833
H    -0.773987  4.224671  -0.513170
H    0.063648  4.694981  0.994101
H    -1.591410  5.286221  0.667987
Cd    1.186248  0.160686  -0.383754
