30
Energy: -180630.3683183  eV PBE+vdW (tier 2 basis)
C    -1.596308  1.732086  -0.410072
C    -1.792062  0.993069  0.876636
O    -1.179900  -0.099684  1.042515
H    -2.175936  2.658775  -0.477588
H    -1.864022  1.072048  -1.245900
H    -0.528155  1.964936  -0.521906
N    -2.609720  1.552551  1.794786
C    -2.974263  1.098292  3.149554
C    -1.745301  0.780488  4.027602
O    -1.315056  -0.404874  4.211546
H    -3.040922  2.425939  1.504342
H    -3.417216  1.993272  3.605989
C    -4.118734  0.039725  3.235397
C    -4.165000  -1.138141  2.247406
S    -5.702175  -2.035203  2.143853
C    -6.086476  -2.477073  3.848724
H    -5.055707  0.593781  3.082539
H    -4.143721  -0.327108  4.270295
H    -3.366824  -1.935486  2.493250
H    -3.977576  -0.820971  1.212403
H    -6.317380  -1.598309  4.461766
H    -5.268385  -3.061136  4.292446
H    -6.978075  -3.112316  3.783467
N    -1.160785  1.775999  4.678955
C    -1.520289  3.198281  4.711471
H    -0.375963  1.484135  5.264108
H    -2.480619  3.355483  5.220198
H    -1.548428  3.622577  3.701187
H    -0.747611  3.725500  5.277923
Cd    -1.245547  -1.727403  2.494823
