30
Energy: -180630.4376618  eV PBE+vdW (tier 2 basis)
C    -0.191691  -0.040391  -0.150750
C    -0.042215  0.287939  1.299597
O    0.793588  1.181172  1.632763
H    -0.510069  0.868989  -0.680777
H    -0.917555  -0.837822  -0.342618
H    0.786340  -0.321382  -0.562319
N    -0.822981  -0.368220  2.181209
C    -1.022131  -0.035859  3.600417
C    0.052124  -0.733838  4.463571
O    1.191672  -0.196199  4.644686
H    -1.441460  -1.073611  1.787301
H    -0.828068  1.043617  3.708486
C    -2.494846  -0.278913  3.988513
C    -2.861001  0.275793  5.377333
S    -4.651258  0.355578  5.683579
C    -5.077277  -1.344059  6.091601
H    -2.750897  -1.349089  3.913629
H    -3.108496  0.229334  3.230772
H    -2.535770  1.322492  5.466922
H    -2.391217  -0.286906  6.196849
H    -6.146558  -1.333769  6.333762
H    -4.512601  -1.684556  6.969959
H    -4.915915  -2.020709  5.241962
N    -0.204126  -1.912338  5.003890
C    0.766972  -2.679887  5.795004
H    -1.128172  -2.311603  4.868342
H    1.681590  -2.841528  5.213321
H    0.319512  -3.643855  6.048970
H    1.019686  -2.138072  6.714315
Cd    1.965278  1.462195  3.444401
