30
Energy: -180629.8913761  eV PBE+vdW (tier 2 basis)
C    0.640220  0.046891  0.498682
C    -0.185038  -0.083037  1.729893
O    0.148005  -0.976214  2.579699
H    0.556296  1.024124  0.020571
H    0.388665  -0.751749  -0.215716
H    1.684839  -0.133903  0.790469
N    -1.221991  0.743730  2.049855
C    -2.425812  1.142058  1.307726
C    -3.566037  0.178319  1.744076
O    -3.362807  -0.974962  2.265103
H    -1.378010  0.767001  3.059302
H    -2.698803  2.142789  1.678802
C    -2.228834  1.244173  -0.223034
C    -3.447561  1.702259  -1.036357
S    -4.237991  3.190881  -0.337645
C    -5.538283  3.511904  -1.547263
H    -1.912301  0.275872  -0.635220
H    -1.411482  1.958416  -0.386078
H    -4.205803  0.910521  -1.125518
H    -3.111797  1.941116  -2.055378
H    -6.105218  4.369007  -1.167120
H    -6.200179  2.644660  -1.659921
H    -5.085083  3.772840  -2.512124
N    -4.799331  0.597601  1.555022
C    -6.005950  -0.156961  1.909057
H    -4.911263  1.536901  1.125807
H    -6.080518  -1.068787  1.304313
H    -6.873666  0.479496  1.718085
H    -5.984442  -0.431752  2.969837
Cd    -1.691272  -1.933953  3.292358
