30
Energy: -180629.8054809  eV PBE+vdW (tier 2 basis)
C    -2.244046  1.007853  -0.276338
C    -1.033608  1.131369  0.584476
O    -0.104852  1.926183  0.235767
H    -3.169709  0.952313  0.305328
H    -2.165971  0.098547  -0.895767
H    -2.279435  1.861811  -0.960891
N    -0.887054  0.420043  1.736374
C    -1.129273  -1.022557  1.915252
C    -0.207514  -1.786905  0.928550
O    0.831703  -1.243111  0.430724
H    -0.139505  0.782831  2.327226
H    -0.720232  -1.238368  2.917525
C    -2.608258  -1.452420  1.951608
C    -3.459564  -0.644264  2.948103
S    -2.933376  -0.749287  4.686071
C    -3.747828  -2.245668  5.263779
H    -2.652506  -2.513263  2.240749
H    -3.071575  -1.383512  0.957395
H    -4.507733  -0.964706  2.883516
H    -3.425864  0.428646  2.715202
H    -3.440772  -2.380362  6.307167
H    -3.448240  -3.124881  4.678378
H    -4.838290  -2.118858  5.216774
N    -0.474731  -3.050609  0.644430
C    0.379478  -3.901410  -0.194562
H    -1.311308  -3.468767  1.039362
H    0.425854  -3.505109  -1.215658
H    -0.051629  -4.905277  -0.214850
H    1.392448  -3.946406  0.221369
Cd    1.771316  0.751839  0.168220
