23
Energy: -565415.880198 eV PBE+vdW (tier 2 basis)
N    0.308983  0.322770  0.366898
C    -0.002976  0.110568  1.793872
C    1.302373  0.143503  2.604968
O    2.392194  -0.256977  2.166410
H    -0.503925  0.164471  -0.238571
H    0.699355  1.250239  0.161698
H    -0.616735  0.953078  2.155772
C    -0.829874  -1.194824  2.011870
C    -0.171717  -2.578963  1.816357
C    0.561393  -3.110624  3.041534
C    -1.141857  -3.580631  1.191497
H    -1.714382  -1.100062  1.363817
H    -1.214175  -1.154551  3.041660
H    0.668663  -2.549647  0.970896
H    1.076076  -4.054555  2.828813
H    -0.191998  -3.316424  3.821722
H    1.287582  -2.411667  3.472632
H    -0.679134  -4.563711  1.052101
H    -1.564597  -3.239957  0.237913
H    -1.988251  -3.701696  1.893580
O    1.129690  0.611871  3.810639
H    1.961415  0.608413  4.339188
Hg    1.978897  -1.279624  0.051734
