23
Energy: -565416.1493 eV PBE+vdW (tier 2 basis)
N    -0.248141  -0.157687  -0.124819
C    -0.490553  -0.178319  1.374176
C    0.846574  0.274919  2.044869
O    1.688089  0.821883  1.319978
H    0.101088  -1.066451  -0.466355
H    -1.106025  0.065702  -0.649868
H    -1.202475  0.636493  1.581186
C    -1.020545  -1.522718  1.855411
C    -1.320881  -1.541534  3.360302
C    -2.529111  -0.725584  3.800921
C    -1.223784  -2.919791  3.982068
H    -0.307758  -2.320791  1.594072
H    -1.960044  -1.733120  1.311145
H    -0.412905  -0.956547  3.780552
H    -2.569026  0.286032  3.376642
H    -2.570156  -0.632548  4.893053
H    -3.451334  -1.255130  3.498527
H    -2.035897  -3.560930  3.584399
H    -1.363303  -2.883091  5.069117
H    -0.277904  -3.429266  3.757463
O    0.944982  0.088534  3.321443
H    0.481951  0.551849  -0.332436
Hg    3.011157  1.110096  3.559154
