23
Energy: -565416.036972 eV PBE+vdW (tier 2 basis)
N    0.615868  0.454368  0.423411
C    0.236150  -0.228711  1.729574
C    1.400084  -1.216526  2.114969
O    1.150221  -2.031501  3.048333
H    0.396486  -0.164266  -0.377763
H    0.082366  1.328628  0.305156
H    0.304315  0.543827  2.512816
C    -1.157190  -0.829129  1.685246
C    -1.375157  -2.173143  0.927337
C    -2.843388  -2.576745  0.988896
C    -0.828137  -2.190505  -0.500368
H    -1.820552  -0.067177  1.234603
H    -1.488983  -0.953236  2.724759
H    -0.809827  -2.916567  1.533132
H    -2.982711  -3.591398  0.589398
H    -3.470446  -1.915536  0.367507
H    -3.237207  -2.558697  2.012483
H    -1.074154  -3.138378  -0.998318
H    0.272590  -2.116922  -0.558583
H    -1.290198  -1.408000  -1.128187
O    2.490680  -1.083826  1.516455
H    1.624970  0.672960  0.390329
Hg    3.309478  -2.819053  3.074892
