23
Energy: -565415.596108 eV PBE+vdW (tier 2 basis)
N    -0.343027  -0.497625  -0.058781
C    -0.147182  -0.022667  1.306515
C    1.344391  0.358579  1.633512
O    2.307951  -0.022412  0.970063
H    -0.850305  -1.388211  -0.104082
H    -0.795022  0.182724  -0.679820
H    -0.688978  0.937095  1.392728
C    -0.613838  -1.055920  2.366454
C    -2.152061  -1.000712  2.616753
C    -2.972493  -1.359073  1.390743
C    -2.425150  -1.963322  3.806338
H    -0.085224  -0.876843  3.312015
H    -0.314351  -2.066548  2.041357
H    -2.411564  0.019383  2.944692
H    -4.047858  -1.362990  1.632273
H    -2.733026  -2.360684  1.000722
H    -2.904109  -0.611527  0.576763
H    -3.490935  -1.883745  4.064744
H    -1.839533  -1.693285  4.692653
H    -2.205771  -3.004252  3.535687
O    1.564818  1.095546  2.686102
H    0.760961  1.396273  3.158566
Hg    1.756930  -1.021743  -1.078613
