23
Energy: -565415.672944 eV PBE+vdW (tier 2 basis)
N    0.271343  -0.244432  0.126109
C    0.095050  0.015704  1.573650
C    1.456750  0.236557  2.277662
O    2.518621  -0.256228  1.869884
H    -0.510682  -0.782623  -0.261263
H    0.375075  0.615154  -0.426764
H    -0.458325  0.968426  1.658123
C    -0.708151  -1.105659  2.293935
C    -0.028833  -2.432341  2.700666
C    -1.022789  -3.266612  3.548970
C    0.407915  -3.347289  1.549499
H    -1.601726  -1.306088  1.679586
H    -1.100880  -0.646462  3.213530
H    0.840714  -2.218631  3.342307
H    -0.551929  -4.184710  3.919836
H    -1.916880  -3.541675  2.974192
H    -1.336261  -2.684922  4.429283
H    0.612896  -4.379489  1.872218
H    1.460061  -3.069920  1.167220
H    -0.292429  -3.388392  0.704783
O    1.490745  0.918204  3.388870
H    0.640574  1.332054  3.644892
Hg    2.189290  -1.549409  -0.031373
