23
Energy: -565415.618052 eV PBE+vdW (tier 2 basis)
N    0.206577  0.285217  0.232616
C    0.288485  0.024110  1.670931
C    1.762784  -0.126305  2.171583
O    2.753166  0.097698  1.462171
H    0.031829  -0.564171  -0.317665
H    -0.496459  0.991614  -0.011758
H    -0.086230  0.927260  2.180699
C    -0.575378  -1.240520  2.046976
C    -1.513194  -1.011799  3.282513
C    -2.397727  -2.277780  3.353957
C    -0.779169  -0.762752  4.595721
H    0.072430  -2.116314  2.198946
H    -1.226654  -1.468738  1.192985
H    -2.155786  -0.145900  3.057700
H    -3.132658  -2.122560  4.161192
H    -1.814368  -3.176090  3.594349
H    -2.954723  -2.450543  2.425765
H    -1.496533  -0.714268  5.429321
H    -0.273736  0.219654  4.651708
H    -0.099383  -1.591432  4.866252
O    1.958751  -0.481023  3.402180
H    1.124408  -0.611863  3.928507
Hg    2.297099  1.017726  -0.619585
