23
Energy: -565415.896621 eV PBE+vdW (tier 2 basis)
N    0.701336  -0.155299  0.332153
C    0.052264  0.005690  1.644830
C    1.087574  0.227869  2.769645
O    2.270370  -0.140767  2.741595
H    0.137359  -0.715764  -0.314718
H    0.932039  0.735831  -0.122498
H    -0.510998  0.956534  1.629659
C    -0.932802  -1.151856  1.994131
C    -0.629032  -2.600526  1.553012
C    0.664404  -3.216810  2.089252
C    -1.787294  -3.516742  2.033521
H    -1.895238  -0.864857  1.546128
H    -1.097488  -1.123328  3.080643
H    -0.631378  -2.665616  0.451631
H    0.932519  -2.922723  3.111718
H    1.561150  -2.968698  1.404352
H    0.680333  -4.314256  2.020233
H    -1.670739  -4.534574  1.643539
H    -2.747125  -3.129214  1.660761
H    -1.829932  -3.563718  3.129270
O    0.555355  0.850068  3.785797
H    1.193253  0.978246  4.525409
Hg    2.676067  -1.338491  0.774937
