23
Energy: -565415.554287 eV PBE+vdW (tier 2 basis)
N    -0.007778  0.560477  0.463483
C    0.173302  -0.048130  1.782368
C    1.623485  -0.576687  2.023673
O    2.391465  -0.901047  1.110663
H    -0.926369  0.341815  0.057921
H    0.138543  1.576538  0.444113
H    0.033831  0.755487  2.530683
C    -0.810758  -1.207783  2.004519
C    -2.286503  -0.721463  2.207355
C    -3.227155  -1.914689  2.129497
C    -2.463430  0.090514  3.484489
H    -0.504679  -1.795891  2.882292
H    -0.758974  -1.894108  1.142299
H    -2.514259  -0.058818  1.336821
H    -4.274706  -1.587774  2.231323
H    -3.059396  -2.614918  2.965764
H    -3.135360  -2.469400  1.187548
H    -3.505088  0.420013  3.587635
H    -1.837805  0.996591  3.528522
H    -2.235458  -0.514315  4.377408
O    2.025819  -0.740800  3.250699
H    1.389309  -0.446145  3.935685
Hg    1.598966  -0.370959  -1.007229
