23
Energy: -565415.870998 eV PBE+vdW (tier 2 basis)
N    -0.829715  0.166910  0.230193
C    -0.626181  -0.104799  1.716333
C    0.726600  0.573230  2.113991
O    1.652437  0.552754  1.271217
H    -1.653353  -0.353336  -0.112293
H    -0.986098  1.165529  0.022106
H    -1.429819  0.412361  2.254357
C    -0.649732  -1.614093  1.955108
C    -0.396269  -2.134532  3.415445
C    1.088582  -2.215952  3.771333
C    -1.245429  -1.395293  4.443391
H    0.047926  -2.108219  1.261187
H    -1.674785  -1.930965  1.693857
H    -0.766393  -3.171823  3.357513
H    1.205823  -2.807145  4.692865
H    1.543092  -1.240055  4.000348
H    1.677805  -2.717741  2.992919
H    -2.313914  -1.406871  4.190413
H    -0.925353  -0.348907  4.597880
H    -1.142806  -1.866277  5.433835
O    0.780473  1.080577  3.273889
H    -0.007263  -0.142900  -0.313848
Hg    2.980011  1.657860  3.011181
