23
Energy: -565416.118352 eV PBE+vdW (tier 2 basis)
N    -0.272814  0.597088  1.494941
C    0.631956  0.043363  2.577307
C    2.132776  0.259360  2.119458
O    2.992413  0.200747  3.038975
H    -0.016513  0.221303  0.568396
H    -1.248716  0.309178  1.715419
H    0.486296  0.660905  3.474270
C    0.354445  -1.430941  2.835722
C    -0.965716  -1.698618  3.660937
C    -2.246678  -1.170986  3.014788
C    -1.021417  -3.221920  3.866827
H    1.193157  -1.832753  3.417811
H    0.320791  -1.987972  1.885365
H    -0.826344  -1.207950  4.637130
H    -2.371046  -1.512779  1.973556
H    -2.367818  -0.074359  3.089509
H    -3.125370  -1.555376  3.553496
H    -0.107449  -3.612403  4.329521
H    -1.206369  -3.763635  2.929505
H    -1.860871  -3.440459  4.547923
O    2.338710  0.459470  0.904988
H    -0.243628  1.625465  1.431364
Hg    4.739205  0.489268  1.563791
