23
Energy: -565415.636005 eV PBE+vdW (tier 2 basis)
N    1.180432  0.062905  0.976507
C    0.289640  0.051508  2.158442
C    1.035790  -0.484246  3.407766
O    2.019875  -1.238350  3.344084
H    0.653669  0.024674  0.098614
H    1.798814  0.882605  0.944887
H    0.051166  1.105589  2.391593
C    -1.042675  -0.709256  1.881910
C    -1.099723  -2.247434  1.716021
C    -0.385395  -2.837614  0.503769
C    -0.865987  -3.051570  2.998366
H    -1.476700  -0.224034  0.992693
H    -1.724113  -0.443512  2.704379
H    -2.167282  -2.422374  1.451494
H    -0.720440  -3.859237  0.268800
H    0.728132  -3.058741  0.734031
H    -0.428089  -2.238016  -0.414248
H    -1.150268  -4.101253  2.854290
H    -1.460452  -2.667080  3.836517
H    0.191139  -3.054263  3.312618
O    0.604723  -0.152927  4.591623
H    -0.132412  0.492468  4.596503
Hg    2.404158  -1.913843  1.171342
