23
Energy: -565415.615337 eV PBE+vdW (tier 2 basis)
N    0.693503  -0.239772  0.420289
C    0.278596  0.012778  1.810516
C    1.474774  -0.080204  2.798618
O    2.502839  -0.737031  2.580812
H    -0.067897  -0.621596  -0.149611
H    1.071257  0.590328  -0.050792
H    -0.041279  1.069704  1.865311
C    -0.900839  -0.900994  2.273698
C    -1.018427  -2.353695  1.757670
C    0.146615  -3.290513  2.085246
C    -2.291370  -2.990448  2.378427
H    -1.820080  -0.373293  1.981289
H    -0.904816  -0.913995  3.373984
H    -1.184950  -2.348989  0.667169
H    0.621529  -3.122862  3.060041
H    0.965640  -3.241879  1.273370
H    -0.122295  -4.353879  2.002242
H    -3.168735  -2.363631  2.161426
H    -2.195043  -3.094769  3.466937
H    -2.481211  -3.980852  1.948815
O    1.384652  0.535594  3.944226
H    0.580027  1.083492  4.057449
Hg    2.371512  -1.880495  0.583867
