37
Energy: -41906.5755121 eV PBE+vdW (tier 2 basis)
C    -1.760429  3.831911  4.137422
C    -1.397493  2.626301  3.338935
O    -0.612479  1.745440  3.832614
H    -2.417820  4.519969  3.597097
H    -2.261740  3.500919  5.058232
H    -0.849112  4.363115  4.442095
N    -1.909894  2.487262  2.117767
C    -1.905050  1.273945  1.285963
C    -0.522322  0.996818  0.667423
O    0.393023  0.473263  1.390337
H    -2.683310  3.120440  1.867228
H    -2.103199  0.412616  1.945496
C    -3.086605  1.394732  0.280329
C    -4.332895  1.846174  0.968142
C    -4.971328  3.065383  0.788210
C    -5.073808  1.129609  1.973173
N    -6.056475  3.134877  1.621582
C    -6.153711  1.970349  2.361239
C    -4.951358  -0.140830  2.565728
C    -7.093926  1.586702  3.321194
C    -5.883864  -0.525187  3.520497
C    -6.939467  0.331081  3.895620
H    -3.217254  0.415864  -0.204835
H    -2.846922  2.125359  -0.510301
H    -4.759175  3.864570  0.083921
H    -6.728977  3.892664  1.635140
H    -4.171535  -0.838791  2.253950
H    -7.922184  2.236755  3.600720
H    -5.817243  -1.512424  3.975490
H    -7.658575  -0.006168  4.640386
N    -0.318219  1.266743  -0.605554
C    0.920706  1.030874  -1.347536
H    -1.099675  1.663744  -1.123088
H    1.581090  0.390251  -0.759485
H    1.418841  1.986368  -1.555537
H    0.679005  0.540343  -2.296822
Ca    0.849379  0.298959  3.457226
