37
Energy: -41907.6369662 eV PBE+vdW (tier 2 basis)
C    -1.349469  -0.998120  -0.512546
C    -1.332414  -1.219956  0.971394
O    -0.907085  -2.311292  1.428179
H    -1.897969  -1.821453  -0.987731
H    -0.318150  -1.045077  -0.888380
H    -1.794189  -0.045389  -0.818063
N    -1.774050  -0.193541  1.733408
C    -1.952304  -0.006438  3.186494
C    -0.668904  -0.225903  4.001783
O    0.039716  -1.265365  3.898627
H    -2.067541  0.612553  1.190129
H    -2.185957  1.060746  3.271930
C    -3.205726  -0.740228  3.790888
C    -3.293611  -2.199566  3.494383
C    -3.960705  -2.767132  2.427390
C    -2.557852  -3.265576  4.116456
N    -3.629943  -4.096370  2.312315
C    -2.743399  -4.434416  3.301901
C    -1.738119  -3.361216  5.265236
C    -2.017312  -5.615848  3.521479
C    -1.030340  -4.542182  5.495549
C    -1.141658  -5.645981  4.610830
H    -4.089276  -0.228514  3.386676
H    -3.210601  -0.544731  4.873842
H    -4.648709  -2.309787  1.723210
H    -4.012360  -4.733714  1.621516
H    -1.642198  -2.522464  5.954037
H    -2.138139  -6.487619  2.878559
H    -0.396842  -4.630712  6.377495
H    -0.573672  -6.552850  4.813859
N    -0.326852  0.717674  4.877863
C    -0.969746  2.007055  5.156955
H    0.518537  0.501611  5.405285
H    -0.944655  2.664997  4.279018
H    -0.406296  2.494392  5.957399
H    -2.002358  1.877043  5.502350
Ca    -0.070852  -3.334630  3.157282
