37
Energy: -41906.8362099 eV PBE+vdW (tier 2 basis)
C    0.201745  -0.997650  0.639321
C    -0.801475  -0.409375  1.571843
O    -1.124912  0.811956  1.495605
H    -0.122490  -0.814131  -0.393770
H    1.159798  -0.475198  0.767892
H    0.355242  -2.071470  0.787369
N    -1.366453  -1.205699  2.507683
C    -2.387264  -0.679576  3.403372
C    -1.776698  0.023958  4.630791
O    -1.649398  1.286847  4.528162
H    -1.093867  -2.184225  2.544613
H    -2.748552  0.180420  2.840653
C    -3.702108  -1.505471  3.518592
C    -4.605267  -0.979393  2.434028
C    -5.074551  -1.620506  1.305565
C    -4.903761  0.415869  2.252672
N    -5.626556  -0.704573  0.439895
C    -5.509760  0.558094  0.966796
C    -4.710377  1.575778  3.040717
C    -5.834108  1.806445  0.429224
C    -5.030039  2.831367  2.496143
C    -5.558251  2.941231  1.190934
H    -4.136223  -1.349890  4.518000
H    -3.529340  -2.584680  3.415783
H    -5.050780  -2.674726  1.048138
H    -6.060844  -0.935283  -0.447239
H    -4.447830  1.493672  4.100214
H    -6.293503  1.898373  -0.554679
H    -4.988972  3.724223  3.126224
H    -5.812699  3.923871  0.797277
N    -1.396123  -0.614589  5.723809
C    -1.443216  -2.047236  6.005938
H    -1.008224  -0.015123  6.454474
H    -2.105712  -2.240615  6.858435
H    -1.815138  -2.598787  5.139185
H    -0.436440  -2.406655  6.250218
Ca    -2.144851  2.391745  2.647126
