37
Energy: -41906.3892971 eV PBE+vdW (tier 2 basis)
C    0.542767  -0.621884  0.368063
C    0.309424  -0.451694  1.832147
O    1.302646  -0.502887  2.648495
H    0.956888  -1.625436  0.193848
H    -0.371766  -0.507560  -0.221856
H    1.293946  0.099495  0.021312
N    -0.918576  -0.263110  2.270165
C    -1.409140  -0.234843  3.643757
C    -2.927296  -0.574194  3.454039
O    -3.412827  -0.399596  2.335325
H    -1.734293  -0.254983  1.624195
H    -0.893660  -1.005036  4.234994
C    -1.289205  1.163442  4.312818
C    0.062189  1.588875  4.813250
C    0.828497  2.626234  4.312865
C    0.755416  1.105416  5.997371
N    1.981787  2.790016  5.085044
C    1.924686  1.911055  6.172791
C    0.517585  0.051049  6.909182
C    2.841619  1.704776  7.214526
C    1.424221  -0.154240  7.939985
C    2.567002  0.662812  8.093776
H    -1.977945  1.187582  5.170190
H    -1.670559  1.907781  3.601106
H    0.631627  3.290315  3.476024
H    2.549831  3.634701  5.064855
H    -0.368486  -0.574830  6.820455
H    3.713167  2.345326  7.348196
H    1.248391  -0.953298  8.658825
H    3.243078  0.479828  8.927853
N    -3.635654  -1.003095  4.514078
C    -3.165515  -1.346202  5.849638
H    -4.621153  -1.153323  4.307318
H    -3.945929  -1.928072  6.348928
H    -2.970711  -0.456565  6.466990
H    -2.267933  -1.978160  5.810002
Ca    2.443447  0.407771  4.121655
