37
Energy: -41907.4765551 eV PBE+vdW (tier 2 basis)
C    0.204692  0.300646  0.308631
C    0.150099  0.167099  1.799622
O    1.209557  0.013344  2.458081
H    -0.778459  0.363053  -0.168971
H    0.756969  -0.551482  -0.107889
H    0.780108  1.203259  0.059404
N    -1.071859  0.225923  2.375548
C    -1.481778  0.192517  3.799230
C    -0.758989  1.275921  4.619057
O    0.428971  1.112615  5.013886
H    -1.841164  0.347425  1.723561
H    -2.541887  0.467210  3.761069
C    -1.468896  -1.214949  4.466505
C    -0.158143  -1.888613  4.764702
C    0.577580  -2.666788  3.887464
C    0.561136  -1.904226  6.026838
N    1.747457  -3.089407  4.496525
C    1.744844  -2.680033  5.831835
C    0.339269  -1.314213  7.290936
C    2.690234  -2.894225  6.845663
C    1.270774  -1.528128  8.295324
C    2.429088  -2.307869  8.077459
H    -2.069525  -1.864979  3.814738
H    -2.042823  -1.121833  5.400046
H    0.364449  -2.946039  2.860699
H    2.354035  -3.812482  4.118502
H    -0.550658  -0.715905  7.480697
H    3.573259  -3.512039  6.685735
H    1.105266  -1.095862  9.280991
H    3.127883  -2.462238  8.898261
N    -1.415038  2.391292  4.926687
C    -2.778821  2.793594  4.565061
H    -0.869785  3.052270  5.479974
H    -3.526802  2.124785  5.008780
H    -2.907433  2.838543  3.476846
H    -2.947768  3.797508  4.964160
Ca    1.989159  -0.332693  4.470342
