37
Energy: -41906.374779 eV PBE+vdW (tier 2 basis)
C    0.858721  -1.627084  3.792481
C    0.014315  -0.642135  3.058342
O    0.392063  -0.182917  1.928223
H    0.445291  -1.911532  4.765457
H    0.964951  -2.528527  3.171553
H    1.867444  -1.216389  3.931490
N    -1.150540  -0.254962  3.588663
C    -2.166203  0.561725  2.898660
C    -1.732884  2.039452  2.940727
O    -0.933370  2.467089  2.039169
H    -1.410385  -0.653780  4.488652
H    -2.138128  0.276650  1.836426
C    -3.594326  0.221925  3.404562
C    -4.614793  0.275046  2.314757
C    -5.324545  -0.824302  1.862752
C    -5.040578  1.401231  1.522516
N    -6.152510  -0.447559  0.842280
C    -6.008486  0.904203  0.600545
C    -4.738908  2.777100  1.491018
C    -6.650473  1.718848  -0.334145
C    -5.374486  3.591488  0.560700
C    -6.316459  3.067965  -0.345438
H    -3.873971  0.860481  4.262215
H    -3.567581  -0.802655  3.803386
H    -5.307350  -1.851330  2.213965
H    -6.803493  -1.060484  0.365940
H    -4.050031  3.224836  2.205658
H    -7.393810  1.316713  -1.021700
H    -5.159801  4.659297  0.542694
H    -6.804053  3.734222  -1.055116
N    -2.153366  2.813657  3.920513
C    -1.827551  4.228080  4.100551
H    -2.825721  2.407925  4.569322
H    -2.748818  4.821854  4.052579
H    -1.145042  4.546585  3.310429
H    -1.359264  4.374936  5.081084
Ca    0.427144  1.538345  0.701089
