37
Energy: -41906.2843761 eV PBE+vdW (tier 2 basis)
C    1.602301  0.618825  0.680732
C    0.935463  0.415879  1.997623
O    1.617771  0.062406  3.021781
H    0.899954  0.887004  -0.114690
H    2.142170  -0.294944  0.398510
H    2.354480  1.414079  0.781941
N    -0.377639  0.612053  2.105209
C    -1.113154  0.542478  3.364152
C    -1.153009  -0.906181  3.881975
O    -0.376131  -1.178603  4.875036
H    -0.940912  0.899527  1.289151
H    -0.499761  1.046219  4.124861
C    -2.444844  1.378631  3.285453
C    -3.145954  1.462752  1.969311
C    -2.734235  2.195759  0.855730
C    -4.434328  0.911258  1.639111
N    -3.674874  2.086272  -0.133822
C    -4.731459  1.313814  0.308287
C    -5.386684  0.155226  2.348903
C    -5.918723  0.957829  -0.338674
C    -6.570051  -0.193972  1.713282
C    -6.828403  0.195551  0.381957
H    -2.157875  2.386406  3.616607
H    -3.124891  0.994912  4.057078
H    -1.894380  2.875831  0.738368
H    -3.641190  2.571859  -1.022636
H    -5.223897  -0.124971  3.391127
H    -6.131551  1.277285  -1.358115
H    -7.324679  -0.763871  2.253389
H    -7.769706  -0.092639  -0.083165
N    -1.875924  -1.879587  3.360535
C    -2.745005  -1.899576  2.187247
H    -1.777805  -2.767726  3.855579
H    -2.637177  -0.981656  1.605575
H    -3.795431  -1.988363  2.490108
H    -2.475467  -2.765559  1.571499
Ca    1.710996  -0.804208  4.954986
