37
Energy: -41906.1221383 eV PBE+vdW (tier 2 basis)
C    -0.330973  0.264062  0.042640
C    -0.412000  0.260131  1.531796
O    0.537293  0.752774  2.230594
H    0.540879  -0.331321  -0.264543
H    -1.225729  -0.145110  -0.437564
H    -0.162883  1.287670  -0.316398
N    -1.475885  -0.274008  2.130591
C    -1.586920  -0.460059  3.581749
C    -2.286153  -1.762641  4.055521
O    -1.754809  -2.324871  5.009421
H    -2.204153  -0.653179  1.530814
H    -0.563199  -0.642656  3.926445
C    -2.157556  0.781917  4.338335
C    -1.102769  1.662745  4.941621
C    -0.890057  3.007159  4.695996
C    -0.131553  1.266389  5.950996
N    0.192014  3.465689  5.455189
C    0.633048  2.427378  6.287107
C    0.173645  0.033867  6.577874
C    1.679344  2.400976  7.220475
C    1.209498  0.012422  7.502051
C    1.947156  1.174932  7.821343
H    -2.796439  0.419021  5.157137
H    -2.803933  1.364034  3.669631
H    -1.437244  3.691704  4.054118
H    0.364846  4.452092  5.638451
H    -0.397513  -0.868843  6.350014
H    2.236084  3.298759  7.487846
H    1.453048  -0.921062  8.007606
H    2.738910  1.113400  8.566935
N    -3.431704  -2.195326  3.481061
C    -4.262039  -1.569718  2.458992
H    -3.773231  -3.063551  3.889588
H    -5.298102  -1.894301  2.600997
H    -4.263872  -0.476039  2.549757
H    -3.971438  -1.866627  1.437415
Ca    1.374302  1.782159  3.873258
