37
Energy: -41907.5813498 eV PBE+vdW (tier 2 basis)
C    -4.506693  -0.901252  -0.140477
C    -3.647946  -0.505568  1.021430
O    -3.164606  -1.387986  1.775346
H    -3.908130  -1.519651  -0.823752
H    -5.328239  -1.533148  0.220957
H    -4.920343  -0.054277  -0.697228
N    -3.430156  0.816265  1.199155
C    -2.609096  1.555048  2.189013
C    -1.137035  1.101924  2.167292
O    -0.780744  -0.002901  2.658311
H    -3.880988  1.412146  0.511130
H    -2.635575  2.586389  1.813494
C    -3.216303  1.646649  3.621591
C    -3.224225  0.428651  4.503104
C    -4.218980  -0.532234  4.557984
C    -2.234997  0.050974  5.497589
N    -3.867680  -1.526100  5.456844
C    -2.675113  -1.171237  6.091891
C    -1.010735  0.609805  5.926445
C    -1.950168  -1.835514  7.092182
C    -0.295161  -0.042947  6.918345
C    -0.757582  -1.247860  7.494153
H    -4.245695  2.010110  3.495438
H    -2.676593  2.454865  4.136438
H    -5.154013  -0.595538  4.010789
H    -4.513127  -2.232424  5.800811
H    -0.642568  1.542753  5.501795
H    -2.315913  -2.752422  7.553180
H    0.640721  0.384864  7.274590
H    -0.171178  -1.720209  8.280831
N    -0.261407  1.945351  1.629461
C    1.177587  1.700579  1.528899
H    -0.611968  2.813147  1.233738
H    1.442084  1.406912  0.505022
H    1.453959  0.899839  2.218955
H    1.716600  2.617624  1.789292
Ca    -1.902994  -1.680628  3.528961
