37
Energy: -41906.0762674 eV PBE+vdW (tier 2 basis)
C    1.948655  -1.281652  1.829795
C    0.781782  -1.108108  2.751626
O    0.604237  -1.953977  3.699519
H    2.877115  -1.357462  2.410694
H    2.045496  -0.473972  1.097658
H    1.826674  -2.232109  1.290868
N    -0.015994  -0.074921  2.541627
C    -1.262864  0.410097  3.146489
C    -1.146326  1.970519  3.026466
O    -0.082141  2.457469  2.633410
H    0.342288  0.641694  1.897812
H    -2.071649  0.110373  2.457360
C    -1.707126  -0.127440  4.521381
C    -0.784409  -0.198621  5.717109
C    -1.118837  -0.969614  6.822939
C    0.506331  0.404062  6.014173
N    -0.093908  -0.929715  7.766755
C    0.897565  -0.054998  7.315469
C    1.391583  1.261441  5.314525
C    2.113183  0.296940  7.920739
C    2.589346  1.612162  5.917868
C    2.949391  1.138903  7.199908
H    -2.123520  -1.131686  4.366842
H    -2.569718  0.491980  4.811850
H    -2.026866  -1.533101  7.022216
H    -0.211872  -1.206500  8.739140
H    1.130737  1.671400  4.339359
H    2.375362  -0.047220  8.920897
H    3.267307  2.287128  5.397100
H    3.894994  1.453700  7.639323
N    -2.244007  2.678134  3.336006
C    -2.313396  4.134381  3.199778
H    -3.113056  2.189679  3.526267
H    -2.838873  4.412522  2.277236
H    -1.294929  4.529198  3.160725
H    -2.842147  4.558525  4.059914
Ca    0.962949  -2.198667  5.749556
