37
Energy: -41906.4009128 eV PBE+vdW (tier 2 basis)
C    -3.127752  -0.603603  0.281861
C    -2.632181  -1.270904  1.531669
O    -2.463826  -2.473887  1.654526
H    -3.392826  0.450847  0.419917
H    -3.997372  -1.154230  -0.095365
H    -2.347049  -0.676404  -0.488162
N    -2.369268  -0.416377  2.626872
C    -1.678585  -0.997426  3.755422
C    -2.494588  -0.934856  5.043761
O    -1.989349  -1.358411  6.143725
H    -2.244028  0.573632  2.428754
H    -1.648541  -2.075327  3.485770
C    -0.225078  -0.475688  3.915913
C    0.678345  -1.325740  4.765976
C    0.920849  -2.683804  4.622091
C    1.487997  -0.882175  5.886506
N    1.792074  -3.117954  5.621766
C    2.205569  -2.018343  6.378287
C    1.631863  0.355798  6.556412
C    3.064837  -1.953112  7.485946
C    2.478093  0.418783  7.653510
C    3.189446  -0.716381  8.107487
H    -0.232221  0.553477  4.300715
H    0.198865  -0.423445  2.902848
H    0.554351  -3.383060  3.875059
H    2.284390  -4.008191  5.588185
H    1.110613  1.245932  6.206697
H    3.627058  -2.821037  7.829395
H    2.614753  1.367103  8.171287
H    3.860148  -0.616227  8.959813
N    -3.729521  -0.489935  4.968784
C    -4.701520  -0.427029  6.055248
H    -4.017220  -0.215215  4.026233
H    -5.512675  -1.142088  5.869216
H    -5.123518  0.583059  6.107420
H    -4.209373  -0.667442  7.000237
Ca    -0.331294  -2.343189  6.991616
