37
Energy: -41907.5521387 eV PBE+vdW (tier 2 basis)
C    -0.622389  -0.737502  2.827472
C    -0.649539  -0.015633  4.138280
O    -1.180376  -0.550845  5.143261
H    -0.148935  -0.172796  2.017908
H    -1.653160  -0.986554  2.541679
H    -0.091207  -1.689865  2.959475
N    -0.092856  1.213201  4.180087
C    0.066607  2.164734  5.302748
C    0.811555  1.538567  6.499873
O    0.252431  0.728107  7.287964
H    0.309117  1.530779  3.302995
H    0.727745  2.934442  4.883770
C    -1.220388  2.949107  5.713603
C    -2.298109  2.258188  6.500349
C    -2.420808  2.276661  7.880635
C    -3.424578  1.495400  5.996939
N    -3.497328  1.489019  8.269445
C    -4.167387  1.038341  7.126168
C    -3.888748  1.170411  4.704229
C    -5.335677  0.271932  7.009292
C    -5.048415  0.423059  4.585240
C    -5.760364  -0.024389  5.721361
H    -1.648611  3.354011  4.785647
H    -0.870678  3.819853  6.286604
H    -1.814716  2.784634  8.624906
H    -3.916632  1.527068  9.195374
H    -3.361614  1.521702  3.817821
H    -5.903441  -0.047374  7.882580
H    -5.434242  0.182337  3.595772
H    -6.673927  -0.600566  5.582662
N    2.071757  1.917928  6.684876
C    2.915209  1.431535  7.779268
H    2.488655  2.561821  6.019531
H    3.795255  2.075739  7.852138
H    3.236009  0.399546  7.588816
H    2.359026  1.464941  8.721882
Ca    -1.726672  -0.250813  7.220318
