37
Energy: -41907.0793916 eV PBE+vdW (tier 2 basis)
C    -0.410876  -0.027593  -0.321315
C    -0.869156  0.460194  1.010132
O    -1.164219  1.677682  1.197272
H    0.501421  0.513471  -0.607625
H    -1.173881  0.218768  -1.072256
H    -0.214411  -1.104366  -0.344400
N    -0.974675  -0.425188  2.032158
C    -1.477912  0.054213  3.311458
C    -0.379515  0.741064  4.149235
O    -0.332592  2.007857  4.151178
H    -0.744592  -1.401988  1.871406
H    -2.106028  0.885350  2.989212
C    -2.489255  -0.769461  4.140576
C    -3.099734  0.267867  5.051707
C    -2.957632  0.386680  6.419886
C    -3.653695  1.519898  4.601364
N    -3.364802  1.633796  6.832578
C    -3.758874  2.372605  5.745729
C    -4.059040  2.026130  3.342377
C    -4.133294  3.715945  5.643214
C    -4.435789  3.374544  3.238659
C    -4.438291  4.216622  4.375912
H    -2.033024  -1.589626  4.710312
H    -3.227070  -1.216898  3.458072
H    -2.583847  -0.334588  7.139993
H    -3.386186  1.946902  7.797385
H    -4.163224  1.367384  2.476408
H    -4.194932  4.357004  6.522390
H    -4.818073  3.757750  2.290415
H    -4.747981  5.255416  4.271758
N    0.497107  0.009268  4.817326
C    1.597375  0.573761  5.606048
H    0.402824  -1.001611  4.788462
H    2.235359  1.200321  4.972364
H    2.188498  -0.249054  6.015469
H    1.202498  1.183645  6.427215
Ca    -1.646482  3.167236  2.796927
