37
Energy: -41906.4945679 eV PBE+vdW (tier 2 basis)
C    -0.109498  1.679554  0.912508
C    -0.355607  1.068676  2.250571
O    0.332148  1.437156  3.262063
H    -0.322841  2.756562  0.978041
H    -0.725469  1.243598  0.119542
H    0.951632  1.581458  0.649269
N    -1.309979  0.146400  2.375991
C    -1.830238  -0.415898  3.637482
C    -0.873156  -1.458938  4.256762
O    0.171496  -1.042500  4.873611
H    -1.838701  -0.112007  1.541215
H    -1.843372  0.407375  4.370048
C    -3.277327  -0.877817  3.432285
C    -3.545067  -1.945491  2.403230
C    -2.724767  -2.508306  1.426568
C    -4.852772  -2.520416  2.215631
N    -3.457746  -3.390004  0.670319
C    -4.761920  -3.423792  1.123458
C    -6.088705  -2.348943  2.866282
C    -5.856974  -4.164800  0.669338
C    -7.177525  -3.080689  2.416447
C    -7.061791  -3.977626  1.332866
H    -3.868993  0.022318  3.192178
H    -3.656024  -1.202350  4.415280
H    -1.669832  -2.371633  1.205199
H    -3.091453  -3.941900  -0.095742
H    -6.200299  -1.657707  3.701940
H    -5.773376  -4.855374  -0.168842
H    -8.143790  -2.963207  2.904389
H    -7.939936  -4.533868  1.008648
N    -1.184469  -2.731212  4.177483
C    -0.434489  -3.839479  4.762276
H    -2.018748  -2.951647  3.606417
H    0.362069  -3.452812  5.401464
H    -0.003135  -4.456253  3.963604
H    -1.118269  -4.458479  5.354685
Ca    1.301922  0.742054  4.999495
