37
Energy: -41906.2215444 eV PBE+vdW (tier 2 basis)
C    0.158344  -1.403880  0.370763
C    0.072959  -0.990131  1.800205
O    1.118866  -0.973063  2.530889
H    0.837167  -0.715389  -0.153031
H    -0.810667  -1.405158  -0.138397
H    0.606644  -2.404118  0.303748
N    -1.108936  -0.627010  2.307984
C    -1.325172  -0.056228  3.651947
C    -1.146340  -1.132800  4.750069
O    0.026617  -1.226973  5.274285
H    -1.910815  -0.635958  1.680644
H    -0.484775  0.629302  3.836732
C    -2.615443  0.773411  3.692230
C    -2.962418  1.216113  5.081703
C    -2.116804  1.757448  6.038574
C    -4.280100  1.190621  5.659342
N    -2.836534  2.044691  7.170069
C    -4.164097  1.714530  6.976243
C    -5.549590  0.798209  5.191680
C    -5.260002  1.837305  7.835175
C    -6.639589  0.918909  6.041714
C    -6.495224  1.429190  7.349381
H    -3.452622  0.193406  3.278499
H    -2.475669  1.626104  3.006732
H    -1.061036  2.004600  5.990334
H    -2.462782  2.486590  8.000991
H    -5.692140  0.431927  4.173358
H    -5.155084  2.244567  8.840105
H    -7.629732  0.629950  5.692614
H    -7.374003  1.515160  7.986411
N    -2.067080  -2.005148  5.110463
C    -3.461270  -2.155280  4.683905
H    -1.760882  -2.630829  5.856354
H    -4.105987  -1.443810  5.214538
H    -3.772918  -3.175830  4.924754
H    -3.556788  -2.015570  3.603229
Ca    1.972773  -1.185725  4.455764
