37
Energy: -41907.604536 eV PBE+vdW (tier 2 basis)
C    0.122298  1.014150  1.937255
C    -0.688767  -0.073906  2.572815
O    -0.698421  -0.201929  3.823947
H    1.170062  0.900747  2.246122
H    -0.220391  1.984000  2.322198
H    0.070757  1.026252  0.843745
N    -1.385260  -0.880197  1.745964
C    -2.251353  -2.051953  1.996111
C    -3.417556  -1.732858  2.954678
O    -3.252734  -1.405794  4.160554
H    -1.273869  -0.660533  0.760533
H    -2.699721  -2.223543  1.010371
C    -1.486120  -3.398314  2.340810
C    -1.619212  -3.877133  3.748553
C    -2.657292  -4.634008  4.254967
C    -0.841163  -3.461595  4.881920
N    -2.609171  -4.648418  5.630034
C    -1.536096  -3.908862  6.057635
C    0.363445  -2.737641  5.036627
C    -1.149614  -3.506826  7.345311
C    0.758844  -2.353371  6.319216
C    -0.011907  -2.701150  7.457552
H    -0.434412  -3.255808  2.060106
H    -1.880873  -4.163109  1.660059
H    -3.449391  -5.158626  3.729707
H    -3.240280  -5.170712  6.228959
H    0.965314  -2.463413  4.171641
H    -1.700302  -3.821127  8.231840
H    1.682536  -1.791983  6.454808
H    0.318949  -2.380831  8.444547
N    -4.639228  -1.854793  2.441063
C    -5.870644  -1.620025  3.195557
H    -4.729967  -2.074224  1.453708
H    -5.757913  -2.006134  4.213248
H    -6.693125  -2.138139  2.694468
H    -6.096848  -0.546870  3.242950
Ca    -1.612572  -1.035323  5.604420
