37
Energy: -41906.6377936 eV PBE+vdW (tier 2 basis)
C    0.242168  -0.286275  0.302515
C    -0.268030  -0.525611  1.693813
O    0.224667  -1.310714  2.497933
H    0.628018  -1.225232  -0.107534
H    1.084910  0.418790  0.352445
H    -0.515391  0.131306  -0.371004
N    -1.396004  0.199904  2.088409
C    -1.707747  0.167882  3.501006
C    -2.162024  -1.234959  3.929815
O    -1.920452  -1.641366  5.118388
H    -1.702126  0.993769  1.532483
H    -0.777805  0.322619  4.072428
C    -2.734041  1.269378  3.882450
C    -3.164101  1.167384  5.313582
C    -4.434563  0.895805  5.774422
C    -2.313550  1.157688  6.471623
N    -4.417982  0.674509  7.135525
C    -3.136060  0.799972  7.600615
C    -0.932002  1.383759  6.685525
C    -2.591157  0.570085  8.874827
C    -0.392462  1.171991  7.959697
C    -1.210073  0.743993  9.038025
H    -3.615446  1.199635  3.229794
H    -2.262260  2.243711  3.681618
H    -5.367403  0.832264  5.222555
H    -5.241668  0.514040  7.707108
H    -0.290329  1.727692  5.874294
H    -3.218909  0.286726  9.720265
H    0.666214  1.361100  8.136576
H    -0.765507  0.594149  10.021308
N    -2.842007  -1.959623  3.067652
C    -3.306875  -3.327810  3.273031
H    -2.901514  -1.563430  2.128927
H    -3.496492  -3.497745  4.335932
H    -2.550518  -4.041334  2.919526
H    -4.232724  -3.478119  2.709194
Ca    -1.252757  -1.248931  7.076232
