37
Energy: -41906.4051323 eV PBE+vdW (tier 2 basis)
C    0.625605  -2.806232  -0.714397
C    0.316544  -2.517864  0.715586
O    0.326460  -3.458831  1.579438
H    0.958988  -1.920420  -1.266170
H    -0.305811  -3.162990  -1.183805
H    1.371159  -3.603232  -0.797779
N    0.060186  -1.247498  1.062535
C    -0.775127  -0.770890  2.174414
C    -0.094197  -0.751636  3.532586
O    0.522183  -1.775867  3.989071
H    0.054655  -0.604070  0.272942
H    -0.996890  0.264271  1.897376
C    -2.162289  -1.525658  2.266233
C    -2.684422  -1.879171  0.918668
C    -2.985436  -3.154457  0.470634
C    -2.901412  -0.987544  -0.192433
N    -3.373077  -3.101341  -0.842000
C    -3.334946  -1.789475  -1.284864
C    -2.773123  0.401954  -0.383460
C    -3.639367  -1.253367  -2.537644
C    -3.066232  0.939120  -1.631691
C    -3.493385  0.120377  -2.695444
H    -2.838444  -0.847956  2.810551
H    -2.064417  -2.430029  2.883538
H    -2.975625  -4.098545  1.005818
H    -3.742081  -3.883019  -1.370918
H    -2.501301  1.068921  0.437421
H    -3.985058  -1.880930  -3.358411
H    -2.986641  2.013684  -1.789238
H    -3.726519  0.574950  -3.656872
N    -0.217725  0.319047  4.300587
C    -0.867171  1.599777  3.991286
H    0.195317  0.224472  5.228569
H    -0.412991  2.068231  3.109857
H    -0.715996  2.265401  4.845284
H    -1.946084  1.473241  3.841544
Ca    0.936020  -3.798379  3.553802
