37
Energy: -41906.7586333 eV PBE+vdW (tier 2 basis)
C    -1.902891  1.502717  5.562887
C    -1.372835  0.973375  4.273760
O    -0.149198  0.606450  4.177507
H    -1.764470  0.738224  6.340525
H    -1.317612  2.379405  5.871126
H    -2.962228  1.773627  5.504390
N    -2.194798  0.880870  3.231793
C    -1.871645  0.266118  1.935777
C    -0.979610  1.228287  1.127213
O    0.290884  1.158550  1.283320
H    -3.161578  1.214820  3.346865
H    -1.238573  -0.612380  2.135883
C    -3.163602  -0.236233  1.234989
C    -4.256420  0.777401  1.076776
C    -4.632428  1.424332  -0.094177
C    -5.145698  1.252814  2.109187
N    -5.663534  2.289369  0.170517
C    -6.003073  2.216095  1.505641
C    -5.350221  0.923022  3.467680
C    -6.998188  2.889124  2.220496
C    -6.341647  1.589257  4.178051
C    -7.145248  2.571546  3.564444
H    -3.524197  -1.090667  1.828138
H    -2.868499  -0.650225  0.260765
H    -4.288513  1.268611  -1.113235
H    -6.156848  2.834683  -0.527005
H    -4.809642  0.100279  3.942209
H    -7.646319  3.621770  1.740997
H    -6.528768  1.325883  5.218157
H    -7.916748  3.069599  4.149237
N    -1.546667  2.103088  0.329274
C    -0.849709  3.088354  -0.493933
H    -2.580440  2.073136  0.294154
H    -1.308285  3.107590  -1.488500
H    0.204989  2.817882  -0.583805
H    -0.939029  4.085774  -0.044051
Ca    1.534290  0.600452  2.914951
