37
Energy: -41906.3849879 eV PBE+vdW (tier 2 basis)
C    0.003842  0.556485  0.188502
C    0.048528  0.354305  1.673525
O    1.082396  0.490982  2.343268
H    0.179793  1.621466  -0.018757
H    -0.946152  0.261430  -0.270449
H    0.826956  0.000722  -0.275340
N    -1.126229  -0.000731  2.293149
C    -1.295901  0.050894  3.743630
C    -0.653514  -1.156522  4.471723
O    -1.286084  -1.819988  5.373320
H    -1.951492  -0.149313  1.721246
H    -0.712030  0.922060  4.089168
C    -2.795751  0.288401  4.023462
C    -3.289463  0.289547  5.442793
C    -4.479810  -0.297345  5.844473
C    -2.714995  0.903868  6.628746
N    -4.652633  -0.138642  7.220599
C    -3.606320  0.644268  7.718280
C    -1.528143  1.629695  6.888383
C    -3.357188  1.079451  9.028192
C    -1.284084  2.064069  8.181751
C    -2.185097  1.794798  9.237111
H    -3.383172  -0.454882  3.463878
H    -3.035278  1.267163  3.578556
H    -5.235527  -0.805236  5.251001
H    -5.546406  -0.260166  7.692309
H    -0.830555  1.874156  6.089555
H    -4.062066  0.893935  9.838198
H    -0.384695  2.641217  8.391664
H    -1.961709  2.169147  10.235215
N    0.590326  -1.416886  4.154985
C    1.400414  -2.496026  4.707624
H    1.013952  -0.732105  3.473164
H    2.066212  -2.869216  3.922961
H    0.760838  -3.309757  5.060687
H    2.016614  -2.124837  5.537840
Ca    -2.573292  -1.707450  7.011405
