37
Energy: -41906.5261892 eV PBE+vdW (tier 2 basis)
C    -1.716886  1.617485  0.766242
C    -1.173664  1.035646  2.025473
O    -0.136325  1.541777  2.565993
H    -1.706051  2.711877  0.823341
H    -1.041347  1.317297  -0.051179
H    -2.726449  1.267256  0.527687
N    -1.786735  -0.028322  2.551145
C    -1.340644  -0.941040  3.625467
C    -1.254174  -0.279533  5.004681
O    -0.313580  0.532232  5.293069
H    -2.572437  -0.377601  2.009123
H    -2.137430  -1.694225  3.671366
C    -0.033069  -1.720048  3.277442
C    -0.122717  -2.429345  1.968856
C    -0.661034  -3.689737  1.762351
C    0.295848  -1.940015  0.679897
N    -0.613690  -3.992005  0.429251
C    -0.032159  -2.951248  -0.267719
C    0.957496  -0.784655  0.222960
C    0.245507  -2.825543  -1.631321
C    1.239407  -0.655945  -1.131880
C    0.877691  -1.661715  -2.050691
H    0.143151  -2.423778  4.104994
H    0.830068  -1.031985  3.272686
H    -1.055813  -4.404810  2.477482
H    -0.912425  -4.871277  0.023493
H    1.277121  -0.003889  0.915406
H    -0.011171  -3.613247  -2.338748
H    1.765077  0.226742  -1.494427
H    1.114458  -1.531584  -3.105272
N    -2.134888  -0.654921  5.917962
C    -2.156078  -0.213472  7.313419
H    -2.870512  -1.293924  5.626254
H    -2.387605  -1.071493  7.953253
H    -2.925574  0.556524  7.453977
H    -1.177639  0.191817  7.581087
Ca    1.075986  1.753572  4.256347
