37
Energy: -41906.1977254 eV PBE+vdW (tier 2 basis)
C    -0.099772  1.671126  0.519401
C    -0.201314  0.970564  1.830320
O    0.712179  1.105990  2.711855
H    -0.062304  2.755193  0.699103
H    -0.933399  1.449268  -0.154627
H    0.845233  1.397377  0.031143
N    -1.265680  0.200774  2.087949
C    -1.535723  -0.390046  3.409423
C    -0.551769  -1.545807  3.670462
O    0.446961  -1.306712  4.438634
H    -1.997731  0.149577  1.382380
H    -1.262090  0.370254  4.155546
C    -3.049068  -0.657863  3.644694
C    -3.394844  -0.663337  5.098237
C    -3.999983  0.385760  5.769634
C    -3.164474  -1.702351  6.068820
N    -4.143839  0.060675  7.091368
C    -3.647694  -1.208957  7.315554
C    -2.642970  -3.009493  6.025337
C    -3.602334  -1.959495  8.492638
C    -2.596268  -3.760274  7.192768
C    -3.064452  -3.238380  8.415024
H    -3.371481  -1.582327  3.148221
H    -3.587894  0.166069  3.151871
H    -4.366655  1.333818  5.388257
H    -4.614804  0.633021  7.781871
H    -2.314372  -3.457364  5.087863
H    -3.986939  -1.566100  9.433024
H    -2.211108  -4.778719  7.165372
H    -3.021591  -3.855955  9.310637
N    -0.651569  -2.736717  3.105563
C    -1.637810  -3.264348  2.159782
H    0.068509  -3.393235  3.410213
H    -1.135391  -4.003134  1.526937
H    -2.031151  -2.474210  1.515834
H    -2.463853  -3.757686  2.688023
Ca    1.716489  0.390104  4.442522
