37
Energy: -41906.4723061 eV PBE+vdW (tier 2 basis)
C    -0.038262  2.422729  1.173712
C    -0.115436  1.449566  2.302226
O    0.929916  1.212482  3.014200
H    0.690995  2.051522  0.439418
H    -1.001547  2.569612  0.675890
H    0.335936  3.388586  1.537202
N    -1.254847  0.835614  2.546761
C    -1.529742  -0.257548  3.471625
C    -2.831499  -0.885213  2.854914
O    -3.468328  -0.206968  2.047470
H    -2.093548  0.976274  1.944546
H    -0.700153  -0.980251  3.442450
C    -1.813899  0.212264  4.925392
C    -0.637938  0.572402  5.788177
C    -0.348561  1.825176  6.298472
C    0.330877  -0.340123  6.375560
N    0.772215  1.759330  7.131583
C    1.166143  0.421384  7.252260
C    0.587093  -1.722882  6.229014
C    2.224980  -0.145831  7.977103
C    1.633506  -2.285763  6.946082
C    2.438476  -1.509875  7.810410
H    -2.358189  -0.596883  5.436071
H    -2.512316  1.058424  4.878070
H    -0.871394  2.767018  6.158318
H    1.006743  2.484239  7.806907
H    -0.034334  -2.342923  5.584654
H    2.834553  0.444380  8.661063
H    1.834769  -3.352241  6.855476
H    3.238005  -1.994244  8.369330
N    -3.174866  -2.109991  3.280714
C    -4.376951  -2.808217  2.819646
H    -2.541751  -2.616252  3.890155
H    -4.928063  -3.205728  3.679094
H    -4.109688  -3.631152  2.145216
H    -5.005120  -2.093685  2.281512
Ca    1.878170  1.138920  4.855306
