37
Energy: -41906.3968267 eV PBE+vdW (tier 2 basis)
C    0.142055  0.720324  0.231019
C    0.105827  0.407061  1.696812
O    1.103323  0.483033  2.428439
H    -0.784094  0.470874  -0.298316
H    0.984964  0.191915  -0.229312
H    0.336278  1.795850  0.114222
N    -1.103076  0.020574  2.225215
C    -1.343445  -0.041406  3.664722
C    -0.744747  -1.317335  4.318556
O    -1.447745  -2.076964  5.083774
H    -1.898205  -0.077078  1.602085
H    -0.783337  0.800639  4.110683
C    -2.850687  0.143088  3.910330
C    -3.310735  0.177687  5.340127
C    -2.658275  0.695904  6.447143
C    -4.563889  -0.373079  5.825657
N    -3.406089  0.446963  7.596952
C    -4.611846  -0.157826  7.239180
C    -5.617016  -1.090643  5.209338
C    -5.678168  -0.597647  8.038226
C    -6.665927  -1.534153  6.002496
C    -6.700891  -1.283236  7.393909
H    -3.397609  -0.656368  3.387511
H    -3.147351  1.084323  3.421889
H    -1.713624  1.226592  6.520508
H    -3.237291  0.907450  8.488603
H    -5.623969  -1.265856  4.134163
H    -5.715498  -0.396136  9.108425
H    -7.494376  -2.071748  5.543318
H    -7.555602  -1.628822  7.973845
N    0.522735  -1.539234  4.076234
C    1.300384  -2.672295  4.563072
H    0.982712  -0.795561  3.483868
H    1.911415  -2.371425  5.424744
H    1.971935  -3.005164  3.764716
H    0.637980  -3.493829  4.848862
Ca    -2.792914  -2.018311  6.688003
