37
Energy: -41906.4338174 eV PBE+vdW (tier 2 basis)
C    -1.745432  1.459280  0.645624
C    -1.295775  0.938904  1.967442
O    -0.326094  1.498616  2.575131
H    -2.718274  1.066059  0.333016
H    -0.991198  1.156133  -0.098656
H    -1.774887  2.554645  0.663710
N    -1.920312  -0.128478  2.474373
C    -1.542864  -1.002222  3.604839
C    -1.580429  -0.310627  4.966487
O    -0.691017  0.548643  5.292559
H    -2.641087  -0.520105  1.874327
H    -2.316593  -1.776441  3.601209
C    -0.186504  -1.752251  3.389759
C    -0.148718  -2.490262  2.095333
C    -0.641462  -3.766345  1.870899
C    0.367493  -2.017339  0.835531
N    -0.474114  -4.094103  0.553716
C    0.143117  -3.054546  -0.114042
C    1.041549  -0.856811  0.411250
C    0.533869  -2.950457  -1.451497
C    1.435141  -0.748968  -0.917324
C    1.174848  -1.781142  -1.841195
H    -0.064795  -2.433573  4.245348
H    0.653689  -1.040054  3.444325
H    -1.080673  -4.476012  2.565189
H    -0.715260  -4.989113  0.143997
H    1.284812  -0.055701  1.111309
H    0.356118  -3.758321  -2.160425
H    1.971259  0.137970  -1.253201
H    1.498895  -1.667259  -2.874237
N    -2.480285  -0.674255  5.866996
C    -3.591023  -1.625189  5.735252
H    -2.363796  -0.231508  6.779310
H    -4.175439  -1.427153  4.830254
H    -4.249132  -1.491674  6.598430
H    -3.227888  -2.660666  5.735013
Ca    0.710262  1.830324  4.362949
