37
Energy: -41906.5824911 eV PBE+vdW (tier 2 basis)
C    -0.526024  -1.203162  -0.182434
C    -0.674707  -0.138646  0.852673
O    -0.220786  1.033959  0.635855
H    -1.082220  -0.891298  -1.078854
H    -0.897165  -2.180514  0.142397
H    0.527220  -1.291877  -0.477836
N    -1.299685  -0.434758  1.995475
C    -1.753556  0.497252  3.044257
C    -0.589800  0.897283  3.975142
O    0.414364  1.515214  3.467830
H    -1.628553  -1.393504  2.094650
H    -2.039151  1.435116  2.541471
C    -3.015878  -0.127867  3.693430
C    -3.546336  0.586166  4.897200
C    -3.823214  -0.000489  6.124508
C    -3.892621  1.978997  5.012865
N    -4.305419  0.951727  6.984240
C    -4.363149  2.173782  6.342449
C    -3.880840  3.077400  4.131437
C    -4.793952  3.417686  6.812161
C    -4.311871  4.313773  4.593724
C    -4.756703  4.482347  5.921148
H    -2.797316  -1.175053  3.960211
H    -3.776155  -0.162491  2.895388
H    -3.754534  -1.041200  6.427983
H    -4.632521  0.769923  7.925929
H    -3.595185  2.961968  3.083863
H    -5.158353  3.547130  7.830571
H    -4.332410  5.167473  3.917659
H    -5.095161  5.464067  6.248423
N    -0.668958  0.634499  5.256132
C    0.321610  1.011119  6.261047
H    -1.595538  0.308189  5.586505
H    0.024589  1.951415  6.744898
H    1.301733  1.132550  5.794019
H    0.369201  0.221859  7.018438
Ca    1.005043  2.416965  1.657145
