37
Energy: -41906.4811771 eV PBE+vdW (tier 2 basis)
C    -1.735476  -0.268443  -0.295567
C    -1.446117  0.441112  0.982861
O    -0.819067  -0.154375  1.923479
H    -0.920179  -0.952093  -0.552998
H    -2.645014  -0.870420  -0.135528
H    -1.929786  0.415546  -1.128873
N    -1.836159  1.718202  1.102391
C    -2.166591  2.434030  2.346082
C    -0.955649  2.973128  3.103898
O    -0.039777  2.198328  3.539901
H    -2.358275  2.065645  0.299534
H    -2.744003  3.297333  1.994781
C    -3.116554  1.603855  3.291393
C    -4.075520  0.765431  2.519667
C    -4.213939  -0.609001  2.611217
C    -4.982476  1.204802  1.489387
N    -5.144675  -1.040233  1.703127
C    -5.639140  0.042857  0.996001
C    -5.308610  2.454452  0.927060
C    -6.592812  0.092575  -0.022775
C    -6.251052  2.507770  -0.093364
C    -6.884129  1.340152  -0.562814
H    -3.628323  2.344094  3.926312
H    -2.527510  0.971199  3.971494
H    -3.731217  -1.312636  3.281935
H    -5.499086  -1.987369  1.639059
H    -4.881004  3.383149  1.310516
H    -7.096219  -0.806165  -0.377521
H    -6.524499  3.469170  -0.525546
H    -7.626441  1.418694  -1.355351
N    -0.932610  4.269938  3.361668
C    0.077471  4.969314  4.156349
H    -1.676775  4.838804  2.964523
H    -0.424707  5.634976  4.867050
H    0.721402  5.567073  3.498861
H    0.682812  4.239740  4.698188
Ca    0.552190  0.167732  3.466124
