37
Energy: -41907.0014002 eV PBE+vdW (tier 2 basis)
C    0.846569  -0.371353  1.064094
C    0.007637  -0.080927  2.261351
O    0.446754  0.625587  3.215055
H    0.330031  -0.971152  0.307715
H    1.757486  -0.896450  1.382744
H    1.169015  0.578475  0.616341
N    -1.251709  -0.586722  2.315578
C    -2.075205  -0.246584  3.466778
C    -1.755202  -1.120425  4.698367
O    -1.069688  -0.584183  5.624348
H    -1.597278  -1.142627  1.538651
H    -1.637852  0.712681  3.742252
C    -3.562473  0.167055  3.320663
C    -3.818992  0.957858  4.579756
C    -4.581251  0.592254  5.670748
C    -3.009270  2.066579  5.016939
N    -4.274256  1.385722  6.752051
C    -3.285880  2.271453  6.406795
C    -2.054302  2.898424  4.384562
C    -2.555985  3.177042  7.184111
C    -1.326918  3.812519  5.161672
C    -1.553335  3.920432  6.555164
H    -4.255854  -0.676482  3.228181
H    -3.665344  0.780536  2.413106
H    -5.324414  -0.193802  5.761603
H    -4.723802  1.327692  7.659797
H    -1.923816  2.883446  3.300067
H    -2.761917  3.310298  8.245964
H    -0.632531  4.502029  4.678344
H    -0.983208  4.645091  7.134758
N    -2.142688  -2.383227  4.795508
C    -2.882573  -3.200763  3.837444
H    -1.842445  -2.848026  5.653847
H    -3.816012  -3.556806  4.290255
H    -2.277627  -4.068836  3.548333
H    -3.126547  -2.627186  2.940748
Ca    -0.024117  1.338376  5.298312
