37
Energy: -41906.7302824 eV PBE+vdW (tier 2 basis)
C    0.577043  0.784238  0.485557
C    0.144184  0.475172  1.878839
O    0.938681  0.685084  2.859813
H    -0.169493  0.507697  -0.265602
H    1.522788  0.270830  0.269000
H    0.776226  1.863212  0.412173
N    -1.079028  -0.007337  2.085854
C    -1.711593  -0.250010  3.386958
C    -1.125562  -1.534801  4.005013
O    -0.052988  -1.427538  4.703018
H    -1.678720  -0.234818  1.281689
H    -1.399065  0.558345  4.065074
C    -3.257697  -0.153372  3.224032
C    -3.843709  -0.973368  2.117212
C    -3.922606  -0.609333  0.778066
C    -4.433447  -2.286793  2.217158
N    -4.487248  -1.629884  0.056678
C    -4.813176  -2.672029  0.898780
C    -4.741881  -3.152756  3.290650
C    -5.433135  -3.893888  0.621911
C    -5.359974  -4.365714  3.015511
C    -5.690292  -4.736235  1.695420
H    -3.474392  0.912885  3.065607
H    -3.713695  -0.411771  4.189861
H    -3.702764  0.343188  0.302674
H    -4.716828  -1.585668  -0.929475
H    -4.554530  -2.861362  4.326184
H    -5.721061  -4.169187  -0.391997
H    -5.624490  -5.032627  3.834917
H    -6.180888  -5.691890  1.518227
N    -1.696822  -2.695109  3.792313
C    -1.235729  -3.974961  4.327829
H    -2.556040  -2.716917  3.221721
H    -0.493000  -4.426701  3.657066
H    -2.101272  -4.640837  4.397242
H    -0.793633  -3.832602  5.318258
Ca    1.600839  -0.103143  4.701767
