37
Energy: -41906.4789646 eV PBE+vdW (tier 2 basis)
C    0.328824  0.821446  0.502498
C    0.016449  0.444800  1.920796
O    0.753735  0.665405  2.871026
H    -0.414493  0.471153  -0.222437
H    1.312894  0.415032  0.237447
H    0.410567  1.914639  0.436725
N    -1.208017  -0.226472  2.129388
C    -1.612814  -0.415540  3.503103
C    -1.841481  -1.874133  3.870165
O    -2.166724  -2.173161  5.073010
H    -1.923415  -0.115763  1.414217
H    -0.698618  -0.129280  4.061514
C    -2.769038  0.537710  3.924453
C    -2.981958  0.702102  5.398734
C    -4.170720  0.508645  6.081376
C    -2.001420  1.126895  6.387038
N    -3.977214  0.726988  7.448664
C    -2.663969  1.169959  7.653871
C    -0.627251  1.461322  6.322892
C    -2.010088  1.528482  8.841441
C    0.017014  1.818235  7.498704
C    -0.662167  1.853041  8.737560
H    -3.709950  0.236394  3.442878
H    -2.503383  1.522196  3.510480
H    -5.153427  0.243573  5.701274
H    -4.740341  0.894949  8.101169
H    -0.088168  1.467984  5.375080
H    -2.535995  1.582511  9.794260
H    1.069825  2.095210  7.466932
H    -0.119809  2.156265  9.632158
N    -1.638910  -2.791322  2.948931
C    -1.726322  -4.237650  3.125728
H    -1.326196  -2.421437  2.048741
H    -2.408936  -4.656442  2.377332
H    -2.100396  -4.460570  4.127367
H    -0.734372  -4.687344  2.994425
Ca    -2.529716  -1.374825  6.991059
