37
Energy: -41906.3684951 eV PBE+vdW (tier 2 basis)
C    -1.418709  -0.736691  -0.241328
C    -1.428100  -0.150088  1.127420
O    -0.667654  0.839227  1.413147
H    -1.688632  0.046480  -0.963749
H    -0.401404  -1.066304  -0.492561
H    -2.108574  -1.579530  -0.347197
N    -2.240250  -0.660493  2.053756
C    -2.489377  -0.026797  3.351126
C    -1.244850  -0.079095  4.247621
O    -0.559056  1.000130  4.372502
H    -3.003055  -1.284892  1.751124
H    -2.644968  1.047837  3.166135
C    -3.828321  -0.567325  3.947362
C    -4.876291  -0.599634  2.885848
C    -5.424061  -1.736125  2.304594
C    -5.470532  0.533284  2.225342
N    -6.318482  -1.363301  1.335930
C    -6.375468  0.016415  1.257556
C    -5.351383  1.927741  2.371890
C    -7.144212  0.843153  0.434068
C    -6.113314  2.752892  1.554527
C    -6.995201  2.215360  0.594515
H    -4.104063  0.101930  4.774958
H    -3.698746  -1.566300  4.377125
H    -5.284754  -2.782930  2.558234
H    -6.908671  -2.001898  0.815598
H    -4.716336  2.362493  3.146865
H    -7.842230  0.433389  -0.295008
H    -6.052080  3.834347  1.668242
H    -7.585344  2.891015  -0.022516
N    -0.844811  -1.163624  4.889205
C    -1.369242  -2.532416  4.865367
H    -0.027777  -1.010657  5.482168
H    -2.083156  -2.691913  5.682952
H    -1.839332  -2.753862  3.904142
H    -0.525336  -3.216809  5.000907
Ca    0.192771  2.194990  2.779136
