25
Energy: -603668.57132 eV PBE+vdW (tier 2 basis)
N    1.116390  -1.682892  2.046966
C    0.039625  -0.899467  2.719371
C    0.225738  -0.993762  4.229298
O    0.835238  -1.945742  4.763152
H    1.916897  -1.079283  1.827663
H    0.766668  -2.019065  1.142327
H    0.107405  0.158196  2.417118
C    -1.360181  -1.462138  2.352752
C    -1.798396  -1.213119  0.899895
C    -2.113517  0.249525  0.567563
C    -2.676256  0.414671  -0.859189
N    -2.969639  1.791279  -1.156664
H    -2.103072  -1.021612  3.034368
H    -1.358758  -2.543735  2.572709
H    -2.696093  -1.829083  0.739260
H    -1.055432  -1.611365  0.185159
H    -1.220814  0.890332  0.650188
H    -2.850596  0.637284  1.289571
H    -3.575508  -0.227996  -0.960544
H    -1.948968  0.052009  -1.598730
H    -2.919891  2.077479  -2.129992
H    -3.742358  2.225898  -0.658459
O    -0.305266  -0.107302  5.026521
H    -0.748895  0.632900  4.565149
Pb    1.925818  -3.550893  3.549033
