25
Energy: -603669.035033 eV PBE+vdW (tier 2 basis)
N    0.231786  0.309537  0.466767
C    -0.065334  -0.094047  1.905318
C    1.227630  0.046909  2.703600
O    1.169912  -0.008310  3.971115
H    -0.461246  -0.111049  -0.170741
H    0.210996  1.329732  0.331918
H    -0.804023  0.621282  2.293714
C    -0.637412  -1.521936  1.964478
C    -1.979936  -1.667614  1.226352
C    -2.716026  -2.985206  1.520203
C    -2.055868  -4.244937  0.939964
N    -2.852198  -5.411848  1.215877
H    -0.777180  -1.746181  3.031912
H    0.115586  -2.233709  1.590121
H    -1.842359  -1.586730  0.130893
H    -2.640620  -0.837245  1.520809
H    -3.731186  -2.896272  1.105272
H    -2.839623  -3.109246  2.606294
H    -1.060427  -4.414001  1.377910
H    -1.896302  -4.097267  -0.151468
H    -3.809392  -5.412649  0.871868
H    -2.400427  -6.316086  1.117330
O    2.334698  0.191557  2.081568
H    1.180848  -0.011113  0.210292
Pb    3.490538  0.270547  4.198369
