25
Energy: -603668.537386 eV PBE+vdW (tier 2 basis)
N    1.150315  1.284810  1.544160
C    0.499306  0.332864  2.494554
C    1.589352  -0.427866  3.238092
O    2.717582  -0.624683  2.731969
H    0.510536  1.473584  0.764358
H    1.311971  2.191754  1.998053
H    -0.106102  0.895778  3.221600
C    -0.406927  -0.654331  1.704883
C    -1.107288  -1.755837  2.511475
C    -2.127034  -1.296969  3.571301
C    -3.468769  -0.807208  2.995232
N    -4.130064  -1.846874  2.242231
H    0.210580  -1.125625  0.920456
H    -1.153776  -0.031236  1.187226
H    -0.360872  -2.423599  2.967016
H    -1.644991  -2.383483  1.784787
H    -1.734997  -0.496265  4.225444
H    -2.324241  -2.146111  4.242472
H    -3.329373  0.058608  2.330521
H    -4.088075  -0.442993  3.839230
H    -4.430577  -2.661047  2.775592
H    -4.854442  -1.539705  1.598128
O    1.364334  -0.949210  4.411104
H    0.465696  -0.766888  4.756320
Pb    3.371496  0.368395  0.780589
