25
Energy: -603669.113294 eV PBE+vdW (tier 2 basis)
N    0.723681  -0.584265  0.074473
C    0.117557  -0.251105  1.434897
C    1.279301  0.060774  2.380384
O    1.035047  0.264338  3.608447
H    0.860036  -1.599946  -0.030259
H    0.129525  -0.266641  -0.702062
H    -0.441014  0.688754  1.297168
C    -0.824202  -1.354329  1.928376
C    -2.062867  -1.565205  1.044879
C    -3.032282  -2.584634  1.657753
C    -4.300176  -2.781695  0.805741
N    -5.204328  -3.717720  1.417251
H    -1.133118  -1.059127  2.941309
H    -0.256566  -2.293264  2.046498
H    -1.773789  -1.909170  0.035657
H    -2.580119  -0.600452  0.910693
H    -3.336940  -2.255106  2.661889
H    -2.524220  -3.554138  1.783848
H    -4.002819  -3.104725  -0.214845
H    -4.828833  -1.825454  0.688388
H    -6.193823  -3.615869  1.214864
H    -4.908432  -4.687294  1.489132
O    2.463336  0.142365  1.903471
H    1.657387  -0.138783  0.008186
Pb    3.285516  0.751182  4.091417
