25
Energy: -603670.038342 eV PBE+vdW (tier 2 basis)
N    -1.397530  -0.405107  2.833179
C    -0.247808  -0.409701  1.923072
C    0.730693  0.656905  2.396193
O    0.562717  1.903125  2.100287
H    -4.314843  -1.918800  -2.119271
H    -1.163209  -0.724693  3.772758
H    0.265993  -1.373786  2.045399
C    -0.657069  -0.221346  0.454071
C    -1.415550  -1.416421  -0.159040
C    -2.898316  -1.519564  0.236022
C    -3.622980  -2.751844  -0.285252
N    -3.780889  -2.741997  -1.807023
H    0.258741  -0.061814  -0.133348
H    -1.245105  0.703802  0.350491
H    -0.897845  -2.351813  0.110102
H    -1.316080  -1.318940  -1.253664
H    -3.444604  -0.609628  -0.064613
H    -2.978948  -1.561481  1.331651
H    -4.641382  -2.822738  0.114309
H    -3.090909  -3.682196  -0.048718
H    -2.868320  -2.717716  -2.281858
H    -4.280194  -3.579416  -2.138110
O    1.702410  0.333611  3.182279
H    -1.851836  0.507140  2.891427
Pb    2.417858  2.496413  3.308658
