25
Energy: -603670.359583 eV PBE+vdW (tier 2 basis)
N    0.613950  -0.153629  0.060774
C    0.036596  -0.113670  1.467873
C    1.158326  -0.441194  2.450418
O    1.143293  0.126393  3.585122
H    1.220432  -0.986933  -0.032306
H    -0.132438  -0.208753  -0.648255
H    -0.319757  0.907076  1.648384
C    -1.122326  -1.141214  1.574406
C    -1.435692  -1.625743  3.007732
C    -0.640515  -2.892274  3.403841
C    -0.428450  -3.124874  4.894401
N    0.499852  -2.119478  5.528294
H    -0.877804  -2.017871  0.952503
H    -2.011079  -0.671084  1.132072
H    -2.508254  -1.849359  3.061387
H    -1.279169  -0.796249  3.713200
H    0.338800  -2.919943  2.900190
H    -1.173031  -3.772637  3.015729
H    0.017197  -4.114358  5.053109
H    -1.382936  -3.106285  5.441708
H    0.010748  -1.221174  5.618445
H    0.684004  -2.421535  6.492257
O    1.992888  -1.350532  2.142607
H    1.186946  0.676138  -0.153145
Pb    2.672419  -1.434818  4.496258
