25
Energy: -603669.051238 eV PBE+vdW (tier 2 basis)
N    0.143335  -0.448780  -0.030094
C    -0.089314  -0.158990  1.450435
C    1.272148  0.184546  2.059906
O    1.362593  0.348992  3.314404
H    0.283025  -1.456544  -0.192758
H    -0.647790  -0.145466  -0.612573
H    -0.692717  0.762605  1.487245
C    -0.832962  -1.302458  2.147420
C    -2.243472  -1.552484  1.587958
C    -2.997018  -2.695866  2.287017
C    -3.474109  -2.372010  3.711550
N    -4.210844  -3.475587  4.269107
H    -0.876667  -1.028536  3.210485
H    -0.222827  -2.220553  2.094481
H    -2.188497  -1.809775  0.516683
H    -2.833109  -0.622602  1.651710
H    -2.376833  -3.604629  2.313559
H    -3.874551  -2.943863  1.671598
H    -4.080920  -1.440455  3.682392
H    -2.627229  -2.166851  4.383562
H    -5.035575  -3.788522  3.762690
H    -4.340232  -3.487494  5.276402
O    2.278090  0.334323  1.284127
H    1.008082  0.036357  -0.332154
Pb    3.641479  0.933552  3.180847
