25
Energy: -603669.079896 eV PBE+vdW (tier 2 basis)
N    -0.027156  0.900749  0.597003
C    0.363806  0.332533  1.953879
C    1.857959  0.031697  1.915443
O    2.458397  -0.233751  3.002830
H    -1.017283  0.692425  0.396010
H    0.103573  1.919726  0.540485
H    0.171202  1.110693  2.704719
C    -0.459109  -0.934141  2.260595
C    -1.976905  -0.712095  2.371854
C    -2.420591  0.199865  3.520319
C    -3.951130  0.219789  3.693497
N    -4.350367  1.116164  4.749651
H    -0.071533  -1.327103  3.211229
H    -0.240048  -1.696235  1.495354
H    -2.422786  -1.710539  2.495027
H    -2.402478  -0.351929  1.414478
H    -2.089972  1.240702  3.369649
H    -1.955194  -0.142307  4.458903
H    -4.300621  -0.818155  3.872166
H    -4.433600  0.553000  2.763510
H    -5.298319  1.478458  4.698412
H    -4.098082  0.846421  5.697544
O    2.463219  0.018955  0.788908
H    0.572958  0.473063  -0.130226
Pb    4.506203  -0.589326  1.911267
