25
Energy: -603670.019888 eV PBE+vdW (tier 2 basis)
N    -0.777628  0.588871  0.126037
C    -0.333235  0.029014  1.396340
C    1.094324  0.390349  1.791815
O    1.944365  0.797201  0.915402
H    -4.458254  -0.627388  -1.264813
H    -0.892756  1.601485  0.183803
H    -0.961160  0.438423  2.204550
C    -0.486787  -1.517194  1.407467
C    -1.895948  -2.021341  1.766464
C    -3.090644  -1.551475  0.915020
C    -3.015910  -2.004863  -0.534933
N    -4.300342  -1.645013  -1.273228
H    0.198551  -1.951473  2.148587
H    -0.154321  -1.893382  0.427209
H    -2.112470  -1.739432  2.806961
H    -1.865215  -3.121733  1.762988
H    -3.174808  -0.454815  0.945955
H    -4.001298  -1.962386  1.380625
H    -2.904953  -3.092218  -0.632515
H    -2.206972  -1.504732  -1.080090
H    -4.276632  -1.949306  -2.256512
H    -5.120190  -2.085289  -0.831260
O    1.469327  0.284708  3.022368
H    -0.086255  0.416904  -0.606657
Pb    3.569211  1.024088  2.532414
