25
Energy: -603669.133171 eV PBE+vdW (tier 2 basis)
N    1.232269  -0.348994  0.470942
C    0.663434  -0.263683  1.883079
C    1.560295  -1.090333  2.786334
O    1.523452  -0.902871  4.045335
H    0.508238  -0.105936  -0.220550
H    2.036401  0.278246  0.327315
H    0.696136  0.790326  2.189795
C    -0.794590  -0.774034  1.873017
C    -1.574708  -0.497600  3.166025
C    -3.081720  -0.780186  3.024879
C    -3.849475  0.218775  2.151694
N    -3.500030  0.121617  0.732976
H    -0.807179  -1.849955  1.633264
H    -1.329825  -0.253216  1.051445
H    -1.430198  0.553212  3.465114
H    -1.177869  -1.107734  3.990201
H    -3.525651  -0.754103  4.029351
H    -3.245163  -1.805233  2.653489
H    -3.641480  1.246620  2.482369
H    -4.931765  0.055247  2.311195
H    -3.822868  0.923178  0.191412
H    -3.860373  -0.728213  0.296717
O    2.298767  -2.007170  2.273882
H    1.558717  -1.313476  0.290481
Pb    3.062802  -2.608224  4.443711
