25
Energy: -603670.186134 eV PBE+vdW (tier 2 basis)
N    -0.072982  -1.264404  -0.218309
C    -0.072989  -0.456211  1.012338
C    1.316344  0.036003  1.403179
O    1.433473  0.994964  2.253868
H    -1.544717  -2.005572  -0.602971
H    0.224517  -0.701125  -1.019731
H    -0.666925  0.453685  0.832772
C    -0.698288  -1.210844  2.217820
C    -2.235698  -1.164824  2.353237
C    -3.119734  -2.218365  1.657906
C    -3.538460  -1.988898  0.206573
N    -2.509537  -2.478181  -0.786605
H    -0.292510  -0.753053  3.129602
H    -0.329932  -2.249806  2.212523
H    -2.597901  -0.154009  2.105334
H    -2.435009  -1.276746  3.427683
H    -4.062208  -2.255835  2.222447
H    -2.690509  -3.228050  1.774095
H    -3.703550  -0.925152  -0.008747
H    -4.469461  -2.522714  -0.017143
H    -2.393513  -3.496151  -0.710835
H    -2.802588  -2.281213  -1.751293
O    2.373677  -0.501677  0.909584
H    0.620668  -2.014730  -0.138528
Pb    3.717834  0.924906  2.154201
