25
Energy: -603670.022762 eV PBE+vdW (tier 2 basis)
N    -0.151023  -1.632997  2.745864
C    0.376612  -0.831828  1.657522
C    1.168470  0.401552  2.091290
O    0.974502  0.939468  3.244908
H    -2.003876  -4.198440  -1.044015
H    0.589596  -2.062693  3.299679
H    1.095037  -1.444095  1.088410
C    -0.730927  -0.377424  0.672087
C    -1.472126  -1.528419  -0.038715
C    -2.604016  -2.173161  0.778474
C    -3.514816  -3.107462  -0.005849
N    -2.803133  -4.393326  -0.426159
H    -0.264771  0.258918  -0.092415
H    -1.455658  0.255585  1.209262
H    -0.726140  -2.281229  -0.348119
H    -1.896796  -1.115753  -0.967318
H    -3.267364  -1.383600  1.164225
H    -2.199100  -2.679898  1.667503
H    -3.885883  -2.655908  -0.935127
H    -4.375224  -3.430365  0.591931
H    -2.444936  -4.902308  0.394147
H    -3.438681  -5.025764  -0.932431
O    2.048949  0.919044  1.302747
H    -0.724134  -1.078255  3.383623
Pb    2.574439  2.534356  2.828478
