25
Energy: -603669.807527 eV PBE+vdW (tier 2 basis)
N    -1.355976  1.168309  3.350439
C    -0.854983  0.045821  2.580965
C    0.655589  0.037708  2.613311
O    1.354585  -0.532310  1.690493
H    -4.520835  -2.650327  -1.223966
H    -0.861594  1.295572  4.232731
H    -1.096984  -0.950730  3.031556
C    -1.450130  0.074243  1.149606
C    -1.615881  -1.285490  0.457351
C    -2.226727  -1.116570  -0.943517
C    -2.469409  -2.399499  -1.728064
N    -3.650214  -3.198982  -1.179301
H    -0.855442  0.753283  0.522162
H    -2.435480  0.552026  1.248142
H    -2.252764  -1.925598  1.095130
H    -0.645239  -1.796792  0.371516
H    -1.546945  -0.513886  -1.564661
H    -3.160672  -0.531017  -0.894665
H    -1.608457  -3.079457  -1.703497
H    -2.719054  -2.192159  -2.775252
H    -3.802038  -4.063402  -1.718160
H    -3.503700  -3.467566  -0.196855
O    1.270745  0.588553  3.602426
H    -2.349775  1.069207  3.551626
Pb    3.310377  0.135062  2.709483
