25
Energy: -603669.961005 eV PBE+vdW (tier 2 basis)
N    2.086403  -2.745607  2.409410
C    0.845382  -2.201761  1.860664
C    1.022316  -2.192678  0.351836
O    0.715743  -3.248837  -0.331114
H    2.235786  -3.732217  2.205821
H    2.917685  -2.201616  2.181088
H    0.042707  -2.918448  2.085203
C    0.534285  -0.841686  2.497060
C    -0.859813  -0.291602  2.169940
C    -1.214213  1.023354  2.894521
C    -1.438466  0.838071  4.392073
N    -1.869690  2.146806  5.044622
H    1.306184  -0.113929  2.201660
H    0.655671  -1.009627  3.577253
H    -1.628842  -1.047761  2.396057
H    -0.939694  -0.091084  1.091603
H    -2.132590  1.430177  2.442301
H    -0.417202  1.765781  2.724688
H    -0.535246  0.522323  4.927421
H    -2.238807  0.117799  4.603817
H    -2.743245  2.501957  4.629561
H    -2.030985  2.032908  6.055651
O    1.583019  -1.203935  -0.264768
H    -1.155540  2.879548  4.925364
Pb    1.513152  -2.345935  -2.254730
