25
Energy: -603669.700588 eV PBE+vdW (tier 2 basis)
N    -0.299357  1.205298  0.639103
C    -0.094718  0.097003  1.557472
C    1.424086  -0.042278  1.549078
O    2.115866  0.551813  2.460613
H    -1.522523  -3.390393  -0.378938
H    -0.963211  1.906726  0.949867
H    -0.351508  0.442989  2.568475
C    -0.866763  -1.208758  1.269158
C    -2.377553  -1.003522  1.467895
C    -3.274775  -2.253003  1.459353
C    -3.544396  -2.924362  0.117015
N    -2.426091  -3.876978  -0.306749
H    -0.497219  -1.994532  1.949377
H    -0.619470  -1.526435  0.238695
H    -2.757573  -0.284036  0.726658
H    -2.526432  -0.523227  2.446772
H    -4.265367  -1.950107  1.829218
H    -2.922422  -3.000628  2.190719
H    -3.655085  -2.202082  -0.701845
H    -4.447738  -3.544584  0.153146
H    -2.315050  -4.636609  0.379498
H    -2.627003  -4.311299  -1.218834
O    2.042368  -0.653846  0.596318
H    -0.449762  0.942914  -0.330827
Pb    4.065696  0.119936  1.389765
