25
Energy: -603670.255298 eV PBE+vdW (tier 2 basis)
N    -0.841286  0.767080  0.243105
C    -0.419038  -0.079421  1.408000
C    1.092606  0.122709  1.686638
O    1.609097  1.299556  1.376352
H    -0.728323  0.234986  -0.628671
H    -1.842418  0.978691  0.302690
H    -0.924202  0.355444  2.287310
C    -0.824645  -1.566416  1.269047
C    -1.458575  -2.198470  2.527922
C    -0.650016  -2.271850  3.837119
C    0.338983  -3.420319  4.015597
N    1.531036  -3.355433  3.066950
H    0.041652  -2.135768  0.903291
H    -1.582246  -1.642705  0.475077
H    -1.803484  -3.207589  2.254762
H    -2.379693  -1.637444  2.747008
H    -1.371462  -2.408960  4.656286
H    -0.147072  -1.319360  4.063348
H    -0.133330  -4.399336  3.870104
H    0.755154  -3.394737  5.028899
H    2.378755  -3.735941  3.504878
H    1.365861  -3.902500  2.214915
O    1.763788  -0.749872  2.217046
H    1.711131  -2.360081  2.773422
Pb    0.635728  2.775734  0.149905
