25
Energy: -603669.007372 eV PBE+vdW (tier 2 basis)
N    -0.224925  0.789785  1.024016
C    -0.620032  0.030639  2.284865
C    0.638021  -0.169968  3.129406
O    0.563485  -0.886253  4.176946
H    0.035529  0.120528  0.276480
H    -1.000193  1.368668  0.675202
H    -1.256258  0.718255  2.865415
C    -1.418447  -1.242731  1.973710
C    -0.698158  -2.375381  1.223792
C    -0.345695  -2.111702  -0.249684
C    0.000787  -3.405849  -1.016068
N    0.367432  -3.128218  -2.384726
H    -2.330320  -0.942366  1.433325
H    -1.766563  -1.614965  2.947411
H    -1.375546  -3.241059  1.265325
H    0.201152  -2.688230  1.778213
H    0.543784  -1.458911  -0.362256
H    -1.190241  -1.620102  -0.763032
H    -0.865900  -4.091880  -0.939003
H    0.844963  -3.909522  -0.525712
H    1.008502  -3.792058  -2.810505
H    -0.399966  -2.907114  -3.015481
O    1.718836  0.432133  2.804610
H    0.594956  1.390454  1.211925
Pb    2.755680  -0.372170  4.815043
