25
Energy: -603670.344819 eV PBE+vdW (tier 2 basis)
N    1.797265  -0.254494  0.731423
C    0.478712  -0.159083  1.437728
C    0.639377  -0.526994  2.935702
O    1.808565  -0.265055  3.494566
H    1.947335  -1.212285  0.392050
H    1.794361  0.335946  -0.106458
H    0.218251  0.912763  1.443156
C    -0.667423  -0.928870  0.771191
C    -0.523195  -2.467840  0.749141
C    -1.859262  -3.231609  0.881129
C    -2.274263  -3.634935  2.293840
N    -2.598496  -2.463931  3.205009
H    -0.808177  -0.547634  -0.250305
H    -1.575746  -0.621853  1.307920
H    0.155734  -2.810864  1.547666
H    -0.054036  -2.773082  -0.195826
H    -1.786547  -4.180690  0.331599
H    -2.671684  -2.677217  0.384689
H    -1.478878  -4.195717  2.801133
H    -3.169957  -4.266753  2.266232
H    -3.385675  -1.913091  2.839920
H    -2.872384  -2.796447  4.139056
O    -0.293376  -0.986587  3.578787
H    -1.765577  -1.827772  3.326629
Pb    3.569767  0.310315  2.395658
