25
Energy: -603670.373199 eV PBE+vdW (tier 2 basis)
N    1.187864  0.045116  0.402692
C    0.205730  -0.153429  1.554190
C    0.880537  -1.082608  2.561887
O    0.375415  -1.197952  3.716178
H    0.700479  0.178993  -0.494164
H    1.797805  0.860682  0.553471
H    0.041553  0.828873  2.014692
C    -1.140372  -0.717854  1.049464
C    -1.162277  -2.181720  0.568865
C    -1.211158  -3.235162  1.708808
C    -0.068385  -4.261114  1.691328
N    0.368099  -4.620839  3.087605
H    -1.490622  -0.046121  0.249532
H    -1.859175  -0.580452  1.869720
H    -0.314467  -2.389956  -0.105141
H    -2.050010  -2.291564  -0.065367
H    -2.169162  -3.768345  1.663659
H    -1.218557  -2.719963  2.679724
H    0.814879  -3.870288  1.172108
H    -0.369130  -5.180462  1.170680
H    -0.460868  -4.834340  3.656333
H    0.896420  -5.501734  3.057141
O    1.886207  -1.771634  2.178768
H    1.799289  -0.789954  0.346588
Pb    1.823812  -2.986957  4.280201
