25
Energy: -603670.224535 eV PBE+vdW (tier 2 basis)
N    0.688792  -1.693833  3.297993
C    0.250653  -1.752513  1.890751
C    1.330180  -2.240488  0.935107
O    0.997609  -2.652795  -0.238134
H    0.762906  -2.637231  3.687021
H    1.635546  -1.303707  3.344570
H    -0.568671  -2.483473  1.811421
C    -0.294283  -0.385027  1.406227
C    -1.635199  -0.012042  2.086518
C    -1.651658  1.278777  2.921283
C    -0.667108  1.363116  4.083649
N    -0.733154  0.132007  4.961961
H    -0.436008  -0.434249  0.319625
H    0.478393  0.380811  1.579112
H    -1.984199  -0.859359  2.698791
H    -2.404895  0.097718  1.312513
H    -2.673023  1.430250  3.303469
H    -1.449975  2.148666  2.278869
H    -0.873482  2.238203  4.710089
H    0.376403  1.428621  3.749389
H    -0.214311  0.269022  5.837710
H    -1.702044  -0.101050  5.213279
O    2.570151  -2.232337  1.272400
H    -0.286197  -0.683613  4.417974
Pb    3.166573  -3.112471  -0.793586
