25
Energy: -603670.071601 eV PBE+vdW (tier 2 basis)
N    -0.047882  -2.909027  2.220284
C    0.117229  -1.775091  1.310526
C    1.134434  -2.176764  0.254685
O    2.404606  -2.117416  0.486253
H    -0.516766  -3.707843  1.796247
H    0.824039  -3.209551  2.656220
H    -0.837425  -1.629773  0.785346
C    0.507378  -0.498183  2.069736
C    -0.563852  -0.075815  3.087375
C    -0.120145  1.131861  3.926513
C    -1.012334  1.467205  5.114400
N    -2.392766  1.963248  4.686754
H    0.686505  0.310438  1.344804
H    1.464289  -0.667364  2.587782
H    -0.780155  -0.930592  3.745871
H    -1.498028  0.145418  2.540889
H    0.016694  2.026584  3.296488
H    0.871130  0.930959  4.361552
H    -0.587253  2.270482  5.727654
H    -1.194883  0.596465  5.756852
H    -2.976358  2.195113  5.502893
H    -2.320525  2.811026  4.106689
O    0.734137  -2.679983  -0.865715
H    -2.895681  1.252706  4.137991
Pb    2.877609  -3.000104  -1.573092
