25
Energy: -603669.726148 eV PBE+vdW (tier 2 basis)
N    0.788367  0.491685  -0.515507
C    -0.002940  0.156319  0.656813
C    1.079491  0.078830  1.732687
O    1.337144  1.117514  2.450881
H    -2.738043  -2.488139  -0.998450
H    0.406154  1.231933  -1.094854
H    -0.622016  1.026298  0.915459
C    -0.890181  -1.098990  0.542703
C    -1.741089  -1.372106  1.790905
C    -2.593389  -2.653270  1.782017
C    -3.797997  -2.685298  0.843480
N    -3.437970  -3.114850  -0.578510
H    -0.251780  -1.967918  0.312024
H    -1.524505  -0.907039  -0.341876
H    -2.395828  -0.508691  1.989483
H    -1.075958  -1.447647  2.664562
H    -3.010455  -2.787127  2.790558
H    -1.964542  -3.545021  1.617760
H    -4.286509  -1.706891  0.750905
H    -4.547002  -3.412154  1.178600
H    -3.045496  -4.066831  -0.586666
H    -4.266654  -3.117880  -1.190629
O    1.821052  -0.968993  1.860977
H    1.098054  -0.303236  -1.067548
Pb    3.236093  0.175500  3.268224
