25
Energy: -603670.023043 eV PBE+vdW (tier 2 basis)
N    -0.632009  -1.225697  0.555920
C    0.221193  -0.126282  1.009043
C    1.588976  -0.318531  0.379222
O    2.472911  -1.107193  0.895827
H    -0.967333  -0.145498  7.234755
H    -0.902967  -1.157314  -0.423695
H    -0.185388  0.802675  0.584615
C    0.238669  -0.029243  2.543400
C    -1.126076  0.447962  3.063021
C    -1.268154  0.541368  4.594100
C    -1.438283  -0.814706  5.268608
N    -1.731297  -0.643469  6.756037
H    1.026366  0.673985  2.854705
H    0.516587  -1.012768  2.954312
H    -1.919164  -0.196079  2.654870
H    -1.319770  1.453504  2.662718
H    -2.155572  1.157517  4.811054
H    -0.401978  1.070136  5.025010
H    -0.542837  -1.444955  5.209836
H    -2.287831  -1.374452  4.857490
H    -1.858252  -1.549071  7.229663
H    -2.590423  -0.093652  6.902349
O    1.852453  0.244463  -0.754588
H    -0.242825  -2.148845  0.745987
Pb    3.922003  -0.687854  -0.835260
