25
Energy: -603668.516275 eV PBE+vdW (tier 2 basis)
N    -0.138694  -0.131778  0.057813
C    0.352236  -0.082422  1.469532
C    1.885110  -0.156632  1.455830
O    2.550857  0.058070  0.420588
H    -0.385053  -1.099968  -0.182283
H    -1.012925  0.397743  -0.016786
H    0.130478  0.933954  1.844201
C    -0.329095  -1.108535  2.400088
C    -1.854061  -0.920117  2.504204
C    -2.507756  -1.704738  3.652761
C    -2.532339  -3.231133  3.469129
N    -3.224314  -3.869979  4.553622
H    0.086103  -0.988716  3.416295
H    -0.064499  -2.127557  2.074907
H    -2.339578  -1.198482  1.554116
H    -2.067520  0.149084  2.663143
H    -3.543294  -1.346315  3.751051
H    -2.012277  -1.465595  4.605952
H    -1.516222  -3.651906  3.431730
H    -3.002822  -3.465792  2.487965
H    -4.182236  -3.586484  4.743159
H    -3.054364  -4.858132  4.713946
O    2.553441  -0.395784  2.548704
H    1.982111  -0.581251  3.322050
Pb    1.624361  0.627994  -1.593607
