25
Energy: -603668.629379 eV PBE+vdW (tier 2 basis)
N    -0.440140  -0.934536  -0.256600
C    0.139024  -0.471060  1.038526
C    1.521517  0.103568  0.763254
O    2.229926  -0.322786  -0.175488
H    -1.180719  -1.619975  -0.069919
H    -0.895225  -0.156931  -0.749953
H    -0.506234  0.302459  1.482315
C    0.264684  -1.682488  2.005633
C    0.853104  -1.416912  3.394567
C    0.050724  -0.445874  4.273130
C    0.534505  -0.457514  5.740627
N    0.332598  -1.741518  6.364430
H    0.868511  -2.457125  1.494766
H    -0.752654  -2.092336  2.114552
H    1.904704  -1.096238  3.321374
H    0.883258  -2.385777  3.916674
H    -1.019445  -0.708632  4.246343
H    0.111495  0.599094  3.917868
H    -0.000977  0.349050  6.277329
H    1.604239  -0.212503  5.787273
H    1.006911  -2.012081  7.074731
H    -0.619989  -1.968633  6.640809
O    2.041298  1.009932  1.543809
H    1.433053  1.308420  2.251065
Pb    1.415923  -1.852066  -1.681219
