25
Energy: -603668.507753 eV PBE+vdW (tier 2 basis)
N    0.412791  -0.566475  0.182253
C    0.198235  -0.458374  1.657625
C    1.554838  -0.319896  2.339675
O    2.606928  -0.752107  1.816466
H    -0.350293  -1.113785  -0.231336
H    0.358384  0.360678  -0.255496
H    -0.397162  0.442069  1.874437
C    -0.552981  -1.717890  2.173681
C    -0.789301  -1.814808  3.690481
C    -1.591907  -0.678709  4.346845
C    -3.089685  -0.664579  3.994912
N    -3.769326  0.416004  4.662716
H    0.008933  -2.609372  1.848102
H    -1.514288  -1.736317  1.636610
H    0.172826  -1.935044  4.210491
H    -1.314697  -2.765750  3.863439
H    -1.188838  0.326499  4.109451
H    -1.487102  -0.781373  5.436923
H    -3.513696  -1.656911  4.257668
H    -3.247626  -0.540660  2.912898
H    -4.676732  0.681184  4.289107
H    -3.770451  0.393128  5.680492
O    1.654088  0.217551  3.521964
H    0.793536  0.521404  3.884641
Pb    2.686504  -1.541927  -0.325276
