25
Energy: -603668.591062 eV PBE+vdW (tier 2 basis)
N    0.463177  -0.872093  -0.393623
C    0.067729  -0.390835  0.963477
C    1.255397  -0.564733  1.901694
O    2.111712  -1.457757  1.719142
H    0.894718  -0.112374  -0.933296
H    -0.378382  -1.141396  -0.915414
H    -0.206129  0.674175  0.913723
C    -1.139387  -1.224482  1.476643
C    -1.679224  -0.894310  2.875651
C    -2.171220  0.547452  3.064007
C    -2.906618  0.737354  4.408094
N    -3.303096  2.105665  4.606030
H    -0.854954  -2.291321  1.441243
H    -1.942542  -1.082456  0.735630
H    -0.939265  -1.155352  3.648788
H    -2.521175  -1.581674  3.046488
H    -2.845271  0.827532  2.238297
H    -1.346766  1.285728  3.037079
H    -2.253752  0.442393  5.240896
H    -3.774029  0.046486  4.426823
H    -4.067297  2.459332  4.035868
H    -3.342803  2.442352  5.563498
O    1.380357  0.178560  2.965930
H    0.677563  0.857744  3.047142
Pb    2.123966  -2.754763  -0.173712
