25
Energy: -603669.83543 eV PBE+vdW (tier 2 basis)
N    -0.997896  0.852276  1.075869
C    -0.086260  -0.171793  1.657508
C    0.776117  -0.741386  0.534880
O    0.340883  -0.820813  -0.631432
H    -1.803064  0.967255  1.701777
H    -0.529437  1.765488  1.059942
H    0.540851  0.302907  2.427283
C    -0.841571  -1.389159  2.279536
C    -2.180198  -1.088926  2.995749
C    -3.450909  -1.617456  2.308330
C    -3.924304  -0.999251  0.992071
N    -3.132185  -1.424513  -0.233126
H    -0.139612  -1.848585  2.987047
H    -0.998965  -2.151748  1.503425
H    -2.292200  -0.017161  3.236199
H    -2.135814  -1.563250  3.984699
H    -4.282917  -1.477527  3.014364
H    -3.373072  -2.710554  2.182812
H    -3.928341  0.101205  1.039604
H    -4.966866  -1.297259  0.823780
H    -2.650198  -2.308700  -0.037339
H    -3.797971  -1.659344  -0.978271
O    1.951979  -1.252429  0.778856
H    2.260099  -1.134928  1.700384
Pb    -1.630592  0.249955  -1.258705
