25
Energy: -603668.610647 eV PBE+vdW (tier 2 basis)
N    -0.078069  0.412111  0.670063
C    0.169217  -0.011989  2.079656
C    1.647820  -0.348061  2.244608
O    2.365684  -0.674292  1.274664
H    -1.040341  0.166736  0.412287
H    -0.025131  1.434000  0.591681
H    -0.085340  0.816370  2.761244
C    -0.675947  -1.258835  2.453382
C    -2.183725  -0.983567  2.555852
C    -2.957658  -2.236327  2.989871
C    -4.471466  -1.977041  3.122846
N    -5.174685  -3.162427  3.525754
H    -0.313663  -1.640307  3.419757
H    -0.469308  -2.058649  1.721297
H    -2.588951  -0.633215  1.589814
H    -2.356397  -0.167049  3.275264
H    -2.566163  -2.591539  3.956339
H    -2.805926  -3.053410  2.269151
H    -4.889014  -1.642243  2.163001
H    -4.629639  -1.145262  3.842143
H    -4.981521  -3.548200  4.446062
H    -6.143170  -3.263369  3.238606
O    2.203127  -0.366680  3.426332
H    1.615044  -0.074946  4.151889
Pb    1.654055  -0.569193  -0.896207
