25
Energy: -603669.814695 eV PBE+vdW (tier 2 basis)
N    2.244338  -2.725857  2.337851
C    1.029673  -2.057180  1.886603
C    1.312703  -1.957500  0.389481
O    2.068382  -1.024146  -0.084419
H    2.960473  -2.096544  2.691784
H    2.086809  -3.501769  2.973239
H    0.188420  -2.756154  1.993063
C    0.714157  -0.721320  2.578793
C    -0.628355  -0.090668  2.179729
C    -0.873421  1.302700  2.789969
C    -1.158205  1.361495  4.287191
N    -2.572970  0.888483  4.617061
H    1.530451  -0.011702  2.370231
H    0.747817  -0.927855  3.659888
H    -1.454780  -0.784266  2.418823
H    -0.671425  0.029769  1.086818
H    -1.685339  1.816049  2.249514
H    0.015247  1.930631  2.626334
H    -1.097566  2.387824  4.667561
H    -0.483716  0.734466  4.882985
H    -2.755881  0.922481  5.630077
H    -3.277145  1.482532  4.156021
O    0.895763  -2.883542  -0.405821
H    -2.734993  -0.078556  4.304580
Pb    2.224563  -2.127374  -2.087355
