25
Energy: -603669.876153 eV PBE+vdW (tier 2 basis)
N    -0.183839  -3.253126  1.365727
C    -0.587006  -2.042088  0.666797
C    0.622034  -1.775767  -0.222542
O    1.715389  -1.259383  0.232034
H    -0.922919  -3.941800  1.468163
H    0.308721  -3.104813  2.241372
H    -1.383887  -2.321661  -0.034920
C    -1.114079  -0.847391  1.493305
C    -0.271182  -0.379641  2.687983
C    -1.030980  0.669266  3.521772
C    -0.236577  1.108693  4.744959
N    -1.023249  2.113069  5.581417
H    -2.106200  -1.158652  1.856529
H    -1.295072  -0.003525  0.807992
H    0.688451  0.035285  2.346598
H    -0.031911  -1.236189  3.338475
H    -1.996238  0.243561  3.842684
H    -1.261103  1.544975  2.892922
H    0.703706  1.607515  4.479272
H    -0.008467  0.271949  5.417075
H    -0.493394  2.415687  6.411320
H    -1.254773  2.956122  5.036754
O    0.589185  -2.164714  -1.453028
H    -1.911956  1.709960  5.911612
Pb    2.781344  -1.711334  -1.757270
