25
Energy: -603668.540205 eV PBE+vdW (tier 2 basis)
N    0.275938  0.218201  0.233871
C    0.336405  -0.161575  1.676612
C    1.664798  -0.860979  1.949255
O    2.312249  -1.430485  1.044969
H    -0.704438  0.210841  -0.069996
H    0.593396  1.185982  0.108065
H    0.279736  0.748844  2.296032
C    -0.826647  -1.114060  2.061734
C    -2.208854  -0.440518  2.016057
C    -3.374987  -1.390081  2.338378
C    -3.475492  -1.811390  3.814644
N    -4.635426  -2.630167  4.038066
H    -0.627941  -1.497131  3.073145
H    -0.799533  -1.994625  1.396841
H    -2.400326  -0.023170  1.012918
H    -2.219585  0.418909  2.705656
H    -3.323713  -2.292644  1.710757
H    -4.306422  -0.876191  2.057719
H    -3.491151  -0.896024  4.446526
H    -2.596069  -2.391633  4.131520
H    -4.649800  -3.215341  4.868022
H    -5.544860  -2.237307  3.807927
O    2.142971  -0.939975  3.161814
H    1.624187  -0.449406  3.830862
Pb    1.760172  -1.271142  -1.172509
