25
Energy: -603669.935245 eV PBE+vdW (tier 2 basis)
N    -0.608924  -0.368605  3.534435
C    -0.020843  -0.758054  2.261548
C    1.199104  0.154087  2.203326
O    2.345453  -0.283016  2.601507
H    -3.621475  -2.249857  -3.280687
H    -0.885712  -1.133804  4.139568
H    0.373079  -1.778685  2.364994
C    -0.930908  -0.669884  1.019885
C    -2.081513  -1.683363  1.104284
C    -3.179969  -1.549066  0.032638
C    -2.728331  -1.968818  -1.361473
N    -3.904676  -1.963374  -2.332829
H    -0.314410  -0.840089  0.122406
H    -1.325398  0.356018  0.940302
H    -2.579483  -1.573105  2.077995
H    -1.680015  -2.709374  1.088902
H    -3.552814  -0.511975  0.008692
H    -4.026808  -2.184591  0.338397
H    -2.331340  -2.991823  -1.376447
H    -1.978531  -1.295860  -1.794385
H    -4.645038  -2.609172  -2.021888
H    -4.328846  -1.027393  -2.404038
O    1.091230  1.394192  1.861079
H    -1.320208  0.354907  3.478855
Pb    3.249376  1.797704  2.513933
