25
Energy: -603669.087711 eV PBE+vdW (tier 2 basis)
N    -0.759626  0.401198  0.413509
C    -0.365187  0.496503  1.880758
C    1.133788  0.765982  1.949327
O    1.639961  1.122452  3.060620
H    -1.680355  -0.066384  0.335113
H    -0.823835  1.323105  -0.039852
H    -0.899593  1.358531  2.305269
C    -0.750615  -0.792793  2.634077
C    -2.252000  -0.988317  2.896613
C    -3.162590  -1.214765  1.679812
C    -4.553504  -1.761875  2.087554
N    -4.449705  -3.061387  2.712574
H    -0.230471  -0.743852  3.600993
H    -0.325503  -1.659758  2.099854
H    -2.631218  -0.145271  3.495106
H    -2.340736  -1.879275  3.536183
H    -2.704253  -1.936839  0.979031
H    -3.364663  -0.276405  1.126463
H    -5.197822  -1.778083  1.190121
H    -5.018335  -1.066927  2.799532
H    -4.371151  -3.853951  2.079659
H    -5.121166  -3.249467  3.451477
O    1.854477  0.598538  0.906255
H    -0.051492  -0.143112  -0.104279
Pb    3.802079  1.195806  2.175140
