25
Energy: -603670.018828 eV PBE+vdW (tier 2 basis)
N    -0.748610  -0.523606  3.458633
C    0.121465  -0.779969  2.307319
C    1.370435  0.082904  2.438510
O    1.345288  1.342967  2.153956
H    -3.472042  -3.834520  0.667752
H    -0.338174  -0.831533  4.340062
H    0.461651  -1.823175  2.374966
C    -0.590936  -0.551492  0.966356
C    -1.760225  -1.512703  0.671021
C    -3.087324  -1.159865  1.364997
C    -4.311812  -1.879176  0.815463
N    -4.285334  -3.380014  1.104462
H    0.155318  -0.666977  0.166704
H    -0.937505  0.491912  0.905881
H    -1.442173  -2.539450  0.924197
H    -1.918906  -1.500553  -0.418893
H    -3.298272  -0.088859  1.220888
H    -3.011074  -1.298700  2.453955
H    -4.398151  -1.789063  -0.275173
H    -5.238233  -1.508627  1.269799
H    -4.237201  -3.561920  2.116764
H    -5.130224  -3.845829  0.744600
O    2.457643  -0.421729  2.915543
H    -1.009861  0.460045  3.540539
Pb    3.549257  1.577931  2.728699
