25
Energy: -603668.515621 eV PBE+vdW (tier 2 basis)
N    -0.129868  0.505679  0.368726
C    -0.130992  0.035842  1.787094
C    1.305302  -0.007946  2.301555
O    2.286783  -0.075433  1.530503
H    -0.906945  0.057576  -0.129673
H    -0.327180  1.512011  0.331531
H    -0.702620  0.750457  2.402244
C    -0.771498  -1.369297  1.928302
C    -2.266851  -1.391175  1.559371
C    -3.011204  -2.645126  2.046806
C    -2.608202  -3.958508  1.357604
N    -3.413683  -5.052182  1.824719
H    -0.655581  -1.687027  2.975727
H    -0.191634  -2.089767  1.328388
H    -2.403250  -1.298739  0.467274
H    -2.757670  -0.513618  2.007812
H    -4.085459  -2.474842  1.880261
H    -2.885273  -2.757334  3.134138
H    -1.556534  -4.213488  1.557739
H    -2.694187  -3.826077  0.255398
H    -3.064655  -5.995982  1.689580
H    -4.423470  -4.975655  1.733389
O    1.555691  -0.032370  3.582218
H    0.763358  0.053085  4.150306
Pb    2.112607  0.132711  -0.740471
