25
Energy: -603668.59896 eV PBE+vdW (tier 2 basis)
N    1.241194  0.230278  0.685087
C    0.515187  -0.073666  1.957418
C    1.538723  -0.314826  3.070352
O    2.748196  -0.022990  2.945927
H    1.289078  -0.627321  0.119926
H    0.689950  0.893635  0.130928
H    -0.000671  0.855268  2.259418
C    -0.541932  -1.191530  1.808820
C    -0.002295  -2.586887  1.467655
C    -1.136172  -3.614751  1.320984
C    -0.636596  -5.042605  1.052440
N    0.101043  -5.585980  2.172959
H    -1.262463  -0.854337  1.047550
H    -1.141241  -1.229810  2.735707
H    0.700996  -2.938247  2.240648
H    0.566104  -2.565241  0.519817
H    -1.805676  -3.323280  0.498381
H    -1.754527  -3.615085  2.233502
H    0.015006  -5.063576  0.167331
H    -1.516832  -5.667513  0.802420
H    -0.449470  -5.792183  3.004902
H    0.734208  -6.351760  1.955361
O    1.159676  -0.787596  4.224158
H    0.207049  -1.012329  4.256418
Pb    3.601113  1.007935  1.091733
