25
Energy: -603669.930369 eV PBE+vdW (tier 2 basis)
N    -0.047748  -3.114715  2.153241
C    -0.246853  -2.172300  1.065684
C    0.929360  -2.144160  0.123400
O    1.739059  -3.145491  0.067092
H    0.573693  -3.880360  1.894489
H    -0.932033  -3.521905  2.453962
H    -1.056217  -2.489231  0.365597
C    -0.669622  -0.776386  1.588806
C    0.354314  -0.138661  2.535941
C    -0.151140  1.112281  3.282329
C    -1.114908  0.776377  4.415348
N    -1.528104  2.035856  5.169769
H    -1.631510  -0.937454  2.099103
H    -0.878586  -0.116351  0.735496
H    1.240526  0.167019  1.961196
H    0.696234  -0.893869  3.259302
H    -0.632769  1.805645  2.572953
H    0.720069  1.640008  3.701966
H    -0.658591  0.113310  5.160939
H    -2.048521  0.318488  4.067561
H    -1.999958  2.708153  4.548204
H    -2.172903  1.823342  5.944309
O    1.104323  -1.159570  -0.693850
H    -0.709050  2.515103  5.570869
Pb    2.850936  -2.232130  -1.709708
