25
Energy: -603669.845726 eV PBE+vdW (tier 2 basis)
N    1.321398  0.667668  -0.424943
C    0.320188  0.070419  0.455544
C    1.036996  0.208760  1.796212
O    1.967496  -0.622294  2.131685
H    -5.151759  -2.176833  -0.786575
H    1.931023  -0.014734  -0.870362
H    -0.546434  0.744579  0.496590
C    -0.095989  -1.366823  0.103145
C    -1.328774  -1.922338  0.841062
C    -2.668923  -1.501863  0.206059
C    -3.843832  -2.188909  0.891873
N    -5.163858  -1.870051  0.196870
H    0.761361  -2.029555  0.288035
H    -0.271671  -1.392145  -0.983043
H    -1.310425  -1.629842  1.903758
H    -1.266999  -3.020320  0.832616
H    -2.654314  -1.778866  -0.861027
H    -2.796863  -0.408138  0.253341
H    -3.967306  -1.873623  1.935379
H    -3.750683  -3.282032  0.868968
H    -5.957303  -2.339466  0.656747
H    -5.358637  -0.858771  0.199427
O    0.812604  1.227229  2.555844
H    0.939549  1.312982  -1.109844
Pb    2.664154  0.762962  3.802642
