25
Energy: -603670.191681 eV PBE+vdW (tier 2 basis)
N    -1.026725  0.847690  0.093382
C    -0.667241  -0.071166  1.229247
C    0.754603  0.244772  1.758131
O    1.268439  1.434769  1.475024
H    -0.834450  0.371306  -0.797060
H    -2.036591  1.023383  0.087932
H    -1.342070  0.195113  2.059993
C    -0.902757  -1.548177  0.831209
C    -1.204216  -2.589993  1.933073
C    -0.001928  -3.256965  2.640583
C    0.261869  -2.749351  4.065255
N    1.748315  -2.588432  4.316403
H    -0.061453  -1.893294  0.209468
H    -1.786362  -1.543547  0.175146
H    -1.775030  -3.384086  1.435757
H    -1.901782  -2.165302  2.672050
H    0.896510  -3.115343  2.023374
H    -0.170573  -4.340307  2.683294
H    -0.123367  -3.431484  4.831404
H    -0.165800  -1.756719  4.239691
H    2.266112  -3.455957  4.123891
H    2.089922  -1.840373  3.683613
O    1.346907  -0.560922  2.454389
H    1.949612  -2.315909  5.287530
Pb    0.368053  2.894294  0.181224
