25
Energy: -603670.388087 eV PBE+vdW (tier 2 basis)
N    -0.227790  -0.132801  -0.106042
C    -0.018975  -0.275940  1.395491
C    1.062289  -1.328735  1.621042
O    1.837431  -1.201030  2.613908
H    -1.123222  0.333039  -0.315838
H    0.521556  0.413032  -0.556406
H    0.314131  0.696204  1.778444
C    -1.343990  -0.725811  2.049596
C    -1.235993  -1.059421  3.561507
C    -1.613374  -2.506685  3.932224
C    -0.749828  -3.639534  3.375441
N    0.653341  -3.685356  3.954721
H    -1.721548  -1.598479  1.492567
H    -2.073704  0.083454  1.901481
H    -1.914529  -0.395777  4.110573
H    -0.234340  -0.803866  3.937985
H    -2.642207  -2.706299  3.594462
H    -1.654178  -2.589014  5.029539
H    -0.670456  -3.581113  2.281624
H    -1.224943  -4.601630  3.600459
H    0.765460  -2.918844  4.628509
H    0.757327  -4.541937  4.507651
O    1.068714  -2.357495  0.865579
H    -0.234416  -1.073221  -0.537816
Pb    2.575416  -3.451024  2.411952
