25
Energy: -603670.381164 eV PBE+vdW (tier 2 basis)
N    1.496621  -1.746032  0.111293
C    0.455828  -0.900290  0.779580
C    1.035798  -0.111305  1.972175
O    2.145799  -0.564378  2.532787
H    1.081531  -2.622707  -0.222875
H    1.852434  -1.275393  -0.727886
H    0.106208  -0.148935  0.058861
C    -0.728339  -1.793694  1.228148
C    -1.816924  -1.110183  2.066668
C    -2.621012  -0.002575  1.349443
C    -3.163434  1.057208  2.304676
N    -2.076824  2.060101  2.676841
H    -0.326033  -2.636665  1.814570
H    -1.175029  -2.226157  0.318608
H    -1.364808  -0.725773  2.992438
H    -2.514876  -1.892326  2.395313
H    -3.478735  -0.445191  0.825723
H    -2.031246  0.496288  0.563958
H    -3.521003  0.613309  3.241609
H    -3.986410  1.631908  1.866185
H    -2.029862  2.818018  1.984510
H    -2.252616  2.497462  3.589866
O    0.448168  0.871657  2.400645
H    -1.128254  1.609864  2.687408
Pb    3.392122  -2.100065  1.692571
