25
Energy: -603667.646433 eV PBE+vdW (tier 2 basis)
N    -0.042913  -0.845071  0.606039
C    -0.063897  -0.208310  1.914415
C    1.438606  -0.001254  2.017109
O    1.989625  1.054658  1.552694
H    -0.418185  -1.829844  0.548235
H    -0.344423  -0.251735  -0.163341
H    -0.530209  0.785735  1.885309
C    -0.694595  -1.037680  3.039886
C    -0.268619  -2.527898  3.117526
C    -1.430466  -3.536795  3.006623
C    -2.280486  -3.402643  1.741459
N    -1.463987  -3.360020  0.518813
H    -1.779893  -0.964040  2.886064
H    -0.506081  -0.527684  3.995230
H    0.250571  -2.723322  4.067705
H    0.437965  -2.787267  2.305129
H    -2.093646  -3.434508  3.877432
H    -1.010882  -4.552094  3.065171
H    -2.888180  -2.486264  1.761267
H    -3.000958  -4.239053  1.713909
H    -2.043308  -3.276663  -0.318688
H    -0.884009  -4.195830  0.409115
O    2.261518  -0.903801  2.509453
H    1.769907  -1.689511  2.849784
Pb    4.077889  1.746780  1.554435
