25
Energy: -603667.612211 eV PBE+vdW (tier 2 basis)
N    -0.187266  0.503960  0.121777
C    0.072701  0.066730  1.485286
C    1.599249  -0.011148  1.417237
O    2.318606  0.983212  1.717767
H    -0.650732  -0.178684  -0.472289
H    -0.606204  1.424546  0.033630
H    -0.165574  0.865362  2.200739
C    -0.625204  -1.231772  1.902561
C    -0.320183  -1.684531  3.338551
C    -1.001944  -2.998341  3.753164
C    -2.529364  -2.897183  3.921698
N    -3.092395  -4.120157  4.405637
H    -0.389833  -2.043811  1.185634
H    -1.700747  -1.043458  1.769140
H    -0.603906  -0.882487  4.038717
H    0.766316  -1.822446  3.464915
H    -0.565899  -3.321723  4.710164
H    -0.779651  -3.795969  3.027960
H    -3.034422  -2.645715  2.978103
H    -2.750046  -2.058863  4.621595
H    -2.712103  -4.549205  5.244869
H    -4.066633  -4.334089  4.217177
O    2.225651  -1.069285  0.942374
H    1.607038  -1.805831  0.753273
Pb    4.485658  1.493961  1.363051
