25
Energy: -603668.514499 eV PBE+vdW (tier 2 basis)
N    2.994991  0.462452  1.724829
C    1.859033  0.234824  2.670443
C    2.423042  -0.210964  4.025145
O    3.633080  -0.101339  4.315172
H    2.752612  1.220176  1.078632
H    3.113144  -0.373549  1.139056
H    1.412515  1.224043  2.876044
C    0.760003  -0.691611  2.104151
C    1.208685  -2.131635  1.804507
C    0.050437  -3.094995  1.492561
C    -0.687147  -2.821193  0.170330
N    -1.704248  -3.808123  -0.064427
H    0.353758  -0.200735  1.207783
H    -0.089301  -0.697576  2.810336
H    1.756758  -2.539981  2.669631
H    1.916830  -2.146819  0.956992
H    -0.679761  -3.085392  2.316059
H    0.462124  -4.114601  1.462143
H    0.057768  -2.793761  -0.656022
H    -1.177582  -1.836747  0.177687
H    -2.461060  -3.571464  -0.698642
H    -1.421691  -4.783434  -0.116649
O    1.630645  -0.669981  4.953546
H    0.697921  -0.746994  4.665998
Pb    5.182639  0.856625  2.927488
