25
Energy: -603669.764572 eV PBE+vdW (tier 2 basis)
N    -1.277096  0.385440  2.676509
C    -0.394823  -0.690525  2.261242
C    0.991188  -0.079128  2.453853
O    1.664908  -0.343114  3.519957
H    -3.614382  -2.366218  -3.002383
H    -2.045608  0.127940  3.284340
H    -0.466160  -1.488251  3.013642
C    -0.598333  -1.301575  0.860485
C    -1.897829  -2.129883  0.746258
C    -3.143361  -1.375522  0.240998
C    -3.229400  -1.181495  -1.269137
N    -3.585903  -2.485622  -1.980004
H    0.261336  -1.955383  0.650170
H    -0.557016  -0.501345  0.103949
H    -2.137263  -2.564157  1.727615
H    -1.698022  -3.007703  0.108192
H    -3.186944  -0.372908  0.687640
H    -4.060349  -1.877925  0.589922
H    -2.283720  -0.845728  -1.713408
H    -4.015901  -0.470634  -1.548037
H    -2.903289  -3.227991  -1.771833
H    -4.510957  -2.827320  -1.681931
O    1.469927  0.768734  1.607280
H    -1.535525  1.056287  1.960704
Pb    3.269521  1.172027  2.973978
