25
Energy: -603668.718138 eV PBE+vdW (tier 2 basis)
N    0.550843  -0.091605  0.158018
C    -0.097835  -0.227234  1.500600
C    0.786440  0.363984  2.541515
O    1.762484  1.135296  2.266937
H    0.949217  -0.997552  -0.124567
H    -0.166224  0.116461  -0.546286
H    -1.055973  0.441749  1.484606
C    -0.611559  -1.659580  1.814963
C    -1.880017  -1.682571  2.696642
C    -3.225096  -1.548862  1.951983
C    -3.337973  -0.450380  0.892172
N    -2.792667  0.849953  1.349352
H    0.193595  -2.251407  2.276015
H    -0.841236  -2.154709  0.859811
H    -1.839179  -0.897208  3.476955
H    -1.892945  -2.628023  3.254224
H    -4.012731  -1.412933  2.707303
H    -3.453774  -2.504520  1.458439
H    -4.392842  -0.363479  0.589726
H    -2.788106  -0.734574  -0.020039
H    -3.038899  1.592651  0.690874
H    -3.208178  1.124544  2.243914
O    0.564027  0.180821  3.810650
H    -0.195048  -0.422178  3.976992
Pb    2.382201  1.582435  0.191539
