25
Energy: -603670.031942 eV PBE+vdW (tier 2 basis)
N    -0.303873  -1.338405  3.371733
C    0.199464  -0.992614  2.050582
C    1.204786  0.107143  2.375652
O    0.815618  1.310895  2.632320
H    -5.380054  -1.387320  -1.470002
H    -0.357513  -2.331204  3.570341
H    0.793765  -1.838694  1.678309
C    -0.839984  -0.574209  0.994924
C    -1.748750  -1.741246  0.585689
C    -2.821939  -1.330282  -0.437803
C    -3.697040  -2.517820  -0.820499
N    -4.760939  -2.122917  -1.839417
H    -0.312360  -0.183497  0.110031
H    -1.438627  0.260219  1.393514
H    -2.239634  -2.156386  1.479635
H    -1.133993  -2.551796  0.162558
H    -2.336227  -0.920663  -1.338745
H    -3.447515  -0.527132  -0.014844
H    -4.241191  -2.929140  0.038865
H    -3.120674  -3.327254  -1.285733
H    -4.335634  -1.759346  -2.704193
H    -5.353289  -2.924727  -2.099103
O    2.456654  -0.179129  2.490521
H    -1.144242  -0.842996  3.655734
Pb    2.933189  1.904520  3.261931
