25
Energy: -603670.195487 eV PBE+vdW (tier 2 basis)
N    -0.240891  0.402708  1.209289
C    0.444929  -0.886658  1.376263
C    1.101239  -1.423521  0.114222
O    1.937004  -2.399268  0.202813
H    0.348087  1.065585  0.698674
H    -1.086191  0.290902  0.642064
H    1.268513  -0.748833  2.096708
C    -0.509600  -1.984783  1.923394
C    -1.413852  -1.542110  3.081581
C    -0.709014  -1.011056  4.354338
C    -1.176588  0.375323  4.778795
N    -0.657426  1.448757  3.833604
H    0.108319  -2.841809  2.223280
H    -1.155497  -2.334846  1.102847
H    -2.025487  -2.414287  3.347124
H    -2.140115  -0.799957  2.716083
H    0.388831  -1.018671  4.253698
H    -0.912405  -1.681214  5.199715
H    -0.833604  0.639836  5.785628
H    -2.271006  0.445929  4.763892
H    -1.239695  2.294190  3.868597
H    0.291798  1.731874  4.104623
O    0.821524  -0.934824  -1.040590
H    -0.600669  1.095404  2.811513
Pb    2.230796  -2.462671  -2.066153
