25
Energy: -603669.745072 eV PBE+vdW (tier 2 basis)
N    0.945603  -3.131580  2.515871
C    0.291886  -2.195376  1.635312
C    0.875906  -2.123583  0.223890
O    0.564298  -1.175078  -0.593988
H    1.959239  -3.032281  2.538518
H    0.717317  -4.104072  2.323619
H    -0.739193  -2.559031  1.460636
C    0.164957  -0.796551  2.307019
C    -0.710863  -0.901363  3.567290
C    -0.612982  0.226976  4.606668
C    -1.362177  1.522969  4.326797
N    -0.645895  2.415685  3.312604
H    -0.242532  -0.093031  1.561654
H    1.179692  -0.453626  2.570807
H    -0.412387  -1.827584  4.077250
H    -1.764674  -1.040534  3.275897
H    0.439230  0.445004  4.858557
H    -1.049501  -0.147298  5.544748
H    -1.458833  2.136371  5.230610
H    -2.365494  1.347143  3.918197
H    -1.173520  3.281753  3.133959
H    0.285482  2.685184  3.658660
O    1.668629  -3.054650  -0.182334
H    -0.515466  1.932153  2.414186
Pb    1.727277  -2.205604  -2.297426
