25
Energy: -603667.61234 eV PBE+vdW (tier 2 basis)
N    -0.583708  -0.165398  0.060318
C    -0.162821  0.100322  1.425475
C    1.342183  -0.148452  1.284792
O    2.137829  0.787554  0.994050
H    -0.927453  0.631899  -0.464129
H    -1.155281  -0.993777  -0.072508
H    -0.275855  1.165850  1.669182
C    -0.812912  -0.757914  2.520514
C    -2.217959  -0.309703  2.967070
C    -3.357535  -0.515125  1.960605
C    -4.727437  -0.194291  2.596119
N    -5.818325  -0.410708  1.695675
H    -0.162021  -0.733635  3.409065
H    -0.856409  -1.814365  2.190798
H    -2.172135  0.747828  3.272029
H    -2.448097  -0.872632  3.884075
H    -3.363665  -1.559444  1.606408
H    -3.239064  0.126195  1.075648
H    -4.762618  0.848939  2.938104
H    -4.841291  -0.824537  3.506038
H    -5.979637  -1.341857  1.321861
H    -6.651169  0.164136  1.777001
O    1.863477  -1.357848  1.363195
H    1.201808  -2.031123  1.627117
Pb    4.338290  0.780511  0.468445
