25
Energy: -603670.020122 eV PBE+vdW (tier 2 basis)
N    2.560765  -0.626417  2.890555
C    1.384320  -1.104355  2.165614
C    1.740308  -1.087471  0.690516
O    1.640103  -0.013915  -0.022541
H    -3.395155  2.197621  4.730826
H    3.337010  -1.285224  2.903140
H    1.233826  -2.158280  2.439402
C    0.134119  -0.284078  2.529792
C    -0.211241  -0.471859  4.015552
C    -1.232630  0.517382  4.604239
C    -2.655564  0.302240  4.102945
N    -3.631744  1.202797  4.854341
H    -0.695731  -0.595320  1.876793
H    0.328188  0.777842  2.309512
H    0.714784  -0.360646  4.595556
H    -0.557167  -1.502802  4.192377
H    -0.914370  1.551861  4.394656
H    -1.219749  0.397195  5.699738
H    -3.002810  -0.724744  4.273545
H    -2.781702  0.543029  3.040463
H    -3.608520  1.009127  5.866145
H    -4.601902  1.070876  4.535168
O    2.258715  -2.141142  0.147899
H    2.880958  0.296120  2.597906
Pb    2.540189  -1.082838  -1.842138
