25
Energy: -603669.077383 eV PBE+vdW (tier 2 basis)
N    0.653660  -1.535752  -0.204361
C    0.094956  -0.480876  0.746252
C    1.265720  0.381054  1.215061
O    1.068223  1.260014  2.111275
H    0.894289  -2.390306  0.322348
H    -0.028929  -1.792966  -0.929562
H    -0.540289  0.177903  0.133407
C    -0.752533  -1.118611  1.855649
C    -0.000001  -2.078681  2.785942
C    -0.895646  -2.775545  3.828385
C    -1.445293  -1.873821  4.940976
N    -2.455152  -0.936838  4.469244
H    -1.601234  -1.630627  1.374419
H    -1.201413  -0.301695  2.437928
H    0.809367  -1.539654  3.306399
H    0.494006  -2.885500  2.210756
H    -0.306194  -3.570370  4.305532
H    -1.729112  -3.287569  3.320469
H    -0.629671  -1.295083  5.399674
H    -1.839539  -2.531304  5.740332
H    -3.320379  -1.383867  4.166001
H    -2.674561  -0.198477  5.135893
O    2.409965  0.241275  0.656617
H    1.520053  -1.189451  -0.650599
Pb    3.254454  2.084243  1.923765
