25
Energy: -603668.587749 eV PBE+vdW (tier 2 basis)
N    0.864070  0.318512  0.432373
C    0.333485  0.111435  1.817083
C    1.511090  -0.171531  2.755766
O    2.698607  0.027717  2.419414
H    0.751546  -0.550826  -0.103963
H    0.287840  1.013104  -0.053532
H    -0.062827  1.085059  2.157357
C    -0.813774  -0.931855  1.843804
C    -1.663628  -1.001623  3.128094
C    -2.962554  -1.793121  2.898388
C    -3.800477  -1.947239  4.182074
N    -5.011950  -2.678582  3.932417
H    -0.407396  -1.926814  1.601294
H    -1.486563  -0.657452  1.017063
H    -1.906340  0.013200  3.483432
H    -1.125017  -1.520407  3.946797
H    -2.733166  -2.795267  2.507932
H    -3.562013  -1.280328  2.129692
H    -4.011070  -0.939350  4.599374
H    -3.228133  -2.489284  4.947888
H    -5.406588  -3.217146  4.697254
H    -5.714120  -2.254896  3.331986
O    1.297820  -0.583455  3.971910
H    0.344160  -0.756683  4.148188
Pb    3.326930  0.894590  0.399874
