25
Energy: -603670.259562 eV PBE+vdW (tier 2 basis)
N    0.866452  0.094375  0.391487
C    -0.081703  -0.314183  1.512546
C    0.734589  -1.040213  2.570752
O    0.256228  -1.125091  3.739404
H    0.365334  0.238548  -0.496814
H    1.368624  0.965935  0.613394
H    -0.501182  0.606986  1.935570
C    -1.223225  -1.207720  0.983746
C    -0.854858  -2.546544  0.294532
C    -1.038533  -3.872944  1.068879
C    0.122363  -4.426765  1.912142
N    0.059372  -4.095751  3.393068
H    -1.804430  -0.584583  0.286907
H    -1.899593  -1.371073  1.834991
H    0.164118  -2.523632  -0.127515
H    -1.508728  -2.620316  -0.583701
H    -1.236198  -4.640707  0.308048
H    -1.963092  -3.842630  1.668965
H    1.085261  -4.080384  1.514352
H    0.127716  -5.520142  1.841284
H    -0.794681  -3.561474  3.587975
H    -0.047332  -4.967741  3.920726
O    1.815760  -1.621783  2.219548
H    1.578685  -0.645804  0.266461
Pb    1.875053  -2.747365  4.360247
