25
Energy: -603668.529951 eV PBE+vdW (tier 2 basis)
N    -0.033108  1.058713  -0.626251
C    -0.428097  0.834940  0.798201
C    0.188788  1.931204  1.659482
O    1.208643  2.562853  1.301234
H    -0.009070  0.152846  -1.108773
H    -0.750695  1.610449  -1.111249
H    -1.525491  0.892749  0.887722
C    0.058112  -0.548037  1.317501
C    -0.840104  -1.742629  0.960172
C    -0.961557  -2.116760  -0.522124
C    -1.686629  -3.469787  -0.722056
N    -0.957755  -4.569391  -0.135871
H    0.136932  -0.496548  2.413542
H    1.090749  -0.704600  0.958375
H    -1.843444  -1.578467  1.385010
H    -0.428224  -2.612009  1.494544
H    0.040159  -2.189653  -0.983971
H    -1.539602  -1.367377  -1.090342
H    -1.850226  -3.615944  -1.806046
H    -2.680065  -3.423058  -0.256434
H    -1.513818  -5.320597  0.262510
H    -0.165391  -4.926128  -0.664604
O    -0.292744  2.209684  2.838690
H    -1.101733  1.710745  3.073175
Pb    2.140864  2.330614  -0.765708
