25
Energy: -603668.494511 eV PBE+vdW (tier 2 basis)
N    0.319773  -0.260294  0.088629
C    0.237053  -0.308943  1.584308
C    1.640877  -0.529411  2.150032
O    2.675338  -0.418032  1.450418
H    0.004191  -1.161773  -0.291680
H    -0.346558  0.431105  -0.270118
H    -0.042156  0.703551  1.925372
C    -0.838087  -1.322757  2.060506
C    -1.238030  -1.314567  3.550216
C    -1.784401  0.000137  4.131719
C    -3.191760  0.373964  3.633601
N    -4.153534  -0.660413  3.942687
H    -0.514262  -2.337609  1.779720
H    -1.738605  -1.108157  1.465808
H    -0.436503  -1.722753  4.197964
H    -2.021391  -2.082124  3.650966
H    -1.111485  0.855019  3.950997
H    -1.818695  -0.105587  5.226342
H    -3.204793  0.533061  2.544223
H    -3.462046  1.349916  4.083003
H    -4.320206  -0.823924  4.934546
H    -5.030671  -0.616631  3.429725
O    1.804677  -0.790083  3.411418
H    0.946391  -0.935109  3.877515
Pb    2.665921  0.130917  -0.752562
