25
Energy: -603668.975614 eV PBE+vdW (tier 2 basis)
N    1.073801  0.144234  0.324961
C    0.134085  0.157992  1.524713
C    0.999146  0.280148  2.781189
O    0.444884  0.183105  3.920253
H    1.298040  -0.828885  0.062318
H    0.652885  0.600371  -0.495071
H    -0.438633  1.096932  1.460455
C    -0.817976  -1.043292  1.519888
C    -0.120917  -2.419165  1.452337
C    -0.077697  -3.074483  0.057538
C    -1.425072  -3.691226  -0.371070
N    -1.824314  -4.748990  0.530709
H    -1.529932  -0.915662  0.690672
H    -1.416392  -0.947146  2.435402
H    -0.653705  -3.114417  2.115739
H    0.899251  -2.354386  1.871533
H    0.685967  -3.866316  0.058501
H    0.227155  -2.370834  -0.739985
H    -1.325596  -4.040780  -1.416591
H    -2.220381  -2.931458  -0.378011
H    -2.818915  -4.959347  0.544647
H    -1.274012  -5.603909  0.473462
O    2.248324  0.531466  2.662621
H    1.959492  0.620325  0.570098
Pb    2.429312  0.687810  5.053321
