25
Energy: -603669.726814 eV PBE+vdW (tier 2 basis)
N    -0.663750  1.278965  0.562467
C    -0.298919  0.045774  1.231979
C    1.077679  0.181723  1.843945
O    1.536365  1.350875  2.126978
H    -2.011822  -4.589533  -0.736212
H    -0.400189  2.109145  1.092070
H    -0.924423  -0.179088  2.132699
C    -0.413193  -1.153145  0.249604
C    -0.699930  -2.524778  0.883519
C    -2.164028  -2.749753  1.309269
C    -3.149773  -3.036719  0.180590
N    -2.967926  -4.444296  -0.382937
H    0.501097  -1.201053  -0.355612
H    -1.208184  -0.879070  -0.460048
H    -0.054687  -2.677290  1.758850
H    -0.377669  -3.306495  0.174017
H    -2.551096  -1.860671  1.830404
H    -2.226591  -3.557422  2.056256
H    -3.036911  -2.356162  -0.672712
H    -4.189642  -2.989686  0.524285
H    -3.141252  -5.157891  0.339452
H    -3.617762  -4.626891  -1.160780
O    1.799820  -0.850984  2.121710
H    -1.664319  1.324225  0.376788
Pb    3.507106  0.489220  2.881417
