25
Energy: -603670.036363 eV PBE+vdW (tier 2 basis)
N    -0.497287  -1.296036  0.794295
C    0.497843  -0.443285  1.405643
C    1.855113  -0.425575  0.708225
O    2.635247  0.595852  0.823115
H    -2.132364  -1.089147  6.097015
H    -0.761452  -0.985803  -0.139547
H    0.144508  0.599245  1.355289
C    0.723707  -0.815755  2.899042
C    -0.580628  -0.948624  3.704191
C    -1.392302  0.347819  3.828387
C    -2.747509  0.190528  4.506174
N    -2.623855  -0.192466  5.980135
H    1.388022  -0.067485  3.354935
H    1.250539  -1.780950  2.946641
H    -0.287904  -1.325942  4.698955
H    -1.208007  -1.721899  3.237837
H    -1.628561  0.736801  2.826621
H    -0.809258  1.139355  4.328042
H    -3.351393  -0.599693  4.042308
H    -3.322369  1.123849  4.491117
H    -3.549828  -0.287164  6.420549
H    -2.100763  0.519850  6.508686
O    2.238235  -1.421982  -0.013018
H    -0.195428  -2.268693  0.728288
Pb    4.202691  -0.365801  -0.535927
