25
Energy: -603668.987835 eV PBE+vdW (tier 2 basis)
N    0.419303  -0.591445  -0.028730
C    0.130580  -0.313130  1.443109
C    1.344479  -0.801028  2.228950
O    1.531789  -0.384136  3.413782
H    -0.454782  -0.676928  -0.566753
H    0.992180  0.143721  -0.466723
H    0.034442  0.774074  1.560171
C    -1.179353  -1.029435  1.847552
C    -1.697830  -0.705839  3.258452
C    -2.223615  0.722728  3.474916
C    -3.580292  1.016683  2.815038
N    -4.621971  0.154179  3.326713
H    -1.033270  -2.116049  1.743832
H    -1.942081  -0.739614  1.104748
H    -0.919358  -0.927666  4.000886
H    -2.516979  -1.411826  3.458115
H    -1.499746  1.483988  3.142501
H    -2.321612  0.884314  4.558926
H    -3.538081  0.881579  1.722702
H    -3.810970  2.089663  2.972130
H    -5.481426  0.126507  2.783771
H    -4.819759  0.245633  4.321741
O    2.132682  -1.648887  1.682078
H    0.950326  -1.477779  -0.101071
Pb    3.455939  -1.711508  3.684487
