25
Energy: -603669.872123 eV PBE+vdW (tier 2 basis)
N    -0.771418  0.709374  0.595270
C    0.341285  0.013707  1.217324
C    1.247384  -0.298107  0.025911
O    2.247821  0.467029  -0.244606
H    -2.232873  1.086274  5.703623
H    -1.024441  1.606930  0.988739
H    0.901220  0.731816  1.832043
C    -0.007589  -1.251988  2.020563
C    -0.873608  -1.021104  3.270949
C    -0.167265  -0.264795  4.410502
C    -0.776275  -0.467024  5.792801
N    -2.200982  0.075041  5.894776
H    0.925449  -1.758754  2.315016
H    -0.532361  -1.950870  1.352478
H    -1.180728  -2.015268  3.632968
H    -1.798640  -0.499425  2.970981
H    -0.086832  0.812930  4.195084
H    0.869785  -0.622990  4.505692
H    -0.204667  0.051568  6.571514
H    -0.845057  -1.529333  6.059666
H    -2.589163  -0.073148  6.837255
H    -2.830096  -0.389217  5.225274
O    0.973177  -1.273201  -0.773324
H    -1.572222  0.138646  0.344152
Pb    2.660095  -0.659092  -2.186650
