25
Energy: -603669.925115 eV PBE+vdW (tier 2 basis)
N    -1.059920  -2.112384  1.250192
C    -0.443380  -1.135202  0.361586
C    0.902791  -1.601009  -0.133735
O    1.728284  -0.770280  -0.678912
H    -0.784709  -3.064797  1.007914
H    -2.075893  -2.066714  1.171019
H    -0.984801  -1.041442  -0.610293
C    -0.418273  0.291336  0.957136
C    0.166804  0.415890  2.377577
C    -0.878459  0.248764  3.495834
C    -0.271748  0.508913  4.867942
N    -1.326738  0.404990  5.964847
H    -1.451113  0.668946  0.944282
H    0.140507  0.935876  0.267267
H    0.629393  1.409672  2.468413
H    0.976503  -0.316467  2.524407
H    -1.295017  -0.768936  3.447574
H    -1.703843  0.958833  3.320245
H    0.152679  1.517299  4.954651
H    0.506269  -0.219525  5.128579
H    -2.081835  1.090604  5.820766
H    -1.760631  -0.528835  5.978630
O    1.215785  -2.851206  -0.102945
H    -0.926231  0.576682  6.898009
Pb    3.127578  -2.455009  -1.307984
