25
Energy: -603669.676805 eV PBE+vdW (tier 2 basis)
N    1.577525  -0.586667  -1.223572
C    0.646759  -0.139824  -0.204309
C    1.403236  0.458091  0.957726
O    2.528227  1.047891  0.730977
H    -2.446926  -3.117697  2.715894
H    2.363070  0.051654  -1.345296
H    0.023090  0.733339  -0.526136
C    -0.332213  -1.285266  0.149926
C    -1.612639  -0.886042  0.910924
C    -2.877110  -1.623722  0.431179
C    -2.926350  -3.133456  0.637493
N    -3.176456  -3.499567  2.099262
H    0.231189  -2.075198  0.665460
H    -0.611565  -1.710333  -0.826374
H    -1.811006  0.186582  0.769137
H    -1.465471  -0.994884  1.997473
H    -2.992101  -1.467611  -0.652142
H    -3.775428  -1.166898  0.878143
H    -1.996100  -3.640814  0.352939
H    -3.751624  -3.589187  0.077943
H    -4.079950  -3.124395  2.421891
H    -3.198796  -4.520096  2.235131
O    0.944043  0.447101  2.162195
H    1.116719  -0.696189  -2.126006
Pb    2.796879  1.608189  2.912140
