25
Energy: -603669.827531 eV PBE+vdW (tier 2 basis)
N    2.488869  -2.089086  2.237498
C    1.101737  -1.990800  1.822136
C    1.017655  -1.903014  0.317448
O    0.028822  -1.335730  -0.285704
H    3.043894  -2.675070  1.614638
H    2.567621  -2.467514  3.180422
H    0.513921  -2.924089  2.016525
C    0.401179  -0.845894  2.594747
C    -1.134547  -0.879502  2.605984
C    -1.776086  -0.138720  3.796299
C    -1.530116  1.365376  3.788380
N    -2.245603  2.032618  4.958995
H    0.793140  0.112010  2.223767
H    0.771586  -0.944180  3.627161
H    -1.476789  -1.923037  2.671885
H    -1.540741  -0.490395  1.661862
H    -1.396405  -0.568693  4.738110
H    -2.861405  -0.327199  3.774260
H    -1.919011  1.846706  2.882162
H    -0.470939  1.628080  3.897749
H    -2.094752  3.051361  4.971287
H    -3.262008  1.869129  4.917161
O    1.938654  -2.457212  -0.395703
H    -1.915158  1.659141  5.860523
Pb    0.926479  -1.863283  -2.340589
