25
Energy: -603670.125057 eV PBE+vdW (tier 2 basis)
N    -0.662002  0.567123  -0.251957
C    -0.710154  -0.011722  1.128841
C    -0.101209  0.989687  2.151309
O    -0.308123  2.290779  1.886651
H    0.236811  0.337754  -0.693316
H    -1.377255  0.141863  -0.849178
H    -1.779350  -0.080899  1.390215
C    -0.069569  -1.409746  1.200255
C    -0.348405  -2.186980  2.518019
C    0.936833  -2.513108  3.295467
C    0.739742  -3.089522  4.689651
N    0.185059  -4.515002  4.673329
H    1.016291  -1.303384  1.052418
H    -0.443000  -1.995271  0.348851
H    -0.899322  -3.105246  2.260141
H    -1.012008  -1.598483  3.167747
H    1.492184  -1.576982  3.449926
H    1.598517  -3.170165  2.706883
H    0.035429  -2.499306  5.289629
H    1.689544  -3.152716  5.233451
H    0.811520  -5.151093  4.159946
H    0.083077  -4.886767  5.628395
O    0.474323  0.610713  3.143291
H    -0.739479  -4.561235  4.224572
Pb    -0.843451  3.054708  -0.023537
