25
Energy: -603670.302319 eV PBE+vdW (tier 2 basis)
N    -1.166536  1.104773  0.591154
C    -0.871614  0.096579  1.662275
C    0.551961  0.273138  2.234285
O    1.447680  0.895219  1.480658
H    -1.729663  0.676862  -0.152216
H    -1.749128  1.859127  0.970647
H    -1.560549  0.270255  2.500586
C    -1.099836  -1.336281  1.120950
C    -0.929117  -2.464325  2.160576
C    0.487709  -3.074194  2.218071
C    0.875390  -3.704586  3.550069
N    0.960355  -2.660808  4.667567
H    -0.441230  -1.517776  0.255015
H    -2.131982  -1.362979  0.740931
H    -1.645744  -3.260605  1.921676
H    -1.243597  -2.078463  3.142500
H    1.256727  -2.335323  1.950454
H    0.573718  -3.868774  1.463178
H    1.865543  -4.167909  3.482439
H    0.164059  -4.469950  3.882055
H    0.109121  -2.646569  5.241063
H    1.744397  -2.854458  5.302096
O    0.833471  -0.194851  3.327042
H    1.073565  -1.699623  4.270023
Pb    0.961303  2.076519  -0.249095
