25
Energy: -603668.53828 eV PBE+vdW (tier 2 basis)
N    0.995298  0.192832  0.525199
C    0.686456  -0.366090  1.879549
C    1.941976  -1.047971  2.425671
O    3.077123  -0.859690  1.933317
H    0.652813  -0.458551  -0.192708
H    0.462195  1.056643  0.381991
H    0.523456  0.494567  2.552560
C    -0.591239  -1.245715  1.859079
C    -1.240135  -1.615142  3.209851
C    -1.620362  -0.436803  4.113541
C    -2.450190  -0.885717  5.334621
N    -2.787467  0.225942  6.184783
H    -0.383650  -2.162972  1.285252
H    -1.338521  -0.678177  1.284152
H    -0.648500  -2.365178  3.776204
H    -2.144004  -2.189135  2.953328
H    -2.203915  0.295097  3.531696
H    -0.733161  0.096894  4.492356
H    -1.881502  -1.612554  5.931271
H    -3.354073  -1.416225  4.970510
H    -3.470080  0.892169  5.831884
H    -2.916358  0.025954  7.172422
O    1.866575  -1.816110  3.472640
H    0.935072  -1.960948  3.761740
Pb    3.472620  0.497022  0.142443
