25
Energy: -603669.856729 eV PBE+vdW (tier 2 basis)
N    2.423613  -2.420910  2.550439
C    1.180832  -2.096711  1.873301
C    1.383454  -2.133668  0.377240
O    0.631737  -1.466843  -0.432175
H    2.255478  -2.718176  3.510525
H    2.944397  -3.160004  2.079125
H    0.386572  -2.874090  2.007738
C    0.613232  -0.757627  2.412147
C    -0.899127  -0.569077  2.239987
C    -1.451848  0.748898  2.819635
C    -1.416285  0.803207  4.343572
N    -2.081703  2.075388  4.857656
H    1.168332  0.076096  1.957743
H    0.884671  -0.751984  3.478052
H    -1.437210  -1.417576  2.693490
H    -1.156763  -0.583078  1.173055
H    -2.494945  0.858151  2.482219
H    -0.890469  1.601557  2.403430
H    -0.398703  0.814857  4.751768
H    -1.966559  -0.029509  4.799750
H    -3.065373  2.129904  4.556092
H    -2.069661  2.123777  5.886521
O    2.307283  -2.884436  -0.117139
H    -1.606896  2.917467  4.501951
Pb    1.789937  -2.274615  -2.247121
