25
Energy: -603669.92553 eV PBE+vdW (tier 2 basis)
N    0.841785  -3.019595  2.111779
C    0.243803  -2.002443  1.259365
C    1.233974  -1.941042  0.101802
O    1.002061  -2.616544  -0.971988
H    0.196863  -3.714888  2.471498
H    1.462012  -2.664513  2.833976
H    -0.681104  -2.416529  0.834039
C    -0.053563  -0.633788  1.901958
C    -1.187188  -0.741372  2.932784
C    -1.676555  0.588730  3.537784
C    -0.686433  1.223797  4.507136
N    -1.301281  2.448655  5.177120
H    -0.339513  0.075813  1.108376
H    0.875215  -0.245637  2.350179
H    -0.897466  -1.425875  3.745017
H    -2.059608  -1.205427  2.449573
H    -2.617931  0.385963  4.073596
H    -1.917619  1.299554  2.730447
H    0.230627  1.576865  4.020465
H    -0.410700  0.542655  5.322205
H    -1.571340  3.160340  4.483098
H    -2.152599  2.196917  5.700354
O    2.350786  -1.302694  0.206291
H    -0.649502  2.891872  5.840060
Pb    3.067276  -2.164817  -1.794915
