25
Energy: -603668.616699 eV PBE+vdW (tier 2 basis)
N    0.702291  0.626369  2.134723
C    -0.204316  -0.339842  2.830180
C    0.277281  -0.510618  4.275952
O    1.084695  0.283492  4.807893
H    1.404049  0.101494  1.597745
H    0.166994  1.151833  1.436393
H    -1.187359  0.157222  2.922158
C    -0.390013  -1.668342  2.065358
C    -1.002006  -1.504866  0.666110
C    -1.325776  -2.859287  0.018239
C    -1.878655  -2.727166  -1.410041
N    -0.894952  -2.208487  -2.335762
H    -1.065476  -2.316730  2.651033
H    0.574777  -2.200035  2.014117
H    -0.316893  -0.957136  -0.001251
H    -1.924494  -0.904404  0.738202
H    -2.070931  -3.397373  0.622910
H    -0.424952  -3.494000  0.000126
H    -2.752216  -2.060480  -1.424234
H    -2.244744  -3.724764  -1.724488
H    -1.266066  -1.773227  -3.176885
H    -0.121879  -2.834259  -2.555477
O    -0.181342  -1.471656  5.025307
H    -0.783411  -2.082416  4.551986
Pb    1.947720  2.112156  3.753693
