25
Energy: -603670.134813 eV PBE+vdW (tier 2 basis)
N    2.326859  -0.852507  3.115270
C    1.335513  -1.030619  2.054066
C    2.050976  -0.838956  0.728488
O    2.270257  0.338083  0.240817
H    -4.115670  0.886849  6.304754
H    3.008928  -1.606920  3.171060
H    1.005762  -2.078805  2.082007
C    0.132772  -0.094325  2.247165
C    -0.637874  -0.436437  3.529927
C    -1.771035  0.557952  3.833581
C    -2.498051  0.170635  5.115349
N    -3.623331  1.148382  5.438607
H    -0.528917  -0.172139  1.371035
H    0.489897  0.947010  2.277654
H    0.069019  -0.461387  4.372153
H    -1.057664  -1.451211  3.442463
H    -2.484661  0.583202  2.993358
H    -1.354198  1.573598  3.934799
H    -1.833422  0.176564  5.988249
H    -2.969222  -0.817695  5.044927
H    -4.321758  1.179544  4.682367
H    -3.263901  2.105424  5.563311
O    2.542259  -1.862993  0.111062
H    2.802963  0.048712  3.081846
Pb    3.406500  -0.553959  -1.536315
