25
Energy: -603668.612137 eV PBE+vdW (tier 2 basis)
N    1.038267  0.212328  0.101582
C    1.414104  -0.579522  1.307695
C    2.445482  -1.626759  0.909687
O    2.518002  -2.069605  -0.258205
H    0.093737  0.591593  0.236698
H    1.653917  1.026993  -0.004054
H    1.849050  0.085403  2.070995
C    0.168872  -1.307748  1.886038
C    -0.867570  -0.392275  2.550929
C    -0.418552  0.243278  3.872628
C    -1.571346  0.964218  4.599741
N    -2.623786  0.053891  4.984980
H    0.510766  -2.058384  2.614315
H    -0.295760  -1.880153  1.062483
H    -1.758523  -1.008543  2.746664
H    -1.216867  0.392998  1.855635
H    0.387732  0.978825  3.721787
H    -0.011507  -0.536409  4.537596
H    -2.005086  1.738399  3.951705
H    -1.143237  1.491765  5.474506
H    -2.412524  -0.586150  5.747896
H    -3.554023  0.453171  5.077167
O    3.246329  -2.153404  1.794680
H    3.174139  -1.758238  2.687069
Pb    1.242727  -1.228056  -1.960056
