25
Energy: -603669.843203 eV PBE+vdW (tier 2 basis)
N    -0.005533  0.973793  -0.579311
C    0.022876  0.049071  0.552235
C    1.346276  0.285722  1.265563
O    1.417714  1.172985  2.204129
H    -2.236031  -4.654351  0.157820
H    0.736134  0.815543  -1.261146
H    -0.771256  0.358996  1.246271
C    -0.188149  -1.393824  0.069599
C    -0.636597  -2.389587  1.152947
C    -2.114911  -2.279173  1.575841
C    -3.144252  -2.765771  0.560554
N    -3.154677  -4.288488  0.443877
H    0.740161  -1.753396  -0.396001
H    -0.928457  -1.330856  -0.742128
H    -0.018248  -2.273119  2.055672
H    -0.407077  -3.411247  0.805458
H    -2.374408  -1.230440  1.784360
H    -2.276077  -2.801330  2.532737
H    -2.961733  -2.388037  -0.453132
H    -4.163162  -2.486489  0.852786
H    -3.394919  -4.728046  1.343994
H    -3.845216  -4.607946  -0.250282
O    2.437268  -0.289186  0.877892
H    -0.040212  1.956659  -0.313735
Pb    3.676485  0.923514  2.376003
