25
Energy: -603670.421617 eV PBE+vdW (tier 2 basis)
N    -0.876773  0.677448  0.037538
C    -0.565093  0.113823  1.391644
C    0.941970  0.319897  1.709967
O    1.507588  1.409648  1.214610
H    -0.706631  -0.035089  -0.683241
H    -1.874594  0.901319  -0.032309
H    -1.105458  0.750006  2.113209
C    -1.006580  -1.348051  1.570081
C    -1.194479  -1.728176  3.056809
C    -0.923638  -3.202684  3.397482
C    0.499691  -3.707574  3.171275
N    1.531172  -2.849582  3.880155
H    -0.263743  -1.994309  1.078483
H    -1.955658  -1.507402  1.038834
H    -2.226989  -1.500347  3.354363
H    -0.568984  -1.082744  3.691295
H    -1.581110  -3.860065  2.809046
H    -1.205238  -3.375658  4.447509
H    0.792876  -3.704054  2.114377
H    0.612701  -4.730841  3.547198
H    1.313100  -2.743937  4.879595
H    2.469444  -3.264511  3.814245
O    1.564353  -0.462638  2.411462
H    1.566782  -1.899639  3.436042
Pb    0.646248  2.614199  -0.346971
