25
Energy: -603670.383543 eV PBE+vdW (tier 2 basis)
N    0.316533  0.006563  -0.072154
C    -0.215180  0.050664  1.357546
C    0.350204  -1.171448  2.086893
O    0.295617  -2.299744  1.493646
H    -0.191025  0.670809  -0.675620
H    1.319457  0.237941  -0.126646
H    0.160921  0.972122  1.818730
C    -1.757109  0.016077  1.296621
C    -2.529440  0.160486  2.625653
C    -2.321575  -0.897011  3.727443
C    -2.510530  -2.356790  3.293171
N    -1.644990  -3.283579  4.105686
H    -2.058092  -0.903596  0.769839
H    -2.072632  0.857108  0.658304
H    -3.591866  0.190964  2.344444
H    -2.315038  1.146040  3.062582
H    -3.030393  -0.667896  4.535182
H    -1.325902  -0.769801  4.171138
H    -2.242983  -2.521630  2.242332
H    -3.558860  -2.666429  3.405131
H    -1.999573  -4.242906  4.007489
H    -1.762697  -3.062910  5.102722
O    0.766010  -1.043057  3.275630
H    0.190342  -0.944923  -0.456869
Pb    0.798802  -3.396057  3.589103
