25
Energy: -603670.197077 eV PBE+vdW (tier 2 basis)
N    -0.712190  0.264388  -0.374998
C    -0.505839  -0.068431  1.070166
C    0.896390  0.431201  1.523844
O    1.280740  1.612175  1.015126
H    -0.294301  -0.463546  -0.966826
H    -1.710044  0.269331  -0.606382
H    -1.238560  0.540824  1.625224
C    -0.706235  -1.552950  1.411679
C    -1.028876  -1.764458  2.909454
C    -0.531762  -3.096790  3.500189
C    0.961028  -3.068060  3.814241
N    1.395641  -4.360777  4.497250
H    0.204999  -2.095645  1.119638
H    -1.528578  -1.961584  0.806973
H    -2.116961  -1.716559  3.047435
H    -0.608293  -0.944487  3.507936
H    -0.765165  -3.928791  2.815802
H    -1.090601  -3.286866  4.430141
H    1.219428  -2.257127  4.505730
H    1.593194  -2.962683  2.925282
H    1.222119  -5.182238  3.900826
H    2.399816  -4.349177  4.725616
O    1.571133  -0.196934  2.306963
H    0.880319  -4.509587  5.376965
Pb    0.460599  2.441770  -0.768275
