25
Energy: -603669.76786 eV PBE+vdW (tier 2 basis)
N    1.997596  -2.671007  2.795371
C    0.919641  -2.077234  2.025848
C    1.256510  -2.124370  0.552560
O    0.743724  -1.294228  -0.291188
H    1.689231  -2.928701  3.731644
H    2.384017  -3.503203  2.350786
H    -0.031003  -2.667537  2.058632
C    0.607999  -0.651666  2.552452
C    -0.816487  -0.143213  2.293882
C    -1.043176  1.314546  2.737071
C    -1.083761  1.587336  4.237171
N    -2.393132  1.111772  4.864420
H    1.345459  0.051389  2.138925
H    0.816182  -0.694024  3.631813
H    -1.547545  -0.824360  2.767476
H    -1.039182  -0.191078  1.219571
H    -1.962279  1.710670  2.275388
H    -0.234002  1.944342  2.337696
H    -1.029685  2.660755  4.453064
H    -0.282504  1.085152  4.792958
H    -2.541161  0.103931  4.718282
H    -2.411739  1.285659  5.879332
O    2.052048  -3.037875  0.114290
H    -3.198876  1.603330  4.451625
Pb    1.917126  -2.258385  -2.021070
