25
Energy: -603669.937364 eV PBE+vdW (tier 2 basis)
N    -1.220107  0.377391  0.945769
C    -0.042278  -0.353383  1.380783
C    1.267645  0.429193  1.317037
O    1.351104  1.529509  0.655930
H    -2.291602  -4.236761  -0.909825
H    -1.073442  0.815746  0.035280
H    -0.154864  -0.601707  2.450086
C    0.100523  -1.688303  0.597233
C    -0.731728  -2.851425  1.171157
C    -2.246808  -2.641452  1.341867
C    -3.068648  -2.505606  0.068271
N    -3.208620  -3.843251  -0.658489
H    1.149854  -2.013720  0.599539
H    -0.154945  -1.480175  -0.453887
H    -0.327467  -3.110207  2.160740
H    -0.523887  -3.743982  0.554721
H    -2.438849  -1.723348  1.911854
H    -2.658872  -3.458742  1.956278
H    -2.628669  -1.805833  -0.651666
H    -4.093103  -2.179578  0.281895
H    -3.685187  -4.535872  -0.063282
H    -3.756652  -3.750695  -1.524952
O    2.310271  -0.002422  1.944293
H    -1.472813  1.121493  1.596296
Pb    3.537147  1.816133  1.317074
