25
Energy: -603670.194112 eV PBE+vdW (tier 2 basis)
N    0.449148  1.018646  2.161720
C    0.792120  -0.415119  2.133229
C    1.577115  -0.827164  0.898111
O    1.604067  -0.084579  -0.150078
H    -0.774404  1.437945  3.323395
H    1.286979  1.588036  2.309577
H    1.450881  -0.634326  2.987499
C    -0.487462  -1.295920  2.253714
C    -0.817189  -1.780919  3.674945
C    -1.003354  -0.748872  4.800085
C    -2.100106  0.300163  4.579505
N    -1.516815  1.612218  4.096435
H    -0.380374  -2.193040  1.629658
H    -1.320465  -0.726572  1.810771
H    -0.033919  -2.484111  3.994213
H    -1.735604  -2.382864  3.601301
H    -0.052902  -0.244746  5.044071
H    -1.255540  -1.308311  5.710552
H    -2.648912  0.518794  5.501888
H    -2.831751  -0.018306  3.826585
H    -1.048760  2.100138  4.870000
H    -2.245538  2.243949  3.742745
O    2.208379  -1.949441  0.894055
H    0.084106  1.301617  1.246542
Pb    2.952300  -1.625215  -1.244515
