25
Energy: -603670.347889 eV PBE+vdW (tier 2 basis)
N    1.281211  0.145167  0.450980
C    0.243496  -0.156778  1.527112
C    0.923502  -1.036580  2.573265
O    0.350003  -1.192888  3.690441
H    1.886727  0.935736  0.715043
H    1.896215  -0.679166  0.335164
H    -0.051142  0.803844  1.966627
C    -0.993238  -0.877164  0.933027
C    -0.870271  -2.404627  0.730563
C    -1.382518  -3.219176  1.944800
C    -0.763825  -4.595495  2.150764
N    0.706681  -4.554800  2.500360
H    -1.247357  -0.372892  -0.012147
H    -1.833603  -0.656235  1.605246
H    0.169774  -2.669552  0.475893
H    -1.452800  -2.685561  -0.155649
H    -2.464710  -3.373027  1.827821
H    -1.280991  -2.639917  2.873007
H    -0.881378  -5.227291  1.257365
H    -1.272436  -5.105858  2.977559
H    0.996634  -5.511986  2.734125
H    1.242938  -4.319121  1.657700
O    1.975572  -1.679076  2.242192
H    0.837745  0.376281  -0.449144
Pb    1.701772  -3.055837  4.237884
