25
Energy: -603668.538487 eV PBE+vdW (tier 2 basis)
N    0.537597  0.803808  -0.119460
C    0.862342  0.285109  1.250470
C    2.309734  -0.214135  1.253964
O    3.096536  -0.000790  0.299577
H    -0.019043  0.096752  -0.615936
H    -0.078968  1.618873  -0.036814
H    0.850863  1.154290  1.931138
C    -0.173375  -0.768202  1.749646
C    -0.582744  -0.688284  3.232065
C    0.475877  -1.051340  4.280304
C    -0.108020  -1.160682  5.714568
N    -0.633451  0.099655  6.189207
H    0.174752  -1.780447  1.489101
H    -1.088756  -0.604799  1.161711
H    -1.429670  -1.381316  3.346186
H    -0.983549  0.312255  3.453881
H    1.271084  -0.279015  4.334935
H    0.932933  -2.033747  4.056376
H    0.683808  -1.550058  6.377374
H    -0.914890  -1.904997  5.706291
H    -1.524973  0.057086  6.674227
H    0.022827  0.704957  6.676053
O    2.782023  -0.865696  2.270060
H    2.125255  -0.994874  3.002957
Pb    2.574735  1.240852  -1.526104
