25
Energy: -603669.220794 eV PBE+vdW (tier 2 basis)
N    0.307116  0.071214  0.608251
C    -0.015261  -0.501203  1.927252
C    1.232461  -0.685807  2.798072
O    2.364835  -0.815090  2.279783
H    -1.437013  0.207978  -0.498603
H    0.276466  1.096185  0.685721
H    -0.717638  0.159295  2.462602
C    -0.636891  -1.934544  1.822824
C    -1.735565  -2.096885  0.770560
C    -2.989336  -1.208319  0.941514
C    -3.432095  -0.575523  -0.368426
N    -2.413022  0.475414  -0.806862
H    -1.015600  -2.221263  2.815310
H    0.165315  -2.654041  1.591236
H    -2.037347  -3.152625  0.777378
H    -1.288681  -1.941466  -0.223684
H    -2.841528  -0.418150  1.695836
H    -3.831701  -1.802520  1.318858
H    -4.401287  -0.069391  -0.296041
H    -3.488312  -1.315052  -1.176287
H    -2.424183  0.617518  -1.824822
H    -2.628181  1.382520  -0.374425
O    1.163544  -0.803540  4.099027
H    0.263928  -0.668215  4.456824
Pb    2.451230  -0.403646  0.019184
