25
Energy: -603668.648036 eV PBE+vdW (tier 2 basis)
N    -0.159817  -0.549654  -0.565075
C    0.389980  -0.579810  0.822346
C    1.816180  -1.113071  0.778402
O    2.219750  -1.847568  -0.151294
H    -1.179211  -0.660617  -0.518824
H    -0.002850  0.370826  -0.991528
H    0.399350  0.441473  1.237059
C    -0.460775  -1.498105  1.741519
C    -1.854439  -0.940742  2.057298
C    -2.640387  -1.864764  3.000070
C    -4.004493  -1.281165  3.409506
N    -3.873054  -0.078224  4.198168
H    0.090408  -1.647532  2.682054
H    -0.527034  -2.496683  1.273336
H    -2.445282  -0.796517  1.134703
H    -1.761976  0.053458  2.522451
H    -2.046266  -2.060712  3.907120
H    -2.813347  -2.842705  2.526976
H    -4.554113  -2.071194  3.958938
H    -4.606806  -1.047582  2.520436
H    -4.665613  0.558436  4.182542
H    -3.507293  -0.197129  5.140953
O    2.653082  -0.876789  1.751476
H    2.308028  -0.274665  2.441477
Pb    0.972635  -2.282243  -2.012023
