25
Energy: -603670.086696 eV PBE+vdW (tier 2 basis)
N    -0.614128  -1.253923  1.270426
C    0.546819  -0.391526  1.391082
C    1.670515  -0.680772  0.397080
O    2.548615  0.226838  0.128369
H    -3.570468  -0.781163  5.196015
H    -1.102058  -1.118605  0.385264
H    0.239522  0.644449  1.171852
C    1.137252  -0.406415  2.825779
C    0.255735  0.267471  3.892720
C    -0.959389  -0.548187  4.371787
C    -1.705862  0.205099  5.464916
N    -2.909713  -0.588288  5.961908
H    2.099184  0.124121  2.807758
H    1.358311  -1.448245  3.109032
H    -0.081506  1.246064  3.515671
H    0.900897  0.483221  4.758041
H    -0.614083  -1.520579  4.761099
H    -1.621708  -0.756366  3.518046
H    -2.103759  1.165187  5.112660
H    -1.083444  0.392487  6.349279
H    -3.423080  -0.081050  6.696672
H    -2.622326  -1.495997  6.354240
O    1.758740  -1.822578  -0.191324
H    -0.359710  -2.240967  1.329221
Pb    3.617646  -1.135277  -1.353593
