25
Energy: -603670.219845 eV PBE+vdW (tier 2 basis)
N    -0.934986  0.643384  -0.156070
C    -0.523627  0.116342  1.184821
C    0.968013  0.460457  1.456525
O    1.388344  1.643515  0.976990
H    -0.712389  -0.046545  -0.883916
H    -1.950754  0.769009  -0.198777
H    -1.099403  0.696283  1.925419
C    -0.827704  -1.381175  1.356372
C    -0.763300  -1.873508  2.827385
C    0.259650  -3.001351  3.042229
C    0.329137  -3.405850  4.509169
N    1.370021  -4.497189  4.729564
H    -0.126454  -1.953485  0.730177
H    -1.832944  -1.574808  0.957372
H    -1.761202  -2.215763  3.134685
H    -0.506104  -1.036957  3.492432
H    1.245441  -2.644582  2.706480
H    -0.014874  -3.874239  2.427572
H    -0.619423  -3.811900  4.882626
H    0.628968  -2.570247  5.154064
H    2.306914  -4.181956  4.439672
H    1.427427  -4.772997  5.720301
O    1.682640  -0.273309  2.098026
H    1.148696  -5.342954  4.185006
Pb    0.388912  2.723824  -0.560124
