25
Energy: -603670.021614 eV PBE+vdW (tier 2 basis)
N    -1.504353  -0.333945  0.791438
C    -0.521393  -0.082802  1.883772
C    0.886121  -0.266725  1.318931
O    1.111668  -0.957088  0.304835
H    -2.406204  -0.601150  1.196922
H    -1.683261  0.538665  0.280721
H    -0.625340  0.958159  2.230702
C    -0.719323  -1.016400  3.112282
C    -0.382763  -2.503546  2.926391
C    -1.433785  -3.349824  2.173639
C    -0.858223  -4.504762  1.366040
N    0.043420  -4.015692  0.261412
H    -1.756093  -0.882996  3.459632
H    -0.096873  -0.608850  3.922051
H    -0.243629  -2.937106  3.925493
H    0.609557  -2.590685  2.454248
H    -2.048652  -2.735264  1.492320
H    -2.158809  -3.760365  2.890144
H    -1.665627  -5.079537  0.897111
H    -0.290750  -5.197120  2.004870
H    0.984204  -3.838232  0.631818
H    0.168767  -4.770695  -0.423118
O    1.918256  0.247383  1.932649
H    1.690931  0.809922  2.700811
Pb    -0.570789  -1.937695  -0.967348
