25
Energy: -603669.804074 eV PBE+vdW (tier 2 basis)
N    -1.359218  1.384160  3.246066
C    -0.998574  0.295309  2.341126
C    0.522801  0.394033  2.408820
O    1.157437  1.291308  1.730534
H    -4.019939  -2.657459  -1.707752
H    -2.097994  1.148903  3.902296
H    -1.267755  -0.652564  2.826256
C    -1.593923  0.398834  0.926451
C    -1.450496  -0.839623  0.021877
C    -2.365278  -2.008908  0.424598
C    -2.347081  -3.210310  -0.513587
N    -3.031387  -2.911779  -1.846262
H    -1.143664  1.266306  0.422724
H    -2.661510  0.636150  1.052663
H    -0.403246  -1.182783  -0.006443
H    -1.679016  -0.507029  -1.005108
H    -3.403312  -1.657948  0.552789
H    -2.072298  -2.403649  1.408808
H    -2.888803  -4.064375  -0.090558
H    -1.329063  -3.534047  -0.764831
H    -2.577675  -2.130800  -2.340090
H    -3.007853  -3.729646  -2.471787
O    1.182768  -0.332742  3.246127
H    -1.563472  2.259914  2.769505
Pb    3.028548  0.978745  3.004776
