25
Energy: -603667.600521 eV PBE+vdW (tier 2 basis)
N    1.352567  -1.104103  0.761516
C    0.664205  -0.496636  1.887487
C    1.469467  -1.106631  3.039126
O    2.486930  -0.525765  3.510458
H    0.817273  -1.780992  0.226976
H    1.888433  -0.476751  0.171753
H    0.848226  0.586163  1.922459
C    -0.841136  -0.776435  1.998926
C    -1.748538  0.074498  1.090356
C    -1.675553  -0.214246  -0.415784
C    -2.828501  0.449376  -1.200104
N    -2.765357  1.883239  -1.200663
H    -1.149302  -0.590421  3.040340
H    -1.035733  -1.849008  1.800432
H    -1.554982  1.141817  1.277830
H    -2.779781  -0.102085  1.431882
H    -1.746965  -1.297124  -0.603441
H    -0.717072  0.117963  -0.843561
H    -3.798656  0.145134  -0.785331
H    -2.792308  0.057767  -2.238822
H    -1.996338  2.335172  -1.688756
H    -3.634675  2.407920  -1.228327
O    1.201643  -2.303631  3.524789
H    0.381273  -2.683352  3.145253
Pb    4.040758  -1.221843  4.999228
