25
Energy: -603670.074646 eV PBE+vdW (tier 2 basis)
N    0.893634  1.480275  1.975166
C    1.291370  0.090013  2.053464
C    2.131674  -0.409830  0.882139
O    2.886773  -1.447731  1.018686
H    -3.659616  0.325887  6.179949
H    1.674909  2.119269  2.113691
H    1.933424  -0.043369  2.939559
C    0.053428  -0.831442  2.227539
C    -0.677626  -0.541878  3.546351
C    -2.000521  -1.311538  3.666239
C    -2.702806  -1.177463  5.011389
N    -3.198208  0.245326  5.263031
H    0.368754  -1.884306  2.195473
H    -0.624904  -0.668410  1.374348
H    -0.835589  0.548260  3.599730
H    -0.019352  -0.810558  4.388580
H    -1.821744  -2.390095  3.536938
H    -2.693118  -1.031397  2.854998
H    -2.040510  -1.416185  5.853196
H    -3.590942  -1.817069  5.074277
H    -3.879007  0.534293  4.546559
H    -2.422407  0.921696  5.243083
O    2.113199  0.199091  -0.252557
H    0.456132  1.709499  1.082260
Pb    3.666051  -1.251336  -1.118087
