25
Energy: -603669.851465 eV PBE+vdW (tier 2 basis)
N    -0.828091  0.625724  3.677071
C    -0.684197  -0.325924  2.577039
C    0.789053  -0.113649  2.244587
O    1.687871  -0.860196  2.792723
H    -3.654077  -3.954671  -2.107866
H    -1.340054  0.258890  4.474091
H    -0.766160  -1.342261  2.986637
C    -1.662540  -0.129929  1.409199
C    -1.683182  -1.254299  0.361513
C    -2.692427  -0.950717  -0.758397
C    -2.828195  -2.007066  -1.847728
N    -3.568420  -3.251626  -1.360082
H    -1.448630  0.832605  0.918576
H    -2.662279  -0.035187  1.860102
H    -1.926568  -2.203711  0.871411
H    -0.683536  -1.389242  -0.082727
H    -2.391966  -0.027298  -1.276143
H    -3.686226  -0.728114  -0.334108
H    -1.857700  -2.360206  -2.218704
H    -3.410900  -1.635989  -2.699039
H    -3.084418  -3.697953  -0.569277
H    -4.521258  -3.016506  -1.047205
O    1.169939  0.888265  1.523719
H    -1.202957  1.527200  3.390218
Pb    3.328922  0.605858  2.228389
