25
Energy: -603670.035874 eV PBE+vdW (tier 2 basis)
N    1.422068  0.274509  1.448834
C    0.875853  -1.060048  1.305538
C    1.109521  -1.710008  -0.059675
O    1.472177  -1.004258  -1.073001
H    2.441291  0.280464  1.431327
H    1.099191  0.903057  0.712173
H    1.390812  -1.726559  2.018143
C    -0.639146  -1.114305  1.639747
C    -0.973577  -0.838659  3.120341
C    -0.936827  0.642536  3.531525
C    -1.131996  0.910188  5.015622
N    -2.544443  0.569512  5.497559
H    -1.010470  -2.115758  1.384072
H    -1.174449  -0.403457  0.989653
H    -0.283254  -1.415507  3.757422
H    -1.976897  -1.263546  3.295231
H    -1.666905  1.226998  2.946570
H    0.048532  1.057423  3.273580
H    -0.988624  1.969702  5.257934
H    -0.454501  0.315530  5.641720
H    -2.657259  0.768761  6.501418
H    -3.251519  1.120149  4.990622
O    0.960981  -2.983671  -0.209259
H    -2.764092  -0.425205  5.352872
Pb    1.592532  -2.874847  -2.399969
