25
Energy: -603670.068393 eV PBE+vdW (tier 2 basis)
N    -0.812495  0.112839  0.652567
C    0.442097  -0.174136  1.314866
C    1.636417  -0.358162  0.384612
O    2.831461  -0.092876  0.792885
H    -3.216010  0.338830  6.674481
H    -0.787635  0.986181  0.127968
H    0.706471  0.684376  1.952913
C    0.339900  -1.442981  2.208685
C    -0.906531  -1.490189  3.104571
C    -1.016401  -0.362204  4.144152
C    -2.231832  -0.596770  5.032725
N    -2.394149  0.504080  6.075799
H    1.255677  -1.522285  2.812056
H    0.310803  -2.331457  1.559313
H    -0.891975  -2.461953  3.621288
H    -1.806158  -1.480807  2.474112
H    -1.117428  0.607808  3.631078
H    -0.102643  -0.323507  4.760114
H    -2.159741  -1.535454  5.596168
H    -3.166702  -0.607564  4.458515
H    -2.514093  1.425955  5.632947
H    -1.570178  0.562925  6.690715
O    1.472203  -0.780496  -0.822142
H    -1.095177  -0.628574  0.010460
Pb    3.723119  -0.695579  -1.224855
