25
Energy: -603669.33353 eV PBE+vdW (tier 2 basis)
N    -0.585731  0.183286  0.165831
C    0.052068  -0.284079  1.411557
C    1.495979  -0.703288  1.123780
O    2.000156  -0.609142  -0.017585
H    -2.223876  -0.911536  -0.164280
H    -1.188203  0.984542  0.372974
H    0.143770  0.557451  2.125790
C    -0.718301  -1.428629  2.128197
C    -1.956610  -1.011997  2.941246
C    -3.230864  -0.548561  2.213472
C    -3.785395  -1.530787  1.183177
N    -3.226233  -1.252497  -0.209691
H    -0.044800  -1.928861  2.841583
H    -0.947952  -2.208394  1.383090
H    -1.667320  -0.228899  3.658225
H    -2.229449  -1.880843  3.558771
H    -3.116283  0.449484  1.759003
H    -4.008217  -0.409828  2.977351
H    -4.874939  -1.466364  1.090994
H    -3.530132  -2.569929  1.424514
H    -3.283047  -2.083409  -0.812573
H    -3.775113  -0.512655  -0.665837
O    2.276294  -1.169511  2.063924
H    1.851979  -1.208996  2.943856
Pb    0.775602  0.489562  -1.593643
