25
Energy: -603669.977108 eV PBE+vdW (tier 2 basis)
N    0.075935  0.625218  0.376011
C    -0.282987  0.294453  1.776962
C    0.979610  0.407702  2.626804
O    2.121917  0.297465  2.137473
H    -0.652622  0.284680  -0.260064
H    0.108492  1.642635  0.244102
H    -1.024877  1.012610  2.163026
C    -0.910825  -1.126344  1.853734
C    -0.085735  -2.263014  1.232748
C    0.981909  -2.909366  2.133087
C    2.155598  -3.487557  1.349813
N    3.117306  -2.414284  0.911337
H    -1.884817  -1.048242  1.348608
H    -1.146269  -1.358112  2.902656
H    0.364670  -1.923743  0.274269
H    -0.783415  -3.043709  0.899633
H    0.516983  -3.725160  2.702872
H    1.365448  -2.214849  2.896436
H    1.810103  -4.012872  0.449699
H    2.708995  -4.215186  1.959203
H    3.659793  -2.119674  1.733434
H    3.805386  -2.834256  0.274701
O    0.896070  0.577738  3.920192
H    -0.016915  0.708664  4.248244
Pb    2.456459  -0.219178  -0.109478
