25
Energy: -603670.007473 eV PBE+vdW (tier 2 basis)
N    0.677268  -1.685650  2.540935
C    0.189768  -0.870945  1.436856
C    1.044686  -0.937309  0.173696
O    2.283498  -1.282478  0.226535
H    -0.649387  -0.764955  6.533778
H    0.706753  -2.675258  2.291646
H    -0.800990  -1.243907  1.129611
C    0.036108  0.620595  1.835026
C    -1.163756  0.985903  2.728341
C    -1.084728  0.682392  4.240979
C    -1.572556  -0.709138  4.617532
N    -1.591018  -0.879722  6.133680
H    -0.072990  1.205261  0.910758
H    0.976815  0.955601  2.301744
H    -2.087394  0.559110  2.306035
H    -1.285290  2.073530  2.636946
H    -1.704390  1.430473  4.761059
H    -0.051373  0.827238  4.595598
H    -0.910951  -1.487465  4.212530
H    -2.602793  -0.888942  4.285364
H    -1.933427  -1.810859  6.408000
H    -2.199603  -0.180418  6.583357
O    0.528371  -0.638759  -0.970589
H    1.629791  -1.419939  2.798415
Pb    2.500587  -1.019358  -2.050830
