25
Energy: -603669.868432 eV PBE+vdW (tier 2 basis)
N    2.472854  -2.473446  2.124826
C    1.082372  -2.145470  1.831203
C    1.175863  -1.862834  0.335369
O    0.963107  -2.818679  -0.505920
H    2.593813  -3.308430  2.689943
H    3.013754  -1.696547  2.496050
H    0.481463  -3.060193  1.928824
C    0.469644  -1.027380  2.689496
C    -1.006749  -0.727882  2.380416
C    -1.778089  -0.028325  3.517224
C    -1.274232  1.375412  3.831377
N    -2.125798  2.019347  4.920717
H    1.087958  -0.121823  2.585553
H    0.573451  -1.367717  3.732118
H    -1.537619  -1.671476  2.185179
H    -1.094234  -0.133005  1.457735
H    -1.723365  -0.651650  4.425020
H    -2.840714  0.024950  3.230931
H    -1.335270  2.044982  2.964107
H    -0.245375  1.387481  4.210874
H    -1.804337  2.971413  5.146850
H    -3.113034  2.084916  4.633048
O    1.580006  -0.721006  -0.111904
H    -2.099518  1.468182  5.790825
Pb    1.834047  -1.613821  -2.212859
