25
Energy: -603670.283158 eV PBE+vdW (tier 2 basis)
N    0.327512  0.992299  0.777769
C    0.248390  0.235116  2.096689
C    1.068192  -1.038975  1.944384
O    1.583516  -1.557406  2.978318
H    -0.446510  1.666273  0.683351
H    1.211193  1.513387  0.679632
H    0.671827  0.879629  2.876384
C    -1.222706  -0.121910  2.400444
C    -1.462074  -0.819490  3.767541
C    -1.936008  -2.289364  3.767250
C    -0.901006  -3.420751  3.746145
N    -0.435473  -3.852152  2.362301
H    -1.620688  -0.727185  1.570050
H    -1.785840  0.823603  2.387589
H    -2.245888  -0.243705  4.274056
H    -0.575932  -0.717383  4.410985
H    -2.694558  -2.457098  2.984161
H    -2.484712  -2.431050  4.709721
H    -1.336126  -4.310115  4.216275
H    -0.021877  -3.140638  4.341109
H    -0.712823  -4.827677  2.213861
H    -0.947768  -3.326681  1.646222
O    1.097241  -1.599621  0.798613
H    0.279255  0.311817  -0.001134
Pb    1.964664  -3.605997  1.862270
