25
Energy: -603669.694496 eV PBE+vdW (tier 2 basis)
N    0.910023  1.342958  2.491162
C    -0.005794  0.335766  2.982716
C    0.644680  -0.359257  4.177702
O    1.785006  -0.061952  4.572126
H    0.925705  -1.491272  -1.814083
H    0.481947  1.953047  1.794741
H    -0.923403  0.808040  3.391757
C    -0.491903  -0.689144  1.910588
C    0.607886  -1.543788  1.261177
C    0.070932  -2.773886  0.501601
C    -0.655509  -2.533163  -0.819933
N    0.314856  -2.302983  -1.976909
H    -1.048207  -0.109420  1.159226
H    -1.245439  -1.348990  2.373661
H    1.284684  -1.930627  2.038638
H    1.243050  -0.912233  0.619021
H    -0.642396  -3.311027  1.144595
H    0.888064  -3.494878  0.336607
H    -1.319872  -1.660561  -0.803258
H    -1.249263  -3.407260  -1.111809
H    -0.187171  -2.140494  -2.862007
H    0.923349  -3.123078  -2.115589
O    0.009398  -1.305963  4.838131
H    -0.901969  -1.444936  4.516748
Pb    2.754871  1.797657  3.528523
