25
Energy: -603669.112836 eV PBE+vdW (tier 2 basis)
N    0.582178  -0.440787  0.168163
C    0.304762  0.021569  1.590635
C    1.639958  0.124738  2.316569
O    1.684006  0.718989  3.439054
H    -0.242333  -0.938192  -0.204084
H    0.804135  0.336549  -0.468244
H    -0.152241  1.018337  1.530204
C    -0.645365  -0.970864  2.293144
C    -2.026230  -1.118105  1.637426
C    -2.895986  0.144502  1.630952
C    -4.354251  -0.148950  1.226291
N    -5.005804  -1.027792  2.173163
H    -0.760200  -0.606347  3.323852
H    -0.147908  -1.951913  2.361633
H    -2.557227  -1.905447  2.193455
H    -1.946909  -1.529780  0.611232
H    -2.507820  0.910860  0.940107
H    -2.888599  0.601853  2.634001
H    -4.383123  -0.628070  0.237505
H    -4.883899  0.817130  1.121895
H    -5.256931  -0.608470  3.066116
H    -5.769918  -1.587060  1.803543
O    2.676182  -0.420840  1.801748
H    1.397711  -1.077736  0.172517
Pb    3.968845  0.268060  3.708324
