25
Energy: -603669.343144 eV PBE+vdW (tier 2 basis)
N    -1.158708  -0.071223  0.250465
C    -0.007634  0.169530  1.131143
C    1.309347  0.117968  0.349991
O    1.337334  -0.080844  -0.883965
H    -1.714551  -0.849817  0.620738
H    -2.314111  1.127502  1.075901
H    -0.033027  1.225480  1.479218
C    0.019462  -0.730811  2.389098
C    -1.281697  -0.741440  3.210014
C    -1.789838  0.617257  3.752011
C    -3.062798  1.167009  3.115529
N    -2.843875  1.780636  1.738281
H    0.839106  -0.402730  3.049429
H    0.259250  -1.762437  2.089892
H    -1.095418  -1.410779  4.059787
H    -2.086361  -1.243851  2.648248
H    -0.997838  1.384978  3.746004
H    -2.038287  0.496823  4.815442
H    -3.504318  1.958927  3.732269
H    -3.817771  0.381356  2.984775
H    -2.310070  2.655544  1.817292
H    -3.744303  2.023150  1.304371
O    2.458752  0.337272  0.934504
H    2.390139  0.449601  1.903502
Pb    -0.670846  -0.447373  -1.920971
