25
Energy: -603668.968635 eV PBE+vdW (tier 2 basis)
N    -1.485928  0.464908  0.111938
C    -0.804442  0.229989  1.457595
C    0.663038  0.620994  1.279503
O    1.376905  0.843670  2.304661
H    -2.318377  -0.132390  0.007845
H    -1.781293  1.443504  -0.012827
H    -1.269301  0.911186  2.183215
C    -1.015866  -1.233825  1.897793
C    -0.545399  -1.524231  3.334655
C    -1.113095  -2.830004  3.912060
C    -0.582932  -4.116663  3.262011
N    -1.125535  -5.281321  3.908711
H    -0.533227  -1.906096  1.171134
H    -2.101717  -1.423768  1.844199
H    -0.864669  -0.698229  3.987482
H    0.553438  -1.539602  3.377980
H    -2.212152  -2.826632  3.854288
H    -0.865942  -2.850424  4.984114
H    0.529395  -4.103457  3.296411
H    -0.856795  -4.173481  2.197247
H    -1.063154  -6.166620  3.415295
H    -0.980519  -5.372419  4.911042
O    1.139275  0.699613  0.094686
H    -0.811321  0.250812  -0.644372
Pb    3.280770  1.329618  1.006480
