25
Energy: -603669.910633 eV PBE+vdW (tier 2 basis)
N    1.620083  -2.187877  1.138948
C    0.731782  -1.040972  1.051530
C    1.619982  0.093549  1.558991
O    1.841494  0.243499  2.821427
H    -4.948681  -2.412136  0.394262
H    1.559904  -2.726250  1.998040
H    0.554713  -0.822027  -0.010365
C    -0.594478  -1.138969  1.829601
C    -1.544162  -2.242935  1.331855
C    -2.243062  -1.927179  0.000066
C    -3.139611  -3.035138  -0.540806
N    -4.373033  -3.263816  0.330876
H    -1.104965  -0.162884  1.800147
H    -0.357887  -1.323913  2.887604
H    -2.289644  -2.400681  2.129159
H    -0.989226  -3.191021  1.242567
H    -1.499559  -1.751181  -0.792051
H    -2.815685  -0.987449  0.073690
H    -2.625012  -4.003289  -0.588257
H    -3.524482  -2.796316  -1.539158
H    -4.968333  -4.011511  -0.052855
H    -4.114716  -3.535431  1.289533
O    2.235302  0.857220  0.723411
H    1.678292  -2.771887  0.313237
Pb    3.411984  1.850593  2.405547
