23
Energy: -166136.455414 eV PBE+vdW (tier 2 basis)
N    0.305479  0.267546  -0.042652
C    0.199361  -0.020476  1.329781
C    1.689066  -0.231963  1.937771
O    1.848499  -0.398131  3.153138
H    0.119708  -0.473321  -0.717532
H    0.103932  1.207556  -0.377263
H    -0.152133  0.865481  1.883526
C    -0.628316  -1.273527  1.698461
C    -2.152659  -1.006951  1.574880
C    -2.644427  -0.835922  0.152663
C    -2.845032  -2.227936  2.269498
H    -0.377677  -1.543313  2.733104
H    -0.339319  -2.122243  1.057603
H    -2.400954  -0.111027  2.166660
H    -2.404266  -1.700978  -0.481274
H    -2.241819  0.077626  -0.327152
H    -3.734671  -0.687424  0.125852
H    -2.519701  -2.331914  3.310471
H    -2.640574  -3.159915  1.727841
H    -3.927873  -2.040425  2.255627
O    2.687214  -0.195695  1.112460
H    2.348751  0.001005  0.199841
Cd    3.823799  -0.732046  4.203191
