23
Energy: -166136.893438 eV PBE+vdW (tier 2 basis)
N    0.688232  0.047962  0.315595
C    -0.172961  0.264419  1.523735
C    0.532919  1.163171  2.557120
O    1.538816  1.868648  2.301933
H    1.163587  -0.862672  0.375269
H    0.114996  0.020554  -0.535712
H    -1.039731  0.861660  1.189804
C    -0.667716  -1.096838  2.080016
C    -1.908486  -1.059429  3.029500
C    -3.082362  -0.254676  2.470652
C    -2.295335  -2.511720  3.335776
H    0.166702  -1.621997  2.570680
H    -0.965939  -1.700247  1.208446
H    -1.607085  -0.632440  4.016313
H    -2.877554  0.822018  2.364348
H    -3.945939  -0.334243  3.142730
H    -3.400843  -0.646605  1.493880
H    -3.101107  -2.528283  4.083333
H    -1.455448  -3.093334  3.735785
H    -2.677051  -3.016466  2.436808
O    0.040390  1.254965  3.749316
H    -0.714965  0.628588  3.901825
Cd    2.274878  1.683773  0.277926
