23
Energy: -166137.352278 eV PBE+vdW (tier 2 basis)
N    0.398668  -0.964006  -0.934336
C    0.082547  -0.403962  0.448335
C    1.326715  0.345728  0.958878
O    2.323551  0.469034  0.180589
H    -0.471752  -1.216019  -1.426316
H    0.922450  -0.288930  -1.513757
H    -0.697615  0.359723  0.298913
C    -0.420533  -1.516374  1.375543
C    -1.101026  -1.036760  2.671336
C    -2.333339  -0.163418  2.416811
C    -1.412622  -2.241497  3.566881
H    0.409082  -2.203714  1.608881
H    -1.160720  -2.100613  0.798371
H    -0.361694  -0.415007  3.222108
H    -2.790849  0.133306  3.368049
H    -3.098483  -0.716817  1.850251
H    -2.110677  0.769192  1.877587
H    -2.157264  -2.898787  3.089934
H    -1.833345  -1.907363  4.522093
H    -0.521669  -2.845750  3.783140
O    1.293685  0.834647  2.131531
H    0.973711  -1.818234  -0.868273
Cd    3.348182  1.666620  1.843451
