23
Energy: -166137.123542 eV PBE+vdW (tier 2 basis)
N    1.247069  0.217230  0.874536
C    0.413963  0.291325  2.111260
C    1.296480  -0.071831  3.322866
O    2.274292  -0.837086  3.229348
H    0.654315  0.230915  0.038486
H    1.881592  1.021612  0.798845
H    0.075236  1.331446  2.252373
C    -0.853085  -0.609924  2.013278
C    -0.783956  -2.123561  1.649470
C    -0.427040  -2.465104  0.199312
C    -0.042258  -3.039385  2.625782
H    -1.516913  -0.117298  1.286425
H    -1.375320  -0.521723  2.977669
H    -1.844435  -2.429441  1.734699
H    -0.844167  -1.780605  -0.550569
H    -0.727883  -3.488763  -0.060529
H    0.693830  -2.491238  -0.006085
H    -0.362710  -4.084075  2.518553
H    -0.128127  -2.752789  3.680812
H    1.071430  -3.112906  2.424861
O    1.005197  0.395138  4.504305
H    0.271319  1.043765  4.520014
Cd    2.304172  -1.770706  1.226285
