23
Energy: -166136.767283 eV PBE+vdW (tier 2 basis)
N    0.809981  -0.183764  0.194942
C    0.143802  -0.056961  1.533648
C    1.032970  0.749570  2.497979
O    2.284858  0.746923  2.436400
H    0.493111  -1.043279  -0.270750
H    0.573789  0.599045  -0.429708
H    -0.788819  0.513465  1.385492
C    -0.177766  -1.467094  2.081141
C    -0.875506  -1.538585  3.470078
C    -1.850033  -2.727324  3.472482
C    0.132100  -1.646401  4.619873
H    0.753003  -2.063787  2.123141
H    -0.825212  -1.931415  1.320268
H    -1.487906  -0.624027  3.596873
H    -2.348615  -2.796448  4.448063
H    -1.319954  -3.675692  3.306753
H    -2.628761  -2.623633  2.705971
H    -0.383314  -1.596950  5.587177
H    0.892767  -0.851646  4.634448
H    0.658603  -2.610365  4.578910
O    0.495634  1.450182  3.447640
H    -0.483247  1.395437  3.485200
Cd    3.033415  -0.226017  0.649611
