23
Energy: -166137.358408 eV PBE+vdW (tier 2 basis)
N    1.002869  -0.031450  0.563863
C    0.095193  0.092751  1.742265
C    0.920190  0.354182  3.006238
O    2.093243  -0.042265  3.180175
H    0.520011  -0.500121  -0.209732
H    1.290144  0.889925  0.213139
H    -0.547167  0.977302  1.616276
C    -0.826055  -1.160601  1.927283
C    -0.380084  -2.559957  1.429621
C    0.938141  -3.122430  2.009413
C    -1.506998  -3.561254  1.762820
H    -1.762110  -0.924297  1.403965
H    -1.098293  -1.220390  2.991166
H    -0.292475  -2.542976  0.330988
H    0.929684  -4.221358  2.102339
H    1.203795  -2.752953  3.012739
H    1.803243  -3.069229  1.258749
H    -1.300081  -4.542793  1.319223
H    -2.465867  -3.212915  1.356320
H    -1.622587  -3.687245  2.847833
O    0.256401  1.009573  3.912922
H    0.774091  1.137025  4.741176
Cd    2.721711  -1.237523  1.438217
