23
Energy: -166137.342487 eV PBE+vdW (tier 2 basis)
N    1.164738  -1.618416  -0.612303
C    0.301958  -0.736163  0.279506
C    1.197900  -0.001382  1.293063
O    0.632474  0.808524  2.090277
H    2.084942  -1.198453  -0.810976
H    1.313443  -2.538345  -0.152015
H    -0.092329  0.066109  -0.364010
C    -0.871501  -1.523862  0.878649
C    -0.592736  -2.713471  1.835477
C    0.163320  -3.888078  1.190156
C    0.049777  -2.298947  3.162810
H    -1.467786  -1.883044  0.022931
H    -1.501502  -0.781798  1.389626
H    -1.604588  -3.082220  2.065283
H    -0.227652  -4.160860  0.198476
H    0.069961  -4.787796  1.811971
H    1.258846  -3.723636  1.135778
H    -0.489132  -1.471949  3.643483
H    1.110485  -2.020154  3.043720
H    0.041916  -3.143852  3.863800
O    2.458037  -0.179076  1.259126
H    0.684829  -1.798003  -1.506111
Cd    2.606603  1.344873  2.933284
