23
Energy: -166136.774686 eV PBE+vdW (tier 2 basis)
N    -0.338890  0.118682  -0.163935
C    0.060025  -0.180211  1.252946
C    1.551286  0.126846  1.477595
O    2.407091  0.145245  0.560479
H    -1.048640  -0.555504  -0.475849
H    -0.760181  1.052799  -0.249019
H    -0.504429  0.510424  1.900643
C    -0.313296  -1.650052  1.583585
C    -0.141985  -2.168492  3.044806
C    1.234681  -2.772510  3.337916
C    -0.627359  -1.184628  4.115250
H    0.239446  -2.322044  0.904748
H    -1.380958  -1.725808  1.322203
H    -0.855531  -3.010468  3.069063
H    1.226199  -3.255025  4.324447
H    2.053494  -2.039648  3.367318
H    1.498204  -3.546131  2.604904
H    -0.716574  -1.697553  5.081036
H    -1.608575  -0.747215  3.884704
H    0.064876  -0.343112  4.329356
O    1.972554  0.369034  2.676267
H    1.266606  0.272712  3.364339
Cd    1.551662  -0.016963  -1.417190
