23
Energy: -166137.42059 eV PBE+vdW (tier 2 basis)
N    -0.138121  0.879230  1.435039
C    0.886156  -0.068271  2.037501
C    2.107772  -0.154771  1.108619
O    3.160784  -0.690111  1.570759
H    0.150738  1.867082  1.475324
H    -0.325021  0.648680  0.446837
H    1.213795  0.379305  2.986007
C    0.259043  -1.448323  2.274403
C    -0.981804  -1.423166  3.211860
C    -1.479898  -2.868050  3.363824
C    -0.689793  -0.773135  4.567369
H    1.041998  -2.075340  2.725332
H    -0.007887  -1.908920  1.309778
H    -1.798992  -0.864786  2.709052
H    -2.403526  -2.877887  3.958369
H    -0.739989  -3.487507  3.888885
H    -1.702761  -3.336327  2.396527
H    0.136196  -1.282382  5.083739
H    -1.571918  -0.843987  5.215560
H    -0.441594  0.298981  4.508268
O    2.012793  0.285354  -0.081270
H    -1.022723  0.775936  1.961787
Cd    4.151752  -0.425602  -0.399569
