23
Energy: -166137.346251 eV PBE+vdW (tier 2 basis)
N    1.122386  0.126632  -0.008232
C    0.518931  -0.106613  1.369473
C    1.463848  -1.010230  2.184019
O    1.067169  -1.398395  3.324991
H    0.724590  0.976761  -0.434728
H    2.149009  0.220871  0.025641
H    0.558053  0.861684  1.894418
C    -0.936098  -0.577431  1.257636
C    -1.226166  -1.789773  0.343209
C    -0.458444  -3.054623  0.742616
C    -2.741275  -2.036678  0.323010
H    -1.525341  0.287139  0.911335
H    -1.276964  -0.784183  2.282831
H    -0.946420  -1.523760  -0.697858
H    -0.745776  -3.892608  0.094908
H    -0.690484  -3.349357  1.776475
H    0.636144  -2.959676  0.640678
H    -2.988727  -2.844724  -0.375383
H    -3.297630  -1.143295  0.011446
H    -3.103621  -2.331494  1.318125
O    2.624403  -1.269210  1.726780
H    0.891530  -0.663954  -0.632368
Cd    3.025885  -2.375080  3.663977
