23
Energy: -166136.91869 eV PBE+vdW (tier 2 basis)
N    0.250120  0.289931  0.185986
C    0.284602  0.030779  1.661455
C    1.736713  -0.086769  2.177883
O    2.751199  0.145279  1.476985
H    -0.015156  -0.567355  -0.315334
H    -0.462749  0.992054  -0.043130
H    -0.119258  0.937340  2.144076
C    -0.590053  -1.210081  2.034794
C    -1.510695  -1.026966  3.278296
C    -2.399031  -2.279289  3.373296
C    -0.761414  -0.783526  4.590562
H    0.046106  -2.101548  2.149542
H    -1.255724  -1.410973  1.182589
H    -2.156149  -0.154949  3.080366
H    -3.120593  -2.151092  4.191864
H    -1.809107  -3.181276  3.587035
H    -2.970248  -2.448451  2.452056
H    -1.465106  -0.759833  5.434793
H    -0.267157  0.205003  4.651515
H    -0.065558  -1.606990  4.838564
O    1.941959  -0.424988  3.406002
H    1.107975  -0.577285  3.934961
Cd    2.342851  0.872208  -0.517094
