23
Energy: -166136.891819 eV PBE+vdW (tier 2 basis)
N    0.021340  0.483921  0.292322
C    0.356972  0.057311  1.682346
C    1.814836  -0.407749  1.798522
O    2.468460  -0.870586  0.834215
H    -0.977225  0.292436  0.120910
H    0.164919  1.491585  0.151111
H    0.218077  0.928879  2.344842
C    -0.562930  -1.106865  2.118772
C    -2.065612  -0.734185  2.192411
C    -2.875176  -2.004800  2.479461
C    -2.340274  0.365422  3.220089
H    -0.230559  -1.463986  3.105579
H    -0.415011  -1.957056  1.426837
H    -2.391971  -0.372603  1.191831
H    -3.948394  -1.776582  2.488852
H    -2.621684  -2.416019  3.467429
H    -2.706420  -2.786747  1.727430
H    -2.041120  0.048046  4.229685
H    -3.413318  0.588974  3.257627
H    -1.833607  1.317734  2.997431
O    2.405565  -0.408496  2.955000
H    1.878594  -0.023402  3.686657
Cd    1.410381  -0.703428  -1.050612
