23
Energy: -166136.706013 eV PBE+vdW (tier 2 basis)
N    -0.608749  0.444159  0.296178
C    0.303753  -0.092541  1.386660
C    1.713794  0.395003  0.942715
O    2.765241  0.206221  1.711515
H    -1.174090  -0.283462  -0.159605
H    -1.242001  1.186051  0.621757
H    0.024552  0.436014  2.309481
C    0.195087  -1.631607  1.566703
C    -0.334144  -2.149141  2.924518
C    -0.656387  -3.645279  2.832310
C    0.609034  -1.897936  4.119248
H    1.168424  -2.101610  1.341420
H    -0.465306  -2.035621  0.785125
H    -1.261254  -1.600226  3.168971
H    -1.037812  -4.029672  3.786173
H    0.227409  -4.238117  2.554396
H    -1.430891  -3.828525  2.076139
H    0.236543  -2.295283  5.077827
H    0.746066  -0.812750  4.348929
H    1.552261  -2.515215  3.996610
O    1.827637  0.962723  -0.130088
H    0.063461  0.861630  -0.408295
Cd    2.871178  -0.847686  3.470621
