23
Energy: -166137.186529 eV PBE+vdW (tier 2 basis)
N    0.202027  -0.246153  0.123127
C    0.054975  0.033583  1.588529
C    1.445711  0.224782  2.216320
O    2.460765  -0.340933  1.766361
H    -0.672087  -0.635841  -0.246200
H    0.380049  0.617446  -0.404469
H    -0.513545  0.970919  1.700082
C    -0.716813  -1.103907  2.320725
C    -0.016693  -2.427341  2.719295
C    -1.022079  -3.283982  3.514518
C    0.525339  -3.302665  1.560264
H    -1.616545  -1.317596  1.719480
H    -1.103098  -0.660272  3.249556
H    0.824855  -2.196984  3.391486
H    -0.541479  -4.190358  3.902598
H    -1.877400  -3.585718  2.894364
H    -1.407393  -2.725083  4.377937
H    0.506611  -4.380307  1.795712
H    1.655534  -3.215832  1.441776
H    -0.048026  -3.226659  0.619079
O    1.582832  0.939701  3.296654
H    0.772263  1.407437  3.585565
Cd    1.954349  -1.673021  0.083053
