23
Energy: -166136.88821 eV PBE+vdW (tier 2 basis)
N    -0.366764  -0.464525  -0.050151
C    -0.152670  0.054918  1.334304
C    1.331520  0.369225  1.592436
O    2.268682  -0.210616  0.999817
H    -1.175125  -1.105678  -0.047900
H    -0.589368  0.291161  -0.710957
H    -0.717762  0.998312  1.429537
C    -0.614812  -0.975226  2.395276
C    -2.147782  -1.040062  2.634162
C    -2.960693  -1.350008  1.374283
C    -2.406476  -2.078496  3.737676
H    -0.120872  -0.743702  3.350087
H    -0.236113  -1.973334  2.102517
H    -2.457241  -0.050643  3.010852
H    -4.018825  -1.501434  1.630253
H    -2.639721  -2.290093  0.890562
H    -2.977266  -0.524814  0.640985
H    -3.471550  -2.079073  4.001631
H    -1.839055  -1.855781  4.650159
H    -2.145325  -3.093885  3.407327
O    1.662301  1.217903  2.519282
H    0.908232  1.671654  2.951030
Cd    1.581311  -1.467762  -0.635787
