23
Energy: -166137.113819 eV PBE+vdW (tier 2 basis)
N    0.749958  -0.288387  0.458613
C    0.263297  0.037121  1.830629
C    1.433979  -0.015492  2.828859
O    2.429207  -0.752091  2.673237
H    -0.035092  -0.555238  -0.144555
H    1.195494  0.524227  0.016344
H    -0.114023  1.072456  1.830219
C    -0.894358  -0.912047  2.298445
C    -1.025097  -2.351626  1.733646
C    0.175879  -3.301573  1.947648
C    -2.263861  -3.001327  2.387144
H    -1.830735  -0.394294  2.051463
H    -0.868433  -0.962492  3.397582
H    -1.233820  -2.297214  0.652867
H    0.794453  -3.082832  2.832793
H    0.784227  -3.457959  0.989082
H    -0.130742  -4.354140  2.066827
H    -3.151967  -2.370709  2.247558
H    -2.116144  -3.150085  3.465410
H    -2.478429  -3.974729  1.929563
O    1.381145  0.687596  3.923658
H    0.610664  1.289171  3.989957
Cd    2.218400  -1.985335  0.884011
