23
Energy: -166137.244142 eV PBE+vdW (tier 2 basis)
N    0.706309  0.432099  0.473589
C    -0.029214  0.491237  1.804669
C    0.992589  0.544650  2.938971
O    0.683269  1.213661  3.970802
H    0.050172  0.201385  -0.289179
H    1.160879  1.325989  0.230860
H    -0.632650  1.406539  1.805900
C    -0.900488  -0.774386  1.968724
C    -1.578549  -0.981215  3.355487
C    -2.880153  -1.776282  3.146377
C    -0.726030  -1.746991  4.380299
H    -0.292787  -1.660430  1.721948
H    -1.695415  -0.696678  1.210090
H    -1.840690  0.004337  3.772083
H    -3.400958  -1.937268  4.097599
H    -2.687587  -2.759334  2.694874
H    -3.564744  -1.224197  2.485713
H    0.214007  -1.209594  4.687789
H    -0.415291  -2.734278  4.013301
H    -1.277555  -1.882541  5.318807
O    2.013011  -0.211359  2.860805
H    1.437429  -0.298190  0.498078
Cd    2.191269  0.040843  5.107374
