29
Energy: -240769.896223 eV PBE+vdW (tier 2 basis)
C    0.824209  0.624477  3.422549
C    -0.113569  0.374307  4.566813
O    0.385283  0.157745  5.732188
H    0.526389  1.498282  2.827769
H    0.857167  -0.243215  2.746369
H    1.832355  0.785346  3.814545
N    -1.458258  0.324060  4.480894
C    -2.122128  0.380937  3.181099
C    -2.686306  1.787522  3.017221
O    -2.697942  2.535142  4.089761
H    -2.218479  1.975187  4.770806
H    -1.421088  0.201972  2.350330
C    -3.256078  -0.692514  3.075291
C    -2.655361  -2.100390  3.088515
C    -4.357066  -0.519838  4.125765
H    -3.725227  -0.557738  2.088586
H    -2.183926  -2.346968  4.056206
H    -1.887952  -2.236241  2.315553
H    -3.435528  -2.852627  2.920581
H    -3.991989  -0.690880  5.153490
H    -5.158732  -1.249312  3.959352
H    -4.816994  0.477308  4.113766
N    -3.168993  2.305855  1.919012
C    -3.233731  1.707405  0.582470
H    -3.529035  3.259352  2.008333
H    -2.943068  2.468545  -0.149490
H    -4.256745  1.376572  0.364605
H    -2.545591  0.861696  0.503003
Ba    -1.404617  -1.052984  6.770616
