29
Energy: -240770.594373 eV PBE+vdW (tier 2 basis)
C    0.370822  -0.388075  1.142490
C    -0.422842  0.460952  2.077814
O    0.111588  1.461826  2.649676
H    -0.027659  -1.398139  1.011103
H    1.422115  -0.423524  1.445399
H    0.339384  0.101981  0.155045
N    -1.724795  0.192073  2.321672
C    -2.273247  -1.155950  2.553458
C    -1.342678  -1.835690  3.599724
O    -0.613201  -1.122105  4.365252
H    -2.209057  0.945935  2.805018
H    -3.216866  -0.968871  3.092723
C    -2.662571  -1.989647  1.290464
C    -3.834177  -2.939968  1.604521
C    -3.056867  -1.078698  0.120983
H    -1.789773  -2.589215  0.980710
H    -4.032113  -3.585096  0.740817
H    -4.750542  -2.366997  1.805402
H    -3.688400  -3.604877  2.469177
H    -3.382076  -1.695310  -0.725419
H    -2.233238  -0.447927  -0.231548
H    -3.896405  -0.422703  0.389820
N    -1.339285  -3.151463  3.691815
C    -0.569101  -3.916446  4.674971
H    -1.937735  -3.665936  3.049650
H    -0.821988  -4.973791  4.563230
H    -0.819513  -3.592331  5.691658
H    0.506624  -3.786827  4.505196
Ba    0.545598  0.964819  5.021180
