29
Energy: -240770.681322 eV PBE+vdW (tier 2 basis)
C    0.707282  1.255120  0.819364
C    0.290307  0.684101  2.134708
O    1.133551  0.488993  3.061593
H    0.827748  2.346940  0.899376
H    -0.000008  1.035883  0.013652
H    1.693200  0.847550  0.564242
N    -1.009401  0.387865  2.366768
C    -2.129520  1.247798  1.977141
C    -1.837102  2.662479  2.525000
O    -1.095217  2.785922  3.559603
H    -1.167698  -0.134267  3.228865
H    -2.208668  1.275633  0.882520
C    -3.447300  0.620641  2.544898
C    -3.500628  0.599437  4.078576
C    -4.711668  1.261492  1.968347
H    -3.405604  -0.419726  2.181555
H    -4.387542  0.042786  4.404294
H    -3.578192  1.610815  4.501716
H    -2.644327  0.089415  4.551438
H    -5.586674  0.678582  2.280082
H    -4.709976  1.273810  0.871093
H    -4.866304  2.284164  2.338188
N    -2.332697  3.746399  1.947818
C    -3.096799  3.904980  0.707321
H    -2.111577  4.612645  2.441086
H    -3.073143  2.990852  0.110842
H    -2.648197  4.719136  0.126898
H    -4.139678  4.159300  0.929157
Ba    0.742514  1.989459  4.996768
