29
Energy: -240770.686959 eV PBE+vdW (tier 2 basis)
C    -0.578515  0.375273  -1.016883
C    -0.276005  -0.075256  0.374632
O    0.902803  -0.396193  0.718140
H    -0.321179  1.439676  -1.136941
H    -1.628888  0.235446  -1.290775
H    0.061234  -0.185130  -1.709043
N    -1.258245  -0.119911  1.302033
C    -2.264976  0.933243  1.478586
C    -1.492305  2.258033  1.660004
O    -0.312797  2.225566  2.156537
H    -0.986216  -0.577860  2.172796
H    -2.903613  0.987240  0.586329
C    -3.146537  0.552895  2.710249
C    -4.104559  1.660885  3.155892
C    -3.909354  -0.745629  2.416177
H    -2.437040  0.373376  3.540762
H    -4.652338  1.321551  4.043053
H    -4.856122  1.882120  2.386607
H    -3.592888  2.590684  3.436109
H    -4.447600  -1.069237  3.315155
H    -3.257506  -1.573018  2.108327
H    -4.654304  -0.590885  1.623141
N    -2.012530  3.419334  1.294132
C    -3.294848  3.728154  0.656619
H    -1.422563  4.224252  1.509574
H    -3.977677  4.188837  1.380331
H    -3.761264  2.826846  0.253267
H    -3.115295  4.432855  -0.163049
Ba    1.908127  1.166856  2.355242
