29
Energy: -240770.091751 eV PBE+vdW (tier 2 basis)
C    -1.217004  -0.029930  -0.268162
C    -0.987788  0.454979  1.121726
O    -0.458548  1.646729  1.282291
H    -1.766323  -0.973224  -0.305665
H    -0.249693  -0.175561  -0.769318
H    -1.768368  0.734305  -0.831424
N    -1.287312  -0.225898  2.192621
C    -1.945668  -1.520246  2.408650
C    -2.725905  -1.219430  3.727516
O    -2.281604  -0.321802  4.462961
H    -1.221367  0.218964  3.140659
H    -2.628620  -1.747369  1.578064
C    -0.904046  -2.669976  2.589215
C    -1.593096  -4.003722  2.907402
C    0.000219  -2.816129  1.360703
H    -0.279540  -2.388286  3.453388
H    -2.111472  -3.995407  3.872744
H    -0.840816  -4.800076  2.956770
H    -2.308579  -4.288891  2.121017
H    0.572753  -1.905723  1.138206
H    -0.571997  -3.101310  0.465952
H    0.734430  -3.611300  1.538647
N    -3.820553  -1.944132  3.976080
C    -4.608876  -1.828741  5.201562
H    -4.085161  -2.661864  3.308973
H    -4.260900  -0.954592  5.757549
H    -4.485578  -2.724404  5.823557
H    -5.668775  -1.708024  4.950898
Ba    0.404189  3.721061  1.614415
