29
Energy: -240770.461752 eV PBE+vdW (tier 2 basis)
C    -0.739735  1.303221  1.700363
C    -1.492626  1.221290  2.989926
O    -1.339044  2.151518  3.846598
H    0.245201  0.819836  1.795082
H    -0.565533  2.363807  1.485515
H    -1.265362  0.838872  0.862967
N    -2.366778  0.226669  3.285804
C    -2.123740  -1.229869  3.204577
C    -1.194050  -1.555482  4.399467
O    -0.327067  -0.693907  4.779984
H    -2.927642  0.475687  4.102206
H    -3.101779  -1.696957  3.387915
C    -1.621926  -1.749156  1.825034
C    -1.270127  -3.242128  1.830660
C    -2.687259  -1.459084  0.758291
H    -0.695065  -1.211441  1.581950
H    -0.469531  -3.496920  2.537075
H    -0.909641  -3.519613  0.832869
H    -2.146114  -3.871411  2.034406
H    -2.291933  -1.691525  -0.237984
H    -3.027251  -0.416024  0.752699
H    -3.573969  -2.089788  0.913392
N    -1.306611  -2.694277  5.068519
C    -2.255573  -3.802536  4.931642
H    -0.609638  -2.807742  5.805502
H    -3.109726  -3.517382  4.314057
H    -2.615398  -4.073110  5.930753
H    -1.763507  -4.672742  4.481629
Ba    0.262427  1.562196  5.601103
