29
Energy: -240769.795989 eV PBE+vdW (tier 2 basis)
C    0.572057  1.121961  2.642084
C    0.191843  0.024337  3.591844
O    1.128846  -0.651295  4.160792
H    0.058522  2.063584  2.880921
H    0.308233  0.854312  1.607804
H    1.652318  1.284772  2.688206
N    -1.066976  -0.348256  3.889028
C    -2.208617  0.230816  3.178630
C    -2.657982  1.468673  3.938791
O    -2.374405  1.505502  5.220555
H    -1.770982  0.732544  5.374920
H    -1.952479  0.523127  2.149245
C    -3.346033  -0.850961  3.089058
C    -3.863542  -1.307750  4.457683
C    -4.505497  -0.458988  2.170965
H    -2.819469  -1.695909  2.609744
H    -4.459010  -0.530362  4.956957
H    -3.059582  -1.585337  5.159342
H    -4.516844  -2.181181  4.342152
H    -5.169231  -1.320374  2.026829
H    -4.163947  -0.146996  1.175676
H    -5.122651  0.340325  2.603015
N    -3.306146  2.499149  3.463614
C    -3.685016  2.805201  2.081573
H    -3.535009  3.215937  4.158053
H    -4.774119  2.751966  1.970660
H    -3.215326  2.105756  1.387524
H    -3.351734  3.823891  1.852943
Ba    -0.059223  -2.635443  4.795395
