29
Energy: -240769.896634 eV PBE+vdW (tier 2 basis)
C    0.851775  -0.027891  3.028190
C    -0.043651  -0.428483  4.163577
O    0.491690  -0.937232  5.216419
H    0.757726  -0.732910  2.188330
H    1.890908  -0.045631  3.368535
H    0.614950  0.975035  2.648701
N    -1.388470  -0.331516  4.172369
C    -2.112522  0.065765  2.967688
C    -2.532726  1.520152  3.146203
O    -2.404959  2.015981  4.349206
H    -1.950228  1.280231  4.858440
H    -1.480751  0.007539  2.067072
C    -3.357474  -0.851193  2.725298
C    -2.908335  -2.276841  2.395265
C    -4.374006  -0.811708  3.870066
H    -3.863976  -0.462948  1.828342
H    -2.410035  -2.768421  3.249369
H    -2.205329  -2.310573  1.552951
H    -3.771521  -2.901336  2.135218
H    -4.724926  0.201937  4.105372
H    -3.973206  -1.236587  4.806886
H    -5.256856  -1.410087  3.615045
N    -3.018157  2.305789  2.221638
C    -3.221453  2.019074  0.798506
H    -3.269215  3.246328  2.536443
H    -4.284514  1.838600  0.596493
H    -2.632716  1.151056  0.490267
H    -2.893268  2.890548  0.221950
Ba    -1.359758  -2.167679  6.114165
