29
Energy: -240769.986045 eV PBE+vdW (tier 2 basis)
C    0.502273  1.155880  0.721332
C    -0.034504  0.236000  1.769785
O    0.738871  -0.095260  2.774562
H    0.790035  2.112803  1.178554
H    -0.228102  1.352779  -0.069594
H    1.401219  0.716285  0.267412
N    -1.249416  -0.218788  1.661878
C    -2.014391  -1.135906  2.505436
C    -3.162375  -1.547001  1.523540
O    -3.318137  -0.854587  0.508075
H    -1.860032  -0.007357  0.826394
H    -1.392968  -2.008084  2.760159
C    -2.512946  -0.440883  3.810928
C    -3.495120  0.700607  3.529809
C    -3.085768  -1.450183  4.812954
H    -1.602828  -0.005970  4.264248
H    -3.756604  1.211818  4.464279
H    -4.428853  0.325678  3.089423
H    -3.083371  1.452622  2.844422
H    -3.238476  -0.966013  5.785605
H    -2.422253  -2.313482  4.972627
H    -4.069285  -1.823652  4.498619
N    -3.903601  -2.612448  1.845331
C    -5.029717  -3.083316  1.038359
H    -3.682456  -3.120990  2.694277
H    -5.970834  -2.965506  1.589488
H    -4.890067  -4.139984  0.783086
H    -5.071292  -2.489254  0.121978
Ba    2.379628  -0.331921  4.330308
