29
Energy: -240771.329001 eV PBE+vdW (tier 2 basis)
C    0.912694  2.280539  0.856939
C    0.217994  0.990171  1.146626
O    0.814827  0.056989  1.768158
H    1.188668  2.751453  1.811232
H    0.302927  2.982337  0.278689
H    1.847317  2.082358  0.316522
N    -1.052412  0.841598  0.748460
C    -1.924837  -0.291834  1.093694
C    -1.568889  -1.517484  0.222135
O    -0.690205  -2.332227  0.649163
H    -1.484963  1.623810  0.262193
H    -1.643377  -0.601412  2.111451
C    -3.407809  0.160094  1.171324
C    -4.017046  0.755143  -0.110326
C    -4.280749  -0.966574  1.737537
H    -3.382848  0.969189  1.920453
H    -4.914927  1.327444  0.153145
H    -4.368396  -0.011695  -0.818437
H    -3.360873  1.452202  -0.653532
H    -5.301406  -0.602016  1.903209
H    -3.905522  -1.331174  2.703265
H    -4.350974  -1.821524  1.050157
N    -2.161281  -1.686610  -0.946015
C    -1.908597  -2.797898  -1.864307
H    -2.859326  -0.997021  -1.216100
H    -2.822066  -2.997289  -2.432442
H    -1.631184  -3.689450  -1.295117
H    -1.101942  -2.544110  -2.564512
Ba    1.301396  -2.295830  2.063694
