29
Energy: -240771.329964 eV PBE+vdW (tier 2 basis)
C    0.883979  -0.301628  0.280300
C    0.476136  -0.153146  1.713553
O    1.357021  -0.148428  2.621166
H    0.044481  -0.297174  -0.422354
H    1.440571  -1.241937  0.167210
H    1.574303  0.511592  0.018550
N    -0.835722  -0.026512  1.970541
C    -1.608602  0.085931  3.232676
C    -1.163763  1.248713  4.134888
O    -0.071551  1.241917  4.774990
H    -1.423739  -0.057218  1.142149
H    -2.611126  0.354425  2.873002
C    -1.824788  -1.259494  3.991575
C    -0.586727  -1.926292  4.604780
C    -2.929625  -1.084761  5.042229
H    -2.200958  -1.942191  3.212161
H    -0.853848  -2.927129  4.966973
H    -0.243460  -1.376125  5.499319
H    0.225679  -2.064614  3.877942
H    -3.179715  -2.053227  5.491500
H    -3.853960  -0.684268  4.605017
H    -2.619994  -0.417273  5.859774
N    -2.018935  2.254832  4.267350
C    -1.800109  3.409529  5.140347
H    -2.883927  2.225404  3.735921
H    -1.472879  3.073856  6.130364
H    -2.742211  3.955569  5.235873
H    -1.040180  4.076806  4.714366
Ba    2.150649  0.238844  4.859838
