29
Energy: -240771.021888 eV PBE+vdW (tier 2 basis)
C    0.118722  -0.408136  0.124073
C    -0.044736  -0.137583  1.582124
O    0.934807  0.254242  2.292090
H    0.443188  0.515678  -0.375141
H    -0.798225  -0.767499  -0.354189
H    0.917359  -1.147351  -0.022923
N    -1.247852  -0.307411  2.149300
C    -1.498122  0.061832  3.544518
C    -0.718855  -0.850645  4.514892
O    0.168503  -0.279737  5.236782
H    -2.033519  -0.562805  1.555933
H    -0.997704  1.031033  3.689259
C    -2.990027  0.359251  3.871424
C    -3.439124  1.586172  3.061001
C    -3.983795  -0.796368  3.723460
H    -2.971444  0.650273  4.934559
H    -4.425235  1.916754  3.407246
H    -3.537592  1.365974  1.988214
H    -2.749775  2.434349  3.172915
H    -4.994979  -0.418314  3.917232
H    -3.808570  -1.605495  4.439967
H    -4.007608  -1.220036  2.707647
N    -0.879357  -2.163206  4.619213
C    -1.682040  -3.116007  3.851808
H    -0.295208  -2.576955  5.347455
H    -1.026041  -3.924657  3.507417
H    -2.139187  -2.638015  2.986369
H    -2.468203  -3.547082  4.482778
Ba    2.142036  0.855074  4.336413
