29
Energy: -240769.994024 eV PBE+vdW (tier 2 basis)
C    -0.149475  -1.208384  2.283661
C    -0.609822  -0.841491  3.653334
O    -0.046470  -1.437235  4.679794
H    0.946098  -1.159275  2.239464
H    -0.569471  -0.564512  1.506356
H    -0.440106  -2.246593  2.067728
N    -1.539425  0.038850  3.890431
C    -2.363569  0.862752  2.996033
C    -2.846418  1.962794  3.990585
O    -2.834924  1.667195  5.200591
H    -1.831345  0.300335  4.867941
H    -1.740504  1.282006  2.195181
C    -3.525010  0.012980  2.378113
C    -4.481503  -0.545173  3.436745
C    -4.283208  0.763246  1.280709
H    -3.012613  -0.838088  1.896796
H    -5.045494  0.252899  3.937491
H    -3.965571  -1.125797  4.213579
H    -5.208856  -1.212153  2.958453
H    -4.966097  0.069279  0.775325
H    -3.616365  1.179058  0.513771
H    -4.898683  1.574180  1.689706
N    -3.267085  3.153912  3.548418
C    -3.178182  3.762158  2.224118
H    -3.603357  3.754318  4.300277
H    -2.711058  4.749961  2.315102
H    -4.171424  3.882073  1.774623
H    -2.563648  3.155381  1.554548
Ba    0.895960  -2.410882  6.501826
