29
Energy: -240771.374945 eV PBE+vdW (tier 2 basis)
C    1.141740  0.387623  0.752918
C    0.019086  0.162824  1.715652
O    -1.052259  -0.391397  1.326496
H    2.031726  0.831930  1.210200
H    0.785648  1.049616  -0.049314
H    1.415368  -0.565169  0.281556
N    0.189221  0.570552  2.981875
C    -0.786205  0.615963  4.094532
C    -1.112272  -0.796226  4.611728
O    -1.851959  -1.581789  3.945165
H    1.082776  1.013431  3.175649
H    -0.248655  1.146067  4.893989
C    -2.066511  1.446806  3.813033
C    -2.921240  1.518808  5.085484
C    -1.713983  2.843400  3.291738
H    -2.651988  0.932368  3.028977
H    -3.833699  2.095958  4.894564
H    -2.381671  2.030787  5.895015
H    -3.228554  0.530892  5.455350
H    -2.630213  3.421405  3.121567
H    -1.162444  2.819103  2.343927
H    -1.112083  3.399384  4.024848
N    -0.613265  -1.136291  5.791377
C    -0.836841  -2.408610  6.477058
H    -0.032137  -0.452989  6.270331
H    -1.152186  -2.212527  7.508084
H    0.090471  -2.994945  6.492181
H    -1.616117  -2.967286  5.954483
Ba    -2.882754  -1.895689  1.757539
