29
Energy: -240771.376251 eV PBE+vdW (tier 2 basis)
C    0.706718  2.033598  1.505955
C    -0.245992  0.898014  1.707061
O    0.095952  -0.104158  2.403693
H    1.038368  2.409586  2.482467
H    0.288522  2.861588  0.924458
H    1.599972  1.652294  0.990912
N    -1.451406  0.981615  1.125361
C    -2.521599  -0.036601  1.027821
C    -3.208960  -0.260252  2.386147
O    -2.631979  -0.904242  3.313979
H    -1.609331  1.824163  0.580076
H    -3.260119  0.421847  0.354368
C    -2.099443  -1.371843  0.358875
C    -3.326711  -2.280487  0.207031
C    -1.414936  -1.121091  -0.988361
H    -1.370634  -1.877862  1.018406
H    -3.036896  -3.230829  -0.256657
H    -4.079664  -1.820429  -0.448761
H    -3.810729  -2.516086  1.164838
H    -1.143724  -2.076328  -1.453654
H    -0.495696  -0.529600  -0.897208
H    -2.089413  -0.602029  -1.684470
N    -4.436635  0.218069  2.527518
C    -5.272711  0.072248  3.718906
H    -4.837828  0.725478  1.743092
H    -6.294810  -0.171044  3.409728
H    -5.285225  1.008821  4.291020
H    -4.876394  -0.732415  4.342539
Ba    -0.475701  -1.813025  4.000862
