29
Energy: -240771.048153 eV PBE+vdW (tier 2 basis)
C    1.347423  0.030136  0.890145
C    0.876805  -0.898599  1.959094
O    1.691740  -1.410182  2.789466
H    1.819780  0.903694  1.361010
H    0.543951  0.372893  0.230199
H    2.121644  -0.466450  0.290274
N    -0.429977  -1.188895  2.043045
C    -0.988116  -1.983969  3.139036
C    -0.525620  -3.458546  3.059373
O    0.259660  -3.855723  3.985882
H    -1.072101  -0.729841  1.400913
H    -0.477275  -1.640785  4.050907
C    -2.490101  -1.687061  3.415042
C    -3.471815  -1.805936  2.245390
C    -2.956269  -2.514987  4.619317
H    -2.475431  -0.627217  3.721540
H    -4.414623  -1.324167  2.532702
H    -3.710516  -2.847147  2.001586
H    -3.144556  -1.298281  1.325060
H    -3.968057  -2.211700  4.912146
H    -2.307966  -2.378300  5.495532
H    -2.995897  -3.588730  4.384977
N    -0.852414  -4.306557  2.094591
C    -1.611355  -4.131223  0.856888
H    -0.472066  -5.242440  2.242870
H    -1.047170  -4.593167  0.038301
H    -1.756364  -3.074910  0.631863
H    -2.587687  -4.624680  0.931353
Ba    2.447717  -2.924253  4.552736
