29
Energy: -240770.148849 eV PBE+vdW (tier 2 basis)
C    -1.035557  0.481859  -0.148499
C    -1.138538  0.822230  1.299427
O    -0.700580  1.995548  1.695764
H    0.020689  0.326014  -0.412268
H    -1.403108  1.322162  -0.750671
H    -1.592152  -0.421339  -0.413114
N    -1.639146  0.019880  2.194587
C    -2.224702  -1.320334  2.091275
C    -3.001111  -1.400721  3.444747
O    -2.736537  -0.553665  4.316166
H    -1.759926  0.305977  3.203885
H    -2.929824  -1.355215  1.247763
C    -1.134674  -2.423406  1.912733
C    -0.203627  -2.529904  3.124071
C    -1.748959  -3.778397  1.542813
H    -0.537464  -2.093469  1.045767
H    0.278384  -1.573869  3.370237
H    0.592635  -3.255949  2.920773
H    -0.741081  -2.873377  4.018546
H    -2.240873  -4.257238  2.400223
H    -0.957068  -4.464413  1.218140
H    -2.469637  -3.701861  0.716007
N    -3.897178  -2.380868  3.579793
C    -4.672176  -2.612814  4.797518
H    -4.043370  -3.011157  2.798001
H    -4.426470  -1.830954  5.520234
H    -4.424963  -3.592635  5.224053
H    -5.744395  -2.579019  4.571577
Ba    -0.006593  4.026935  2.434453
