29
Energy: -240770.249801 eV PBE+vdW (tier 2 basis)
C    -0.026369  0.668417  1.785713
C    -1.136953  1.156959  2.654194
O    -1.111333  2.332365  3.135207
H    0.011442  -0.419334  1.679412
H    0.937836  1.056378  2.130995
H    -0.194569  1.089544  0.780674
N    -2.189440  0.361771  2.940562
C    -2.092841  -1.076361  3.255481
C    -0.960541  -1.198438  4.328315
O    -0.739251  -0.162564  5.054335
H    -2.969271  0.854040  3.370893
H    -3.005929  -1.273434  3.843398
C    -2.177422  -2.044241  2.030577
C    -2.969985  -3.302844  2.423526
C    -2.857474  -1.376957  0.826819
H    -1.158564  -2.321350  1.719622
H    -2.861661  -4.081404  1.659222
H    -4.040121  -3.062373  2.496674
H    -2.670146  -3.739577  3.383537
H    -2.978243  -2.121865  0.030876
H    -2.283384  -0.543486  0.406796
H    -3.860572  -1.008307  1.081517
N    -0.240826  -2.280027  4.591782
C    -0.135525  -3.629507  4.022492
H    0.359429  -2.131269  5.403943
H    -0.807754  -4.320318  4.546033
H    0.895780  -3.964525  4.173608
H    -0.352074  -3.638117  2.955808
Ba    -0.660242  2.252825  5.556989
