29
Energy: -240769.567365 eV PBE+vdW (tier 2 basis)
C    0.318136  -0.663944  2.271451
C    -0.272116  -0.266584  3.592405
O    0.535666  -0.269858  4.607903
H    1.039896  0.106796  1.964628
H    -0.399368  -0.824768  1.462272
H    0.900234  -1.583298  2.412368
N    -1.536323  0.074564  3.855395
C    -2.579939  0.024998  2.839631
C    -3.257339  1.389050  2.800957
O    -4.482722  1.584197  3.243126
H    -4.918163  0.737786  3.462572
H    -2.156236  -0.102579  1.828183
C    -3.576081  -1.153331  3.053947
C    -2.997325  -2.440362  2.451878
C    -3.971067  -1.383436  4.525134
H    -4.490077  -0.926113  2.473507
H    -2.040501  -2.707256  2.923952
H    -2.831159  -2.344645  1.371477
H    -3.685729  -3.280312  2.604899
H    -3.176665  -1.939161  5.051429
H    -4.859231  -2.024144  4.587762
H    -4.196738  -0.464781  5.092006
N    -2.671526  2.465527  2.343381
C    -1.324793  2.582689  1.778131
H    -3.234047  3.318825  2.380211
H    -1.109437  1.738666  1.115366
H    -0.574419  2.629517  2.576219
H    -1.285923  3.505078  1.192372
Ba    -0.987008  -0.283124  6.426438
