29
Energy: -240771.381095 eV PBE+vdW (tier 2 basis)
C    0.383951  0.279247  -0.092957
C    -0.221871  1.049422  1.034550
O    0.058207  2.276328  1.207626
H    0.070559  0.741691  -1.039873
H    0.096232  -0.777132  -0.102105
H    1.477892  0.356021  -0.046868
N    -1.076965  0.422806  1.852981
C    -1.875401  1.069620  2.907083
C    -0.974134  1.313880  4.138745
O    -0.326579  2.404625  4.218518
H    -1.276091  -0.555278  1.656592
H    -2.136982  2.073958  2.538038
C    -3.194764  0.306950  3.167729
C    -4.040874  1.052081  4.210172
C    -3.990131  0.116974  1.867383
H    -2.949891  -0.700034  3.558788
H    -4.354426  2.034003  3.827967
H    -3.523024  1.208221  5.165422
H    -4.953117  0.483944  4.425726
H    -4.240932  1.085805  1.412501
H    -4.933564  -0.396947  2.085668
H    -3.468657  -0.487075  1.113481
N    -0.877944  0.366549  5.055388
C    -0.061157  0.424854  6.267225
H    -1.456428  -0.460962  4.926341
H    0.354377  1.428993  6.373821
H    0.751806  -0.309533  6.207953
H    -0.687135  0.193696  7.136711
Ba    0.606040  4.091293  2.711395
