29
Energy: -240771.284639 eV PBE+vdW (tier 2 basis)
C    -3.231885  1.804464  1.325098
C    -2.315039  1.025928  2.214964
O    -1.465083  1.627896  2.935987
H    -3.953157  1.183528  0.783954
H    -2.623109  2.359284  0.597016
H    -3.773465  2.550154  1.921333
N    -2.426674  -0.311266  2.209747
C    -1.569112  -1.331472  2.852736
C    -1.765430  -1.339474  4.376496
O    -1.285558  -0.407324  5.094984
H    -3.130418  -0.680584  1.577109
H    -1.950604  -2.280753  2.457448
C    -0.067065  -1.277938  2.465061
C    0.661088  -2.476508  3.089017
C    0.108113  -1.243028  0.944063
H    0.370955  -0.351134  2.878062
H    0.269130  -3.424696  2.694141
H    0.583800  -2.506025  4.184747
H    1.727787  -2.443448  2.837630
H    -0.344859  -0.357226  0.482144
H    -0.327909  -2.136071  0.473722
H    1.175189  -1.233388  0.691086
N    -2.416623  -2.342646  4.948167
C    -3.026514  -3.524567  4.325566
H    -2.468562  -2.283356  5.965286
H    -2.263187  -4.185342  3.896964
H    -3.755880  -3.239404  3.558859
H    -3.557822  -4.076031  5.106046
Ba    -0.288106  1.811430  5.032567
