29
Energy: -240771.334185 eV PBE+vdW (tier 2 basis)
C    -0.270641  1.559287  -0.217588
C    -0.866294  1.940248  1.099342
O    -0.913865  3.157481  1.459717
H    -0.870325  2.020147  -1.015784
H    -0.234834  0.477399  -0.382230
H    0.742495  1.972387  -0.301277
N    -1.356998  0.969513  1.879053
C    -2.147806  1.143819  3.105448
C    -1.220394  1.412864  4.311700
O    -0.672779  2.555769  4.419042
H    -1.284480  0.015417  1.532140
H    -2.705435  2.086649  2.987725
C    -3.189028  0.000190  3.244757
C    -4.377074  0.260602  2.307408
C    -2.625102  -1.415114  3.017577
H    -3.566937  0.067847  4.277965
H    -5.129819  -0.528515  2.420872
H    -4.069102  0.265365  1.251997
H    -4.868033  1.217714  2.527364
H    -1.691796  -1.640970  3.555115
H    -2.442461  -1.621297  1.951333
H    -3.365431  -2.158545  3.335704
N    -1.027359  0.478004  5.223619
C    -0.191423  0.645596  6.415309
H    -1.501069  -0.411906  5.095455
H    -0.556678  1.483561  7.020575
H    0.849801  0.834271  6.128441
H    -0.242010  -0.273422  7.004429
Ba    -0.380122  4.684643  3.251791
