29
Energy: -240769.796879 eV PBE+vdW (tier 2 basis)
C    0.742837  0.938220  3.008584
C    0.171900  -0.004912  4.026288
O    0.982237  -0.663641  4.779756
H    1.820618  1.034109  3.166067
H    0.282691  1.934009  3.072569
H    0.576146  0.561701  1.988117
N    -1.137898  -0.254863  4.209587
C    -2.143045  0.304587  3.303978
C    -2.575645  1.653566  3.856441
O    -2.435493  1.830344  5.150194
H    -1.916135  1.044838  5.464340
H    -1.750521  0.450102  2.286411
C    -3.345049  -0.703827  3.202802
C    -4.047329  -0.953189  4.542265
C    -4.359942  -0.353954  2.112623
H    -2.836443  -1.633924  2.891096
H    -4.632226  -0.083151  4.872566
H    -3.351736  -1.192976  5.363461
H    -4.750102  -1.790246  4.450104
H    -4.956935  0.530660  2.372410
H    -5.068947  -1.181907  1.989569
H    -3.885808  -0.189850  1.136476
N    -3.082796  2.657309  3.190842
C    -3.280358  2.813679  1.747356
H    -3.330456  3.467893  3.765323
H    -2.845846  3.773105  1.444434
H    -4.351129  2.816360  1.513400
H    -2.791704  2.005486  1.199995
Ba    -0.422886  -2.471528  5.491947
