29
Energy: -240771.235055 eV PBE+vdW (tier 2 basis)
C    0.766569  0.005691  0.236580
C    0.430031  0.126259  1.690978
O    1.346023  0.353844  2.531770
H    -0.099588  -0.185665  -0.405039
H    1.493029  -0.808468  0.108890
H    1.260614  0.929126  -0.094143
N    -0.860728  -0.015008  2.036844
C    -1.558665  -0.018123  3.345937
C    -1.315744  1.251033  4.175512
O    -0.205082  1.478519  4.745437
H    -1.478473  -0.207005  1.253133
H    -2.613703  0.008984  3.051495
C    -1.428943  -1.340984  4.162667
C    -0.042840  -1.704297  4.709373
C    -2.480668  -1.356055  5.280755
H    -1.697706  -2.122676  3.433409
H    -0.067502  -2.723744  5.115025
H    0.227972  -1.058231  5.563417
H    0.734641  -1.697491  3.932723
H    -2.472759  -2.324938  5.794124
H    -3.496382  -1.208545  4.890856
H    -2.287024  -0.584929  6.040925
N    -2.319327  2.105399  4.342193
C    -3.684297  2.063560  3.803441
H    -2.096442  2.889911  4.954937
H    -4.169568  3.011523  4.052024
H    -4.266427  1.251657  4.256369
H    -3.679347  1.965160  2.711956
Ba    2.178623  0.988179  4.703203
