29
Energy: -240769.946483 eV PBE+vdW (tier 2 basis)
C    0.269530  -0.484112  -0.145454
C    0.075195  -0.298394  1.322857
O    0.858343  -0.922341  2.152378
H    1.299464  -0.226292  -0.425956
H    -0.424989  0.118006  -0.739365
H    0.120025  -1.544865  -0.392752
N    -0.881591  0.487787  1.751399
C    -1.389482  0.725598  3.108209
C    -2.893178  1.040143  2.802067
O    -3.121213  1.595557  1.721460
H    -1.525923  0.965451  1.084927
H    -1.258166  -0.184672  3.710946
C    -0.692196  1.945542  3.783505
C    -1.380405  2.381724  5.081419
C    0.802463  1.694554  4.044833
H    -0.763544  2.774354  3.060869
H    -0.862072  3.251259  5.503758
H    -1.368894  1.588235  5.842426
H    -2.419866  2.682640  4.910934
H    1.265989  2.575325  4.506677
H    1.354050  1.491310  3.111673
H    0.916597  0.866960  4.778886
N    -3.859985  0.709348  3.672978
C    -3.794962  0.009820  4.949227
H    -4.785485  0.997413  3.356249
H    -4.581749  -0.752752  4.982942
H    -3.937511  0.698727  5.792327
H    -2.831813  -0.495139  5.069677
Ba    2.576434  -1.244421  3.631090
