29
Energy: -240770.136471 eV PBE+vdW (tier 2 basis)
C    -1.404531  -0.085649  -0.195134
C    -1.138273  0.328480  1.210767
O    -0.574652  1.497764  1.413905
H    -1.890895  0.741032  -0.728558
H    -2.028330  -0.979671  -0.264377
H    -0.452862  -0.292028  -0.705064
N    -1.439292  -0.387714  2.258143
C    -2.155604  -1.655120  2.431750
C    -2.825597  -1.426019  3.824029
O    -2.436859  -0.464597  4.509777
H    -1.381162  0.036075  3.220030
H    -2.921611  -1.763817  1.651119
C    -1.224110  -2.904908  2.441944
C    -0.607290  -3.185249  1.069163
C    -0.158651  -2.833999  3.540800
H    -1.899109  -3.744883  2.676131
H    -0.062974  -4.137281  1.096068
H    0.123169  -2.414781  0.782537
H    -1.363867  -3.267711  0.277036
H    -0.589564  -2.683586  4.538755
H    0.560414  -2.022886  3.354322
H    0.412308  -3.769639  3.565948
N    -3.758935  -2.305699  4.195963
C    -4.443454  -2.270402  5.487466
H    -4.006257  -3.050791  3.552145
H    -4.238249  -3.189613  6.049272
H    -5.525267  -2.173075  5.338235
H    -4.074453  -1.410427  6.051785
Ba    0.317956  3.541194  1.841047
