29
Energy: -240770.4423 eV PBE+vdW (tier 2 basis)
C    -2.341053  1.922495  1.753194
C    -2.093003  1.510351  3.163716
O    -1.467082  2.276980  3.958027
H    -3.003399  1.246299  1.209715
H    -1.402340  2.071475  1.204193
H    -2.822188  2.912008  1.805134
N    -2.612671  0.362808  3.692178
C    -2.452774  -1.049950  3.284180
C    -1.674331  -1.693697  4.453673
O    -0.757067  -1.011305  5.024697
H    -2.675463  0.447928  4.705816
H    -3.447904  -1.504271  3.194842
C    -1.700485  -1.277365  1.934735
C    -0.230568  -0.831952  1.934008
C    -1.813903  -2.737531  1.476092
H    -2.246905  -0.674974  1.196155
H    -0.091831  0.225893  2.214327
H    0.178594  -0.919794  0.919927
H    0.390200  -1.462961  2.585286
H    -1.234482  -3.420897  2.111454
H    -1.413077  -2.832470  0.459890
H    -2.855754  -3.079821  1.443756
N    -1.929895  -2.925099  4.865058
C    -2.972922  -3.873021  4.462596
H    -1.306970  -3.245706  5.608355
H    -3.415830  -4.302561  5.368041
H    -2.542511  -4.680473  3.858544
H    -3.758000  -3.375610  3.889411
Ba    0.387617  1.171223  5.232000
