18
Energy: -100593.301663 eV PBE+vdW (tier 2 basis)
N    -0.286845  0.455069  -0.080847
C    0.001811  0.168161  1.362395
C    1.420381  -0.435673  1.364954
O    2.145685  -0.356898  0.399634
H    0.626963  0.561447  -0.560285
H    -0.872246  1.281983  -0.227840
H    0.074527  1.119551  1.909710
C    -1.091036  -0.697566  2.021939
C    -1.533216  -1.917259  1.228043
O    -2.108510  -2.891596  1.927505
N    -1.368458  -1.908108  -0.045967
H    -1.984107  -0.080739  2.212520
H    -0.721886  -1.009898  3.005685
H    -0.772284  -0.471653  -0.429088
H    -1.699127  -2.738901  -0.542427
O    1.729685  -0.982596  2.546272
H    2.669965  -1.258792  2.520388
Sr    -3.083298  -4.494530  2.926407
