18
Energy: -100593.435935 eV PBE+vdW (tier 2 basis)
N    -0.052863  1.008035  0.542025
C    0.091415  0.171332  1.708329
C    1.595799  0.189102  1.991512
O    2.467488  -0.214758  1.294486
H    -1.010252  1.302196  0.362067
H    0.367147  0.620241  -0.301855
H    -0.441563  0.679095  2.528491
C    -0.429613  -1.287030  1.604824
C    -0.467283  -2.034993  2.918522
O    -0.109820  -1.464079  4.006782
N    -0.886354  -3.286134  2.931139
H    0.180209  -1.852613  0.882338
H    -1.449028  -1.259071  1.188275
H    -1.172086  -3.761390  2.078373
H    -0.938714  -3.812699  3.801126
O    1.930457  0.822747  3.259043
H    2.888543  1.028820  3.184232
Sr    0.785414  0.119007  5.322878
