18
Energy: -100595.082019 eV PBE+vdW (tier 2 basis)
N    -1.249344  -0.511923  0.686977
C    -0.164100  -0.060644  1.603483
C    1.118832  0.110740  0.782449
O    1.295751  -0.441224  -0.311115
H    -1.607581  0.306188  0.182315
H    -2.043403  -0.829333  1.251556
H    -0.392912  0.923824  2.040705
C    0.045089  -1.014257  2.802019
C    0.429117  -2.454372  2.481136
O    0.344360  -2.922319  1.310453
N    0.836475  -3.211222  3.489863
H    -0.887162  -1.035933  3.390628
H    0.797820  -0.572165  3.470594
H    0.915547  -2.859550  4.439856
H    1.066624  -4.190109  3.330067
O    1.996209  0.891393  1.366455
H    2.812339  0.980621  0.826264
Sr    -0.120663  -2.321714  -0.875706
