18
Energy: -100594.520434 eV PBE+vdW (tier 2 basis)
N    2.185999  -5.028290  -0.710281
C    1.949060  -5.359539  0.692539
C    2.963189  -6.469214  1.047785
O    2.921752  -7.134004  2.106307
H    1.536870  -5.461258  -1.367360
H    2.222892  -4.026652  -0.894472
H    2.264559  -4.495021  1.300046
C    0.487488  -5.667007  1.133607
C    -0.081186  -7.004412  0.697457
O    0.297767  -8.084502  1.246007
N    -0.991821  -7.025891  -0.266998
H    -0.143598  -4.839491  0.785629
H    0.446826  -5.647339  2.231549
H    -1.367171  -6.175159  -0.675602
H    -1.414433  -7.908430  -0.551379
O    3.876836  -6.656344  0.155717
H    3.598605  -5.988266  -0.584440
Sr    1.785369  -9.013182  2.753889
