18
Energy: -100594.208954 eV PBE+vdW (tier 2 basis)
N    0.175933  0.908700  0.761124
C    -0.544191  -0.194898  1.343534
C    0.312850  -0.933220  2.367180
O    -0.127878  -1.868119  3.073023
H    0.645916  1.498140  1.447011
H    -2.978809  -1.275834  -1.505907
H    -1.462060  0.074819  1.914748
C    -0.966373  -1.159472  0.174305
C    -2.292604  -1.862650  0.336461
O    -2.568137  -2.525650  1.387877
N    -3.168199  -1.793402  -0.652454
H    -0.196075  -1.930083  0.015698
H    -0.961254  -0.553911  -0.739627
H    -0.429816  1.503397  0.196895
H    -4.054071  -2.292242  -0.591566
O    1.541043  -0.504758  2.470901
H    2.039895  -1.000401  3.156653
Sr    -1.947171  -3.281414  3.427145
