18
Energy: -100594.253435 eV PBE+vdW (tier 2 basis)
N    0.546170  0.708419  0.765730
C    -0.528630  -0.169864  1.187971
C    -0.046701  -1.024938  2.361600
O    0.329871  -2.219367  2.288404
H    0.712153  1.494103  1.392372
H    -3.582481  -0.570235  -0.550071
H    -1.342884  0.461405  1.572966
C    -1.022504  -0.955666  -0.053440
C    -2.187667  -1.895626  0.159277
O    -1.999692  -3.067256  0.622252
N    -3.407666  -1.485428  -0.144750
H    -0.191309  -1.544746  -0.468788
H    -1.265264  -0.192498  -0.803347
H    1.424241  0.239582  0.546542
H    -4.205432  -2.106727  -0.021563
O    0.024667  -0.340238  3.481292
H    0.460184  -0.851250  4.196273
Sr    -0.395055  -4.331667  1.619276
