18
Energy: -100594.477041 eV PBE+vdW (tier 2 basis)
N    -0.530149  0.447765  -0.077467
C    0.036594  0.069700  1.253139
C    1.552811  -0.135237  1.211023
O    2.255636  -0.254872  2.163556
H    -0.308805  1.435161  -0.249247
H    -1.553244  0.431314  -0.003295
H    -0.102787  0.889393  1.976192
C    -0.649343  -1.162032  1.880678
C    -0.474163  -2.474259  1.133942
O    -0.112459  -2.494326  -0.081627
N    -0.731546  -3.595914  1.784882
H    -1.729691  -0.962387  1.976380
H    -0.276928  -1.267391  2.909554
H    -1.005825  -3.605854  2.763648
H    -0.662069  -4.492683  1.307150
O    2.074045  -0.183804  -0.108289
H    3.049925  -0.220019  -0.002448
Sr    0.505872  -1.160429  -1.838129
