18
Energy: -100594.097466 eV PBE+vdW (tier 2 basis)
N    0.480404  -0.885310  -0.356934
C    0.042796  -0.263190  0.936012
C    1.333230  0.184215  1.669680
O    2.416998  -0.242767  1.335827
H    0.638847  -0.100909  -1.002953
H    1.458192  -1.180140  -0.146245
H    -0.572902  0.620663  0.721788
C    -0.732706  -1.215604  1.878923
C    -2.087634  -1.642520  1.366633
O    -2.188920  -2.229326  0.240163
N    -3.160659  -1.416576  2.102106
H    -0.827085  -0.719496  2.853030
H    -0.141190  -2.130314  2.052162
H    -3.108700  -0.959843  3.008456
H    -4.076976  -1.728548  1.783223
O    1.069494  1.025757  2.665934
H    1.904268  1.277654  3.116250
Sr    -0.911602  -2.678474  -1.559011
