18
Energy: -100594.299018 eV PBE+vdW (tier 2 basis)
N    -0.099209  1.147532  0.793204
C    -0.570943  -0.118646  1.266140
C    0.350823  -0.908104  2.217775
O    -0.048423  -1.851380  2.938095
H    -0.054543  1.865537  1.513747
H    -3.023647  -1.073670  -1.568944
H    -1.484278  0.063659  1.856318
C    -0.952949  -1.022816  0.035926
C    -2.244576  -1.787091  0.187623
O    -2.455610  -2.536703  1.196862
N    -3.159696  -1.672468  -0.759310
H    -0.160193  -1.753053  -0.190733
H    -1.009306  -0.339783  -0.820121
H    0.792272  1.110964  0.300193
H    -4.029205  -2.199720  -0.703626
O    1.594792  -0.506978  2.224239
H    2.141733  -1.030228  2.850160
Sr    -1.813041  -3.357058  3.203452
