18
Energy: -100594.61424 eV PBE+vdW (tier 2 basis)
N    0.723840  -1.824847  -2.917849
C    1.184558  -2.553980  -1.735023
C    2.735322  -2.464612  -1.776854
O    3.486058  -3.057469  -0.972244
H    0.007066  -1.127647  -2.721917
H    0.404924  -2.422267  -3.681529
H    0.883734  -1.987554  -0.839274
C    0.632112  -4.010088  -1.631790
C    0.579272  -4.612512  -0.237087
O    1.628320  -4.854269  0.431485
N    -0.612588  -4.901894  0.265617
H    1.226753  -4.689295  -2.261533
H    -0.380713  -3.999075  -2.052867
H    -1.474187  -4.743600  -0.247833
H    -0.686999  -5.338911  1.182630
O    3.192940  -1.699120  -2.701685
H    2.315810  -1.387668  -3.171392
Sr    3.882778  -4.546189  0.702144
