18
Energy: -100593.434137 eV PBE+vdW (tier 2 basis)
N    4.370818  1.648867  -0.469981
C    4.256855  1.704888  0.973016
C    4.905494  0.477369  1.586635
O    5.684692  -0.258342  1.074321
H    1.807506  1.134768  -0.904767
H    4.577465  2.567136  -0.862935
H    4.826670  2.539503  1.433860
C    2.768469  1.949284  1.380005
C    1.905457  0.752679  1.084752
O    1.637975  -0.073319  2.029268
N    1.489969  0.536357  -0.143849
H    2.432946  2.829166  0.817071
H    2.683027  2.199793  2.444778
H    5.106366  1.009033  -0.772978
H    0.938461  -0.289080  -0.372927
O    4.577264  0.264266  3.004850
H    5.402647  -0.149352  3.339437
Sr    2.472919  -0.759017  3.977445
