18
Energy: -100594.636981 eV PBE+vdW (tier 2 basis)
N    0.706607  -1.908632  -3.128242
C    1.131951  -2.490472  -1.799757
C    2.700644  -2.339843  -1.862327
O    3.358330  -2.722821  -0.835811
H    1.699076  -1.657746  -3.521254
H    0.123573  -1.068733  -3.044926
H    0.741046  -1.840323  -1.006705
C    0.611015  -3.940547  -1.630874
C    0.564634  -4.465847  -0.195803
O    1.605588  -4.633020  0.493750
N    -0.628521  -4.780079  0.296104
H    1.238941  -4.637003  -2.208074
H    -0.401599  -4.003797  -2.052219
H    -1.486797  -4.686412  -0.237357
H    -0.699808  -5.182005  1.229234
O    3.148323  -1.859536  -2.905748
H    0.237588  -2.571391  -3.755645
Sr    3.835411  -4.065794  0.858659
