18
Energy: -100593.515623 eV PBE+vdW (tier 2 basis)
N    0.051606  0.527189  0.242393
C    0.221973  0.010929  1.578389
C    1.655050  0.230113  2.097840
O    2.682310  -0.041339  1.569397
H    0.694907  0.117271  -0.436402
H    0.115942  1.542706  0.185351
H    -0.481714  0.553522  2.229733
C    -0.135767  -1.487398  1.582080
C    -0.388493  -2.091880  2.941100
O    -0.282158  -1.395078  4.007809
N    -0.739576  -3.362435  3.009061
H    0.650391  -2.067167  1.071367
H    -1.043446  -1.596069  0.966218
H    -0.836356  -3.935472  2.174179
H    -0.937671  -3.802938  3.905009
O    1.695695  0.949828  3.385176
H    2.628423  1.250090  3.456080
Sr    0.281883  0.346127  5.298219
