18
Energy: -100594.283826 eV PBE+vdW (tier 2 basis)
N    0.625954  -0.054342  0.145763
C    -0.032871  0.036862  1.441124
C    0.945088  0.188172  2.597215
O    0.793709  -0.328924  3.723494
H    0.060140  0.391799  -0.577594
H    1.535550  0.406483  0.130809
H    -0.649663  0.957444  1.544537
C    -1.020571  -1.148855  1.627374
C    -0.340647  -2.491283  1.774595
O    -0.239955  -3.031088  2.927673
N    0.169154  -3.069694  0.704513
H    -1.679694  -1.150111  0.749099
H    -1.666112  -0.985681  2.499138
H    0.175784  -2.582243  -0.189562
H    0.639197  -3.970401  0.773742
O    1.959736  0.970832  2.315121
H    2.536768  1.119061  3.095015
Sr    0.147432  -2.214031  4.999944
