29
Energy: -102823.007999 eV PBE+vdW (tier 2 basis)
C    -0.032189  0.685961  1.769483
C    -1.126707  1.159135  2.663904
O    -1.083870  2.321970  3.179163
H    0.004520  -0.400366  1.648182
H    0.937788  1.073182  2.098811
H    -0.223358  1.118235  0.772821
N    -2.183993  0.367177  2.943344
C    -2.091415  -1.072934  3.256592
C    -0.965420  -1.197978  4.336182
O    -0.745197  -0.159620  5.063964
H    -2.958186  0.859973  3.384190
H    -3.008184  -1.268079  3.839619
C    -2.172266  -2.040944  2.031849
C    -2.964288  -3.300354  2.424144
C    -2.853357  -1.373989  0.828308
H    -1.152415  -2.316308  1.722341
H    -2.852872  -4.079075  1.660484
H    -4.034869  -3.061089  2.494064
H    -2.666938  -3.736484  3.385177
H    -2.972684  -2.118940  0.032216
H    -2.281056  -0.539372  0.408191
H    -3.857199  -1.007633  1.083241
N    -0.250614  -2.278393  4.607775
C    -0.138834  -3.627412  4.037812
H    0.343230  -2.130307  5.425233
H    -0.805686  -4.320784  4.564843
H    0.894935  -3.956105  4.186316
H    -0.359540  -3.636823  2.972125
Sr    -0.675338  2.113354  5.448623
