29
Energy: -102823.537701 eV PBE+vdW (tier 2 basis)
C    0.818393  0.497518  1.865584
C    0.145130  1.729405  2.372059
O    0.805581  2.795515  2.587967
H    1.832862  0.461758  2.280059
H    0.922743  0.541757  0.769601
H    0.279080  -0.418519  2.126719
N    -1.188459  1.739647  2.584972
C    -2.165369  1.165545  1.657976
C    -1.984978  1.906362  0.303863
O    -1.372586  3.027220  0.260923
H    -1.525929  2.563823  3.084614
H    -1.942399  0.098240  1.504815
C    -3.589494  1.285532  2.284143
C    -4.710128  0.823581  1.345986
C    -3.630880  0.500070  3.602867
H    -3.748882  2.358799  2.499470
H    -5.664299  0.854794  1.885229
H    -4.570187  -0.221050  1.027014
H    -4.831553  1.460598  0.461251
H    -4.598644  0.655418  4.094209
H    -2.850992  0.802786  4.312696
H    -3.521841  -0.578431  3.420481
N    -2.468551  1.330624  -0.780703
C    -2.463008  1.883082  -2.135625
H    -2.937461  0.435127  -0.656568
H    -1.826198  1.270436  -2.785661
H    -2.089705  2.908515  -2.109615
H    -3.485048  1.877123  -2.532200
Sr    0.220799  4.475727  1.103877
