29
Energy: -102822.576466 eV PBE+vdW (tier 2 basis)
C    0.654317  0.855984  3.175878
C    -0.006977  0.115776  4.299773
O    0.723109  -0.347269  5.252436
H    1.708358  1.018538  3.416989
H    0.175406  1.827321  2.990378
H    0.598897  0.275713  2.242418
N    -1.328793  -0.142652  4.389779
C    -2.239836  0.157445  3.282909
C    -2.685304  1.604605  3.415369
O    -2.731611  2.105225  4.629400
H    -2.288694  1.443613  5.216248
H    -1.759061  0.023551  2.301244
C    -3.463179  -0.819957  3.375508
C    -4.636384  -0.472078  2.454151
C    -2.997108  -2.255316  3.102787
H    -3.817757  -0.746547  4.419404
H    -5.066705  0.514525  2.667372
H    -5.443504  -1.200985  2.595757
H    -4.351219  -0.516130  1.394489
H    -3.800461  -2.970187  3.317606
H    -2.116583  -2.557973  3.698905
H    -2.704891  -2.391421  2.052134
N    -3.032514  2.412489  2.449689
C    -3.078156  2.166568  1.006463
H    -3.314812  3.348722  2.754194
H    -2.568258  1.234031  0.755469
H    -2.581658  3.000854  0.498559
H    -4.121077  2.112054  0.672274
Sr    -0.758545  -1.884498  6.045420
