29
Energy: -102822.534113 eV PBE+vdW (tier 2 basis)
C    -1.281046  0.612354  0.254465
C    -0.980241  0.586042  1.712790
O    -0.300926  1.590968  2.221926
H    -0.341619  0.574761  -0.314605
H    -1.779180  1.558938  0.005064
H    -1.909661  -0.221217  -0.066036
N    -1.354542  -0.362386  2.522628
C    -2.153813  -1.583823  2.343022
C    -2.885896  -1.634700  3.719319
O    -2.282405  -1.130009  4.684167
H    -1.210479  -0.275608  3.558959
H    -2.841993  -1.469178  1.496735
C    -1.217673  -2.819161  2.140531
C    -1.994213  -4.140850  2.154944
C    -0.389770  -2.694197  0.857450
H    -0.531779  -2.819162  3.004264
H    -1.291672  -4.971569  2.017265
H    -2.723407  -4.195481  1.334892
H    -2.513604  -4.315105  3.104244
H    0.271779  -3.563868  0.761619
H    0.257614  -1.806936  0.846772
H    -1.027867  -2.675362  -0.038041
N    -4.097540  -2.191420  3.835700
C    -4.979393  -2.765346  2.824479
H    -4.440229  -2.196462  4.795745
H    -5.990529  -2.364618  2.960782
H    -5.017898  -3.858864  2.907005
H    -4.642574  -2.505674  1.817413
Sr    0.771487  3.214998  3.107679
