29
Energy: -102822.698094 eV PBE+vdW (tier 2 basis)
C    -1.394629  -0.077345  -0.192613
C    -1.136296  0.331732  1.215597
O    -0.573398  1.502321  1.423615
H    -1.883719  0.748792  -0.724744
H    -2.013679  -0.974176  -0.267219
H    -0.440164  -0.276923  -0.700201
N    -1.441480  -0.383800  2.260285
C    -2.156665  -1.652747  2.430539
C    -2.825814  -1.424166  3.823588
O    -2.435949  -0.461028  4.507220
H    -1.391542  0.036935  3.226597
H    -2.922442  -1.760438  1.649551
C    -1.223885  -2.901671  2.439467
C    -0.606680  -3.180509  1.066564
C    -0.158965  -2.831599  3.538897
H    -1.898970  -3.741936  2.672413
H    -0.062903  -4.132858  1.092788
H    0.124730  -2.410473  0.781165
H    -1.362844  -3.261961  0.273922
H    -0.590155  -2.682461  4.536908
H    0.560301  -2.020349  3.353679
H    0.412013  -3.767227  3.563205
N    -3.757662  -2.303311  4.198098
C    -4.440962  -2.266313  5.490469
H    -4.005388  -3.049699  3.555837
H    -4.232126  -3.183300  6.054466
H    -5.523114  -2.173125  5.341573
H    -4.074373  -1.403557  6.052007
Sr    0.268762  3.426194  1.821331
