29
Energy: -102824.147861 eV PBE+vdW (tier 2 basis)
C    -0.146459  0.996279  -0.332923
C    -0.486319  1.532933  1.018648
O    -0.053329  2.670384  1.388908
H    -0.575614  1.668817  -1.090010
H    -0.522997  -0.017129  -0.505893
H    0.941440  1.009624  -0.476305
N    -1.263482  0.797420  1.821111
C    -1.876479  1.221954  3.088700
C    -0.859765  1.116754  4.249454
O    0.074919  1.980907  4.314891
H    -1.570900  -0.105547  1.465404
H    -2.062766  2.304653  3.001504
C    -3.253651  0.529037  3.278078
C    -4.308342  1.217250  2.399266
C    -3.250223  -0.990521  3.024883
H    -3.535252  0.712333  4.327940
H    -5.289453  0.751845  2.550830
H    -4.069130  1.127609  1.329931
H    -4.408994  2.283313  2.641824
H    -4.193701  -1.421504  3.379968
H    -2.437766  -1.547785  3.515361
H    -3.204706  -1.231040  1.951164
N    -0.995856  0.168872  5.156276
C    -0.138660  -0.034214  6.324311
H    -1.774278  -0.475553  5.035990
H    0.394110  -0.988710  6.231080
H    -0.758750  -0.058522  7.227966
H    0.580990  0.783761  6.392771
Sr    0.976811  3.710492  3.117667
