29
Energy: -102822.66495 eV PBE+vdW (tier 2 basis)
C    0.695056  0.902446  2.933082
C    0.045578  0.187192  4.078948
O    0.789907  -0.365571  4.967448
H    0.627976  0.298662  2.014885
H    1.754843  1.053181  3.157474
H    0.225400  1.873439  2.727969
N    -1.288409  0.044051  4.255324
C    -2.232375  0.417586  3.207279
C    -2.757754  1.816158  3.507690
O    -2.515188  2.293574  4.701703
H    -1.931307  1.609089  5.132284
H    -1.753240  0.444794  2.215390
C    -3.409254  -0.612886  3.132409
C    -2.887729  -1.987587  2.706043
C    -4.239246  -0.682572  4.417413
H    -4.077921  -0.267779  2.328885
H    -2.268179  -1.945643  1.801097
H    -3.723032  -2.670979  2.510787
H    -2.279703  -2.474583  3.492517
H    -4.672300  0.283910  4.707483
H    -3.652582  -1.039397  5.282740
H    -5.070927  -1.386804  4.295726
N    -3.441554  2.574365  2.692694
C    -3.819935  2.307605  1.301675
H    -3.736834  3.474910  3.078974
H    -3.659156  3.221782  0.720233
H    -4.880287  2.031895  1.245154
H    -3.205670  1.508218  0.878948
Sr    -0.779176  -1.781053  5.832747
