29
Energy: -102823.836485 eV PBE+vdW (tier 2 basis)
C    1.351891  0.085935  0.916370
C    0.897824  -0.855561  1.979770
O    1.719647  -1.327769  2.828843
H    1.769352  0.983921  1.393855
H    0.550804  0.386040  0.233269
H    2.165504  -0.376081  0.341515
N    -0.396606  -1.197937  2.041198
C    -0.961723  -1.998327  3.131117
C    -0.477083  -3.468645  3.054261
O    0.380705  -3.825288  3.935537
H    -1.040429  -0.773737  1.376621
H    -0.461448  -1.653193  4.048081
C    -2.466909  -1.697031  3.396023
C    -3.433539  -1.711867  2.207016
C    -2.969645  -2.587723  4.539012
H    -2.437346  -0.659093  3.768372
H    -4.354420  -1.195563  2.505435
H    -3.723163  -2.724227  1.907152
H    -3.070271  -1.176228  1.315991
H    -3.976963  -2.277147  4.839645
H    -2.330458  -2.524568  5.430414
H    -3.034347  -3.642786  4.235779
N    -0.847790  -4.350139  2.140368
C    -1.704324  -4.226378  0.961730
H    -0.435416  -5.273075  2.285846
H    -1.228445  -4.767294  0.136015
H    -1.825406  -3.181993  0.673009
H    -2.688246  -4.672039  1.151249
Sr    2.381594  -2.819230  4.427747
