29
Energy: -102824.027829 eV PBE+vdW (tier 2 basis)
C    1.327351  1.030098  0.310244
C    0.307796  0.497498  1.260129
O    0.201565  0.972782  2.434891
H    2.324195  0.962091  0.765604
H    1.126374  2.097701  0.141332
H    1.334443  0.512346  -0.654334
N    -0.505764  -0.487108  0.855180
C    -1.645298  -0.993059  1.635011
C    -1.133588  -1.855375  2.811982
O    -1.076874  -1.299307  3.961161
H    -0.411353  -0.810480  -0.104933
H    -2.095749  -0.120127  2.134038
C    -2.748586  -1.592320  0.731073
C    -3.863369  -2.202664  1.589983
C    -3.307150  -0.508973  -0.202925
H    -2.306181  -2.386733  0.109579
H    -3.515424  -3.014536  2.242826
H    -4.644382  -2.620104  0.944049
H    -4.341418  -1.440576  2.222324
H    -3.779213  0.303368  0.368316
H    -4.076578  -0.942691  -0.852514
H    -2.548642  -0.064750  -0.861311
N    -0.724113  -3.107082  2.681126
C    -0.660770  -3.967948  1.496561
H    -0.436926  -3.536411  3.561352
H    -0.325541  -3.408244  0.618918
H    -1.632649  -4.435163  1.294681
H    0.070876  -4.756656  1.695692
Sr    -0.342033  0.763420  4.636964
