29
Energy: -102823.566005 eV PBE+vdW (tier 2 basis)
C    -0.271710  2.644901  -0.169106
C    -0.078090  1.278309  0.399311
O    1.088948  0.807480  0.586252
H    -0.214798  3.403141  0.628238
H    -1.230116  2.757793  -0.686039
H    0.550554  2.850609  -0.864416
N    -1.144297  0.524146  0.746450
C    -2.304007  1.045981  1.464991
C    -1.801845  1.523705  2.857665
O    -0.618225  1.251091  3.251184
H    -0.915790  -0.444936  0.972591
H    -2.696401  1.919601  0.924155
C    -3.423639  -0.039611  1.519736
C    -3.031940  -1.254786  2.369036
C    -4.782499  0.527451  1.947062
H    -3.518605  -0.357795  0.468980
H    -3.821283  -2.014199  2.316119
H    -2.909137  -0.991650  3.430096
H    -2.113749  -1.757806  2.026786
H    -5.567797  -0.206964  1.730507
H    -5.046418  1.443398  1.399210
H    -4.842307  0.718192  3.028699
N    -2.627803  2.220506  3.614228
C    -2.316654  2.713149  4.959617
H    -3.558166  2.406858  3.247170
H    -2.015736  1.883672  5.609620
H    -3.213865  3.183466  5.369689
H    -1.511511  3.456665  4.918730
Sr    1.559176  0.589399  2.842796
