29
Energy: -102823.351473 eV PBE+vdW (tier 2 basis)
C    0.369561  -0.362429  1.118229
C    -0.413096  0.458604  2.084949
O    0.133011  1.436244  2.690279
H    -0.031692  -1.368091  0.963198
H    1.424961  -0.405005  1.405450
H    0.323663  0.155187  0.145063
N    -1.716219  0.193306  2.328636
C    -2.267882  -1.155574  2.556095
C    -1.342825  -1.836020  3.607456
O    -0.608887  -1.120421  4.371449
H    -2.192496  0.941927  2.828755
H    -3.214087  -0.967126  3.090459
C    -2.652338  -1.988391  1.291166
C    -3.818818  -2.946604  1.601157
C    -3.054742  -1.074310  0.126573
H    -1.776094  -2.581681  0.979165
H    -4.016389  -3.583750  0.731495
H    -4.737077  -2.379900  1.810779
H    -3.668517  -3.621193  2.457545
H    -3.376202  -1.689302  -0.722390
H    -2.236859  -0.435211  -0.224207
H    -3.899083  -0.426393  0.399809
N    -1.345536  -3.149000  3.710186
C    -0.582089  -3.912943  4.700553
H    -1.944942  -3.664404  3.068934
H    -0.857922  -4.966474  4.609081
H    -0.817488  -3.565489  5.712926
H    0.494476  -3.808472  4.518865
Sr    0.477610  0.850915  4.900348
