29
Energy: -102822.440439 eV PBE+vdW (tier 2 basis)
C    0.601283  0.894164  2.757426
C    0.135175  -0.126426  3.757455
O    1.027471  -0.831412  4.371156
H    1.694131  0.920948  2.748657
H    0.226729  1.899590  2.996060
H    0.253032  0.637296  1.745986
N    -1.142673  -0.386712  4.061242
C    -2.233379  0.289325  3.384021
C    -2.532796  1.631293  4.020144
O    -2.480679  1.638034  5.338015
H    -2.693359  2.501117  5.747126
H    -1.983175  0.481930  2.330041
C    -3.512633  -0.624305  3.353475
C    -4.047243  -1.013045  4.733929
C    -4.626233  -0.054455  2.470296
H    -3.123965  -1.531559  2.860948
H    -4.556714  -0.181658  5.238996
H    -3.259365  -1.361728  5.422333
H    -4.777171  -1.825869  4.636308
H    -4.273151  0.175255  1.456508
H    -5.079401  0.850077  2.902083
H    -5.434962  -0.788214  2.368705
N    -2.838961  2.718797  3.353677
C    -2.920585  2.924930  1.898445
H    -3.071148  3.551452  3.900798
H    -3.965991  2.875570  1.572827
H    -2.334731  2.171468  1.368026
H    -2.516567  3.917973  1.675701
Sr    -0.397935  -2.182837  5.514615
