29
Energy: -102824.192269 eV PBE+vdW (tier 2 basis)
C    1.132518  0.390218  0.739923
C    0.018858  0.159537  1.709428
O    -1.052131  -0.403179  1.326126
H    2.021420  0.843398  1.190345
H    0.765295  1.046174  -0.062469
H    1.410492  -0.561836  0.269199
N    0.189848  0.567826  2.974536
C    -0.782914  0.610341  4.090647
C    -1.110619  -0.800787  4.609524
O    -1.849899  -1.587041  3.938983
H    1.081349  1.016549  3.165432
H    -0.243832  1.140477  4.888909
C    -2.065464  1.440824  3.812896
C    -2.916447  1.512858  5.087853
C    -1.716454  2.836898  3.288095
H    -2.655671  0.926513  3.030346
H    -3.829247  2.090133  4.899207
H    -2.374038  2.025326  5.895156
H    -3.223551  0.525394  5.459113
H    -2.634290  3.412882  3.119929
H    -1.167663  2.812640  2.338710
H    -1.113721  3.394569  4.019228
N    -0.622010  -1.141700  5.791137
C    -0.855539  -2.411948  6.478633
H    -0.041576  -0.459758  6.273443
H    -1.189265  -2.210927  7.502969
H    0.073629  -2.994413  6.512967
H    -1.623709  -2.975446  5.945077
Sr    -2.756370  -1.791526  1.850660
