29
Energy: -102824.161655 eV PBE+vdW (tier 2 basis)
C    -0.441491  -0.009291  -0.242041
C    -0.235313  -0.115705  1.235776
O    0.926370  -0.313765  1.697668
H    -1.482005  0.167900  -0.532342
H    -0.090678  -0.938019  -0.713149
H    0.185005  0.802442  -0.635479
N    -1.314828  0.006862  2.023291
C    -1.497002  -0.118773  3.491181
C    -0.730575  0.950804  4.286955
O    0.536538  0.982228  4.328240
H    -2.183801  0.150452  1.516881
H    -2.563211  0.114055  3.614006
C    -1.364615  -1.561714  4.078933
C    -2.259569  -2.525847  3.287786
C    0.044919  -2.149798  4.244965
H    -1.787877  -1.465924  5.093005
H    -2.312067  -3.495277  3.797291
H    -1.872267  -2.707059  2.275911
H    -3.287854  -2.150383  3.199912
H    -0.026742  -3.142622  4.707144
H    0.659793  -1.556582  4.946302
H    0.542313  -2.303159  3.274029
N    -1.465447  1.814742  4.974305
C    -0.942293  2.867925  5.845077
H    -2.476563  1.755106  4.885043
H    -1.531620  2.893420  6.767915
H    -1.016802  3.842103  5.344997
H    0.103199  2.657421  6.080833
Sr    2.360897  -0.077436  3.431939
