29
Energy: -102822.710863 eV PBE+vdW (tier 2 basis)
C    -1.030498  0.491038  -0.145186
C    -1.138412  0.824763  1.303260
O    -0.701754  1.998734  1.704322
H    0.027251  0.344738  -0.408681
H    -1.404618  1.330235  -0.745193
H    -1.579627  -0.415657  -0.413220
N    -1.640129  0.022274  2.195470
C    -2.224620  -1.318575  2.089866
C    -3.001150  -1.398108  3.443633
O    -2.736383  -0.547714  4.312488
H    -1.767077  0.303724  3.207899
H    -2.929014  -1.353066  1.245772
C    -1.133263  -2.420479  1.911971
C    -0.202503  -2.525980  3.123615
C    -1.746910  -3.775823  1.542257
H    -0.536239  -2.090283  1.044926
H    0.279700  -1.569924  3.369501
H    0.593820  -3.252061  2.920773
H    -0.739938  -2.869151  4.018207
H    -2.238620  -4.254759  2.399720
H    -0.954386  -4.461346  1.218098
H    -2.467306  -3.700026  0.715172
N    -3.895349  -2.378580  3.582018
C    -4.670853  -2.607627  4.800211
H    -4.042203  -3.010333  2.801437
H    -4.413284  -1.833830  5.527407
H    -4.435356  -3.593493  5.219117
H    -5.743120  -2.558275  4.577102
Sr    -0.046158  3.909583  2.402039
