29
Energy: -102824.029344 eV PBE+vdW (tier 2 basis)
C    1.351958  0.603369  1.610662
C    0.855907  -0.489371  2.496771
O    1.601782  -0.983800  3.400358
H    0.622315  0.915831  0.856657
H    2.274408  0.280065  1.110422
H    1.614573  1.469748  2.234443
N    -0.395455  -0.939908  2.334294
C    -1.053116  -1.900240  3.233148
C    -0.477071  -3.315909  2.999432
O    0.410862  -3.727661  3.821081
H    -0.969290  -0.489227  1.625135
H    -0.719605  -1.653284  4.253808
C    -2.591890  -1.740320  3.229409
C    -3.239906  -2.829681  4.093315
C    -2.974840  -0.341333  3.733553
H    -2.957407  -1.844898  2.195718
H    -2.909827  -2.757030  5.139704
H    -3.027952  -3.848357  3.741471
H    -4.329184  -2.707450  4.090846
H    -4.065058  -0.227014  3.712014
H    -2.557667  0.472678  3.125696
H    -2.649211  -0.190672  4.772940
N    -0.826381  -4.092205  1.986060
C    -1.785976  -3.865649  0.901653
H    -0.365073  -5.002567  1.991614
H    -1.518506  -4.530178  0.074685
H    -1.735797  -2.835359  0.538506
H    -2.808402  -4.100650  1.222658
Sr    2.242810  -2.706929  4.744948
