29
Energy: -102823.213999 eV PBE+vdW (tier 2 basis)
C    -2.217289  1.965063  1.778005
C    -2.058279  1.498961  3.180970
O    -1.448375  2.223855  4.029690
H    -2.680684  1.232301  1.115697
H    -1.274048  2.339040  1.364454
H    -2.897551  2.833019  1.833925
N    -2.663909  0.366096  3.650777
C    -2.473551  -1.052570  3.266632
C    -1.671122  -1.662346  4.438534
O    -0.764599  -0.950807  4.997573
H    -2.799117  0.448585  4.658610
H    -3.463849  -1.521553  3.205359
C    -1.744149  -1.298973  1.910030
C    -0.274978  -0.853194  1.881787
C    -1.862695  -2.765485  1.472605
H    -2.308331  -0.710765  1.173006
H    -0.123530  0.196996  2.180778
H    0.112242  -0.927021  0.858158
H    0.357441  -1.495470  2.510358
H    -1.272399  -3.439944  2.107306
H    -1.474419  -2.871232  0.452572
H    -2.904212  -3.110080  1.457136
N    -1.893313  -2.890997  4.871801
C    -2.917554  -3.870336  4.495685
H    -1.257584  -3.185064  5.615604
H    -3.354665  -4.280189  5.413107
H    -2.468387  -4.687138  3.918605
H    -3.708918  -3.406127  3.903955
Sr    0.201825  1.123376  5.266276
