29
Energy: -102824.07759 eV PBE+vdW (tier 2 basis)
C    2.147957  0.505266  0.929181
C    0.863661  0.413626  1.691098
O    0.083351  -0.562266  1.494161
H    2.749137  1.385833  1.177222
H    1.920440  0.517250  -0.145665
H    2.740957  -0.399818  1.118467
N    0.592931  1.394052  2.569257
C    -0.574144  1.663311  3.445930
C    -0.878474  0.518549  4.423638
O    -1.393353  -0.573978  4.028858
H    1.305124  2.117776  2.613018
H    -0.223310  2.502900  4.056120
C    -1.839092  2.225973  2.725124
C    -2.592329  1.295300  1.764147
C    -2.796677  2.818896  3.768545
H    -1.444274  3.054627  2.115112
H    -3.151846  0.517978  2.319226
H    -1.940760  0.867938  0.987499
H    -3.363959  1.866314  1.232060
H    -2.303356  3.575051  4.393054
H    -3.218692  2.047127  4.429098
H    -3.638891  3.314851  3.271504
N    -0.644698  0.696589  5.717070
C    -0.074010  1.856400  6.413538
H    -0.926401  -0.091671  6.300762
H    0.088885  1.571263  7.456603
H    -0.763122  2.709568  6.394749
H    0.895142  2.139583  5.987501
Sr    -1.712195  -1.793287  2.123122
