29
Energy: -102823.22836 eV PBE+vdW (tier 2 basis)
C    -0.784144  1.333716  1.653266
C    -1.451735  1.223132  2.984830
O    -1.227760  2.126426  3.857829
H    0.235663  0.920346  1.692459
H    -0.685403  2.402783  1.426856
H    -1.329200  0.834546  0.850116
N    -2.330132  0.239285  3.309064
C    -2.115473  -1.222391  3.219501
C    -1.204722  -1.571567  4.423161
O    -0.328767  -0.723206  4.821146
H    -2.851502  0.492704  4.150383
H    -3.102646  -1.674611  3.391286
C    -1.604830  -1.738265  1.842488
C    -1.226141  -3.224758  1.849756
C    -2.675883  -1.469313  0.775395
H    -0.687155  -1.184166  1.599721
H    -0.425143  -3.466282  2.560476
H    -0.855334  -3.494632  0.853670
H    -2.091772  -3.869867  2.047228
H    -2.272459  -1.680747  -0.222336
H    -3.047636  -0.437061  0.778857
H    -3.543407  -2.127728  0.923121
N    -1.339235  -2.710585  5.083051
C    -2.297107  -3.808495  4.923282
H    -0.655567  -2.836356  5.830956
H    -3.135343  -3.512882  4.289087
H    -2.678785  -4.078575  5.914362
H    -1.802786  -4.681223  4.480661
Sr    0.225403  1.411775  5.492329
