29
Energy: -102824.18748 eV PBE+vdW (tier 2 basis)
C    0.371560  0.307302  -0.113881
C    -0.219613  1.063866  1.028830
O    0.070387  2.288546  1.214609
H    0.045569  0.781399  -1.051034
H    0.083204  -0.748718  -0.131734
H    1.466038  0.384489  -0.082118
N    -1.070810  0.434078  1.847440
C    -1.867165  1.071114  2.910702
C    -0.961665  1.311371  4.140450
O    -0.289283  2.391187  4.204382
H    -1.275916  -0.540917  1.641118
H    -2.135732  2.076860  2.549313
C    -3.183817  0.302582  3.169979
C    -4.037648  1.048884  4.205710
C    -3.974898  0.103698  1.868084
H    -2.935234  -0.701984  3.564945
H    -4.360345  2.024180  3.814366
H    -3.523384  1.219174  5.160489
H    -4.944549  0.473721  4.425086
H    -4.222963  1.069006  1.404337
H    -4.919751  -0.406808  2.088165
H    -3.453364  -0.508469  1.120717
N    -0.885958  0.379974  5.072248
C    -0.070850  0.439406  6.285710
H    -1.482069  -0.437206  4.955560
H    0.405657  1.419359  6.353507
H    0.694367  -0.346154  6.259025
H    -0.712498  0.282326  7.160584
Sr    0.569726  3.911734  2.719411
