29
Energy: -102822.377308 eV PBE+vdW (tier 2 basis)
C    0.065700  1.187204  0.681224
C    -0.306289  0.215180  1.752882
O    0.552339  -0.018205  2.717053
H    0.266668  2.172245  1.125198
H    -0.723368  1.297185  -0.069180
H    0.983153  0.851361  0.178019
N    -1.461510  -0.380352  1.707941
C    -2.080766  -1.363463  2.600834
C    -3.216099  -1.912281  1.676373
O    -3.577344  -1.169442  0.750715
H    -2.154924  -0.209159  0.932095
H    -1.345600  -2.137260  2.862324
C    -2.611985  -0.668793  3.900144
C    -3.700044  0.372081  3.616392
C    -3.066352  -1.676379  4.959454
H    -1.730359  -0.136036  4.304440
H    -3.961375  0.896310  4.543742
H    -4.616656  -0.097118  3.235655
H    -3.387705  1.128688  2.885295
H    -3.274214  -1.151155  5.900094
H    -2.311436  -2.447417  5.168764
H    -3.996842  -2.178237  4.667218
N    -3.775803  -3.109664  1.899762
C    -3.368040  -4.199891  2.778214
H    -4.533856  -3.311623  1.248503
H    -3.288225  -5.123670  2.192677
H    -4.095872  -4.357389  3.583985
H    -2.391337  -3.996356  3.225164
Sr    2.167221  -0.008110  4.122527
