29
Energy: -102823.367844 eV PBE+vdW (tier 2 basis)
C    0.127741  0.106730  0.969083
C    -0.688600  0.693525  2.074115
O    -0.212798  1.652745  2.767138
H    -0.464815  -0.047167  0.060665
H    0.538035  -0.871558  1.263489
H    0.962394  0.780421  0.753336
N    -1.930447  0.248606  2.374834
C    -2.344891  -1.159205  2.494816
C    -1.548804  -1.745249  3.705017
O    -0.609082  -1.077242  4.256087
H    -2.410175  0.871299  3.024842
H    -3.397780  -1.113548  2.817102
C    -2.347148  -1.975448  1.162877
C    -2.946359  -3.381547  1.329506
C    -3.141739  -1.197265  0.103771
H    -1.309568  -2.101516  0.822493
H    -3.107170  -3.819628  0.337085
H    -3.933751  -3.357644  1.817546
H    -2.284423  -4.081681  1.855674
H    -3.092875  -1.726271  -0.855264
H    -2.770152  -0.178314  -0.057066
H    -4.202247  -1.121894  0.383788
N    -1.907326  -2.920004  4.184795
C    -1.281233  -3.582894  5.331804
H    -2.662660  -3.409786  3.710496
H    -0.197077  -3.650537  5.188714
H    -1.695509  -4.591005  5.414114
H    -1.496102  -3.034256  6.257316
Sr    0.516019  0.866800  4.802172
