29
Energy: -102824.136574 eV PBE+vdW (tier 2 basis)
C    0.918783  2.283257  0.897744
C    0.227458  0.987672  1.165141
O    0.826669  0.048994  1.779695
H    1.185561  2.741897  1.860828
H    0.310664  2.990332  0.324354
H    1.859054  2.096028  0.363018
N    -1.038678  0.836231  0.757562
C    -1.917111  -0.298693  1.088394
C    -1.555442  -1.521226  0.214162
O    -0.645023  -2.312510  0.626611
H    -1.469992  1.622219  0.275826
H    -1.647373  -0.613881  2.108074
C    -3.398610  0.160786  1.156877
C    -3.996997  0.759552  -0.128552
C    -4.282305  -0.957999  1.722518
H    -3.371942  0.970617  1.905177
H    -4.887592  1.344706  0.131271
H    -4.358880  -0.003656  -0.835629
H    -3.330245  1.444663  -0.673923
H    -5.300301  -0.584041  1.883566
H    -3.913917  -1.322808  2.690775
H    -4.358113  -1.814762  1.038117
N    -2.174505  -1.714782  -0.933941
C    -1.929517  -2.824922  -1.855678
H    -2.893823  -1.040185  -1.188236
H    -2.884698  -3.144566  -2.284440
H    -1.475403  -3.657372  -1.312831
H    -1.263384  -2.506224  -2.667955
Sr    1.211856  -2.180149  1.958731
