29
Energy: -102823.565096 eV PBE+vdW (tier 2 basis)
C    -0.188841  2.502541  -0.166744
C    -0.081120  1.126497  0.401530
O    1.054523  0.591870  0.608901
H    -0.104771  3.255080  0.633582
H    -1.129964  2.668813  -0.700729
H    0.656160  2.663854  -0.846325
N    -1.193299  0.431448  0.727220
C    -2.336172  1.013579  1.426000
C    -1.835329  1.465284  2.828489
O    -0.680422  1.116211  3.246720
H    -1.022803  -0.549377  0.953841
H    -2.674010  1.905514  0.878220
C    -3.510527  -0.013771  1.461596
C    -3.196228  -1.245879  2.318672
C    -4.845846  0.622343  1.864784
H    -3.603083  -0.328443  0.409535
H    -2.298361  -1.795061  1.993771
H    -4.021683  -1.964663  2.251470
H    -3.079810  -0.987606  3.381588
H    -5.663314  -0.073270  1.639318
H    -5.055285  1.547111  1.308205
H    -4.912210  0.822414  2.944269
N    -2.640036  2.213936  3.558488
C    -2.364825  2.700894  4.912047
H    -3.538505  2.464445  3.150632
H    -1.672960  2.020942  5.415279
H    -3.306106  2.739083  5.469144
H    -1.932203  3.709111  4.875469
Sr    1.463032  0.336100  2.874030
