29
Energy: -102823.444523 eV PBE+vdW (tier 2 basis)
C    -0.530271  0.370042  -0.972399
C    -0.278458  -0.061335  0.433068
O    0.893389  -0.361740  0.825320
H    -0.149629  1.390010  -1.135707
H    -1.586714  0.329950  -1.252724
H    0.048705  -0.285772  -1.636318
N    -1.294101  -0.119508  1.323041
C    -2.298602  0.939828  1.486833
C    -1.520106  2.254418  1.714028
O    -0.350063  2.200689  2.237758
H    -1.051506  -0.587405  2.197873
H    -2.910346  1.015279  0.577573
C    -3.218319  0.544430  2.686374
C    -4.183225  1.650072  3.122708
C    -3.978414  -0.744648  2.347180
H    -2.534447  0.346910  3.534183
H    -4.758052  1.297848  3.987446
H    -4.911213  1.888624  2.336143
H    -3.675770  2.571892  3.435029
H    -4.544767  -1.079914  3.224340
H    -3.322114  -1.570854  2.045505
H    -4.698523  -0.572505  1.535028
N    -2.019079  3.427837  1.364860
C    -3.281342  3.765034  0.701422
H    -1.425883  4.221827  1.611294
H    -3.973472  4.224937  1.416701
H    -3.751114  2.876925  0.273652
H    -3.071088  4.479819  -0.102097
Sr    1.690530  1.136854  2.411664
