29
Energy: -102824.193511 eV PBE+vdW (tier 2 basis)
C    0.729431  2.010591  1.530748
C    -0.234005  0.884121  1.720948
O    0.101001  -0.130829  2.405269
H    1.068811  2.370684  2.510757
H    0.318501  2.849717  0.960302
H    1.617199  1.625163  1.008957
N    -1.440957  0.983164  1.146578
C    -2.518831  -0.026925  1.038500
C    -3.204200  -0.270614  2.394428
O    -2.620814  -0.928375  3.311695
H    -1.595287  1.833786  0.612537
H    -3.256412  0.446060  0.374301
C    -2.107309  -1.355420  0.347487
C    -3.340963  -2.253441  0.184694
C    -1.422236  -1.089329  -0.996419
H    -1.379717  -1.879379  0.996571
H    -3.058179  -3.198417  -0.293945
H    -4.091561  -1.778122  -0.462808
H    -3.824791  -2.501088  1.139567
H    -1.159292  -2.039588  -1.476331
H    -0.498238  -0.506537  -0.898017
H    -2.094078  -0.554782  -1.683256
N    -4.431780  0.199265  2.547324
C    -5.268761  0.031944  3.735746
H    -4.837709  0.714120  1.769726
H    -6.261321  -0.316888  3.429449
H    -5.372251  0.990796  4.259165
H    -4.809397  -0.702359  4.400838
Sr    -0.553857  -1.748316  3.841190
