17
Energy: -32489.806628 eV PBE+vdW (tier 2 basis)
N    0.273518  -0.159687  0.247848
C    0.343782  -0.261106  1.756320
C    1.898925  -0.383314  2.006042
O    2.300953  -0.245650  3.220079
H    1.300381  -0.397084  -0.001956
H    -0.373578  -0.814039  -0.207494
H    -0.034152  0.674303  2.186308
C    -0.504903  -1.461275  2.234272
C    -0.711375  -1.632636  3.734759
O    0.000796  -1.117331  4.607890
O    -1.687985  -2.408449  4.140553
H    -0.061336  -2.409101  1.878416
H    -1.504744  -1.395685  1.775507
O    2.588957  -0.586671  1.012866
H    0.054047  0.788852  -0.080635
H    -2.236393  -2.787818  3.424617
Ca    1.983108  -0.405308  5.242608
