17
Energy: -32489.9933727 eV PBE+vdW (tier 2 basis)
N    -0.109463  2.317101  1.435100
C    0.236638  0.935974  1.946637
C    1.719512  0.748443  1.465087
O    2.261250  -0.388791  1.745864
H    -0.828462  2.328410  0.701016
H    0.836698  2.608913  1.008851
H    0.223936  0.980687  3.043672
C    -0.770611  -0.119971  1.427994
C    -0.810825  -1.429496  2.201439
O    -1.982964  -1.646237  2.744227
O    0.128452  -2.240762  2.296988
H    -0.551810  -0.371162  0.377576
H    -1.787630  0.290725  1.465916
O    2.232350  1.688070  0.871806
H    -0.392253  2.972247  2.173771
H    -2.019091  -2.517167  3.199755
Ca    2.339274  -2.401984  2.071302
