17
Energy: -32489.446805 eV PBE+vdW (tier 2 basis)
N    -0.279285  -1.609549  0.896960
C    -0.097948  -0.208731  1.245467
C    1.058339  -0.031223  2.234475
O    0.933247  0.089859  3.480231
H    0.275585  -1.899911  0.092634
H    -0.132137  -2.273230  1.656900
H    0.201224  0.327702  0.334666
C    -1.437413  0.443541  1.709486
C    -2.116917  -0.340249  2.797285
O    -1.948672  -0.075138  4.014664
O    -2.863006  -1.369552  2.511171
H    -2.081894  0.487491  0.821358
H    -1.274704  1.473161  2.052612
O    2.227781  -0.083443  1.656380
H    2.970469  -0.042876  2.298359
H    -2.899968  -1.549261  1.546579
Ca    -0.291701  0.344408  5.265772
