17
Energy: -32489.9102018 eV PBE+vdW (tier 2 basis)
N    0.130147  0.086493  0.092555
C    0.125109  -0.160090  1.576802
C    1.538212  -0.152805  2.156908
O    1.684802  -0.266332  3.418768
H    0.853420  -0.462298  -0.390122
H    0.275919  1.073937  -0.146673
H    -0.419926  0.679398  2.034987
C    -0.626851  -1.472130  1.891235
C    -1.976244  -1.540458  1.184156
O    -2.839596  -2.306580  1.814835
O    -2.199809  -0.959301  0.120202
H    -0.764158  -1.565687  2.974700
H    -0.046961  -2.351447  1.565506
O    2.551266  -0.029753  1.384366
H    -0.874226  -0.243736  -0.208390
H    -3.676488  -2.370143  1.303344
Ca    3.857385  -0.076068  3.191823
