17
Energy: -32489.4347601 eV PBE+vdW (tier 2 basis)
N    0.183431  0.081607  0.038576
C    -0.120206  0.055519  1.437362
C    1.070007  -0.168388  2.398658
O    1.100000  0.277553  3.573769
H    0.738220  0.883025  -0.255052
H    0.592240  -0.774891  -0.332914
H    -0.521993  1.044445  1.712935
C    -1.245295  -0.997017  1.668715
C    -2.076702  -0.873181  2.916159
O    -1.747953  -0.168605  3.899546
O    -3.204350  -1.523408  3.019064
H    -0.843121  -2.025010  1.632685
H    -1.903275  -0.907777  0.787573
O    2.067853  -0.831811  1.886823
H    2.815786  -0.927056  2.517726
H    -3.438455  -2.045705  2.223850
Ca    -0.318189  0.830702  5.115526
