17
Energy: -32489.0254173 eV PBE+vdW (tier 2 basis)
N    -0.625746  0.375771  0.321619
C    0.017659  -0.188998  1.482392
C    1.526223  -0.189358  1.288937
O    2.078526  0.594027  0.459063
H    -1.584688  0.663214  0.516016
H    -0.122475  1.180547  -0.049944
H    -0.109103  0.397206  2.425964
C    -0.601672  -1.604148  1.714508
C    -0.323571  -2.286178  3.014010
O    0.823899  -2.317023  3.577208
O    -1.314211  -2.893490  3.572075
H    -0.283116  -2.288569  0.908894
H    -1.690238  -1.517113  1.611926
O    2.302381  -0.956812  2.010824
H    1.520930  -1.803092  3.006228
H    -1.059155  -3.364262  4.399697
Ca    4.090744  -0.047398  0.962819
