17
Energy: -32489.047625 eV PBE+vdW (tier 2 basis)
N    0.216760  -0.119598  -0.016567
C    0.366431  -0.227090  1.390666
C    1.635887  -1.015131  1.743970
O    2.462840  -1.381026  0.860877
H    -0.087464  -0.957279  -0.506591
H    -0.296901  0.698183  -0.331677
H    0.561742  0.786782  1.785356
C    -0.906221  -0.795677  2.164455
C    -1.020526  -0.444793  3.606330
O    -0.050714  -0.525332  4.440373
O    -2.165776  -0.012899  4.017959
H    -0.935778  -1.895165  2.085293
H    -1.799143  -0.419878  1.651692
O    1.910279  -1.295784  2.994679
H    0.805248  -0.862332  3.964976
H    -2.171956  0.193012  4.981568
Ca    3.890494  -2.141874  2.299717
