17
Energy: -32488.9925386 eV PBE+vdW (tier 2 basis)
N    -0.155282  -0.674404  0.053463
C    0.263950  -0.448214  1.413725
C    1.420658  -1.361355  1.771214
O    1.846045  -1.531132  2.963932
H    0.604215  -0.597363  -0.622859
H    -0.890150  -0.026147  -0.227834
H    0.688254  0.565793  1.624245
C    -0.982098  -0.647781  2.327201
C    -0.912561  -0.233331  3.770860
O    -1.943470  0.209519  4.364411
O    0.185932  -0.351144  4.473258
H    -1.296686  -1.706018  2.300252
H    -1.814977  -0.091135  1.878258
O    2.031644  -1.938886  0.797243
H    2.802683  -2.476224  1.093527
H    1.250461  -1.035538  3.659903
Ca    -0.960617  0.396360  6.285202
