17
Energy: -32488.1393171 eV PBE+vdW (tier 2 basis)
N    0.277104  -0.372670  -0.104855
C    -0.027304  0.004044  1.238541
C    1.218113  0.335946  2.079898
O    2.356178  0.219570  1.746432
H    0.261324  0.408236  -0.756471
H    1.167391  -0.863371  -0.195222
H    -0.665567  0.900915  1.226104
C    -0.855356  -1.179156  1.904747
C    -1.771709  -0.832729  3.023921
O    -2.946155  -1.365854  3.092583
O    -1.473322  0.003432  3.951123
H    -0.154141  -1.949974  2.271603
H    -1.431569  -1.646145  1.097603
O    0.852768  0.804753  3.350537
H    1.659400  0.997161  3.874444
H    -0.513061  0.386315  3.828520
Ca    -4.792693  -1.962400  3.643157
