17
Energy: -32489.9666232 eV PBE+vdW (tier 2 basis)
N    1.029106  0.220927  0.635770
C    -0.382967  0.077861  1.177260
C    -0.333265  -0.591627  2.576860
O    0.119403  -1.720785  2.794133
H    1.705412  0.584350  1.320862
H    1.295442  -0.754670  0.298868
H    -0.814805  1.078928  1.283919
C    -1.193950  -0.777756  0.173891
C    -0.629274  -2.186705  0.200537
O    -1.335436  -3.155150  0.595284
O    0.652029  -2.330683  0.047320
H    -1.123068  -0.334358  -0.831104
H    -2.252820  -0.787650  0.456757
O    -0.860340  0.191131  3.485113
H    -0.881707  -0.232948  4.373247
H    1.036772  0.860824  -0.172218
Ca    0.420469  -3.857690  1.708501
