17
Energy: -32489.832009 eV PBE+vdW (tier 2 basis)
N    0.649026  -0.404140  0.428191
C    0.446238  -0.424502  1.927342
C    0.639423  1.062351  2.326080
O    0.779660  1.906198  1.463425
H    -0.094021  -0.893024  -0.083103
H    0.659334  0.631957  0.200538
H    -0.609469  -0.674529  2.103580
C    1.355563  -1.397587  2.676101
C    1.058718  -2.868669  2.470193
O    1.590560  -3.719559  3.262846
O    0.290456  -3.270782  1.518718
H    1.278187  -1.193813  3.754064
H    2.420548  -1.229475  2.439459
O    0.594560  1.237243  3.634797
H    0.679191  2.191305  3.852245
H    1.551817  -0.800694  0.139969
Ca    0.575210  -5.353279  2.275553
