17
Energy: -32489.0216254 eV PBE+vdW (tier 2 basis)
N    0.003747  -0.720438  0.208401
C    0.235576  -0.260187  1.617296
C    1.723467  -0.414476  1.933114
O    2.427611  -1.173505  1.230957
H    -0.975422  -1.128874  0.234764
H    -0.094577  0.115180  -0.380964
H    -0.052465  0.798429  1.719216
C    -0.572793  -1.097667  2.649185
C    -2.037189  -1.277720  2.248887
O    -2.382014  -1.490318  1.092070
O    -2.844179  -1.221533  3.292595
H    -0.512781  -0.637565  3.642849
H    -0.150619  -2.111657  2.745563
O    2.288120  0.183822  2.940158
H    1.701807  0.789872  3.438934
H    -3.770154  -1.398271  3.015153
Ca    1.782146  -2.108625  -0.597273
