17
Energy: -32489.6903952 eV PBE+vdW (tier 2 basis)
N    0.072426  -0.452481  0.101786
C    0.698863  -0.135042  1.449487
C    1.439933  1.220358  1.427405
O    2.211387  1.531832  2.290133
H    0.781220  -0.530911  -0.641707
H    -0.574100  0.297185  -0.185442
H    -0.150222  -0.015803  2.139674
C    1.620404  -1.255759  1.932131
C    0.953061  -2.582215  2.203517
O    1.514358  -3.422693  2.981123
O    -0.171894  -2.889563  1.640389
H    2.117817  -0.912012  2.850333
H    2.445678  -1.437389  1.220785
O    1.056013  1.947889  0.358284
H    1.498075  2.823879  0.382561
H    -0.435224  -1.352031  0.180114
Ca    -0.089795  -4.848244  2.743428
