17
Energy: -32489.5242891 eV PBE+vdW (tier 2 basis)
N    -0.126724  0.440179  0.269010
C    0.251706  -0.066270  1.643691
C    1.711554  -0.516167  1.651277
O    2.261784  -0.788833  2.767605
H    0.267665  1.368657  0.069112
H    -1.176486  0.497173  0.253338
H    0.148930  0.780258  2.338064
C    -0.676446  -1.217551  2.085085
C    -2.161379  -0.873589  2.226385
O    -2.561626  0.018592  1.248406
O    -2.890093  -1.342700  3.045727
H    -0.340716  -1.576433  3.064895
H    -0.599937  -2.066417  1.384945
O    2.355444  -0.636750  0.550192
H    0.200952  -0.199606  -0.469365
H    -3.523854  0.184490  1.344771
Ca    4.131227  -1.300033  1.745863
