17
Energy: -32489.6384328 eV PBE+vdW (tier 2 basis)
N    -0.161683  -1.403234  0.573341
C    -0.155412  -0.016215  1.181539
C    0.918891  0.043702  2.293420
O    0.698989  0.390660  3.459626
H    -0.629185  -1.398610  -0.343282
H    0.776694  -1.804028  0.446095
H    0.144942  0.708704  0.409940
C    -1.562215  0.267411  1.722479
C    -1.834209  -0.745162  2.840832
O    -2.144843  -0.268736  4.006843
O    -1.621779  -1.948434  2.611853
H    -2.301865  0.153156  0.916154
H    -1.634253  1.302852  2.070961
O    2.101508  -0.298831  1.837025
H    2.805454  -0.239123  2.520941
H    -0.770450  -1.971108  1.294913
Ca    -0.737585  0.454997  5.296321
