17
Energy: -32490.26085 eV PBE+vdW (tier 2 basis)
N    0.060540  -1.375645  0.211863
C    -0.180786  -0.184151  1.124667
C    1.160915  0.545533  1.265004
O    1.173708  1.660329  1.852898
H    -0.147601  -1.144194  -0.770791
H    -0.495303  -2.206470  0.457167
H    -0.937333  0.454477  0.654580
C    -0.679879  -0.588518  2.531096
C    0.343856  -1.069381  3.557182
O    -0.131735  -2.054497  4.282320
O    1.465003  -0.570894  3.746721
H    -1.500382  -1.315625  2.469909
H    -1.123039  0.320253  2.972792
O    2.214951  -0.120393  0.991988
H    1.080691  -1.588417  0.270822
H    0.484576  -2.301863  5.007310
Ca    3.002817  0.907454  2.885471
