17
Energy: -32488.4504469 eV PBE+vdW (tier 2 basis)
N    0.550684  0.381388  0.666213
C    0.092544  -0.214421  1.886688
C    1.208535  -1.145746  2.380065
O    1.986860  -1.780530  1.760763
H    -0.115684  1.030426  0.250764
H    1.467638  0.821358  0.721200
H    -0.137050  0.498430  2.720897
C    -1.198269  -1.015146  1.555287
C    -1.998791  -1.526985  2.716781
O    -1.693536  -1.275028  3.909478
O    -3.062746  -2.254088  2.531854
H    -0.952825  -1.846364  0.873548
H    -1.861042  -0.350918  0.972743
O    1.292651  -1.186599  3.858537
H    2.108548  -1.712974  4.016307
H    -3.271359  -2.429550  1.589896
Ca    -0.318991  -0.738458  5.405913
