17
Energy: -32489.8563347 eV PBE+vdW (tier 2 basis)
N    -0.703956  -0.156224  0.327549
C    -0.145690  0.022196  1.719483
C    1.380576  -0.160605  1.537001
O    1.813697  -0.672909  0.526574
H    -0.735022  0.734850  -0.185272
H    -0.019846  -0.768877  -0.175290
H    -0.377804  1.037728  2.062740
C    -0.687055  -1.031527  2.701929
C    -2.190339  -1.113036  2.851958
O    -2.695439  -1.452243  3.971199
O    -2.972357  -0.897495  1.842315
H    -0.248214  -0.848835  3.691052
H    -0.350502  -2.041090  2.403764
O    2.051578  0.269701  2.593295
H    3.014233  0.121945  2.466359
H    -1.660707  -0.550411  0.369324
Ca    -4.705902  -1.438235  3.163195
