17
Energy: -32489.4919743 eV PBE+vdW (tier 2 basis)
N    -0.173648  -0.172056  -0.101264
C    0.059344  0.145577  1.358612
C    1.580476  0.479516  1.420148
O    2.257685  0.292781  0.430250
H    0.761265  0.039417  -0.546815
H    -0.927559  0.376106  -0.531201
H    -0.531314  1.036346  1.612111
C    -0.354554  -1.010993  2.291631
C    0.310260  -2.345882  2.012157
O    0.760547  -3.054188  2.968430
O    0.387666  -2.785542  0.798276
H    -1.443556  -1.169507  2.217213
H    -0.162292  -0.737119  3.336121
O    2.097212  0.916818  2.558003
H    1.441494  1.139749  3.246012
H    -0.336074  -1.185647  -0.232170
Ca    1.355047  -4.640376  1.595486
