17
Energy: -32489.9272789 eV PBE+vdW (tier 2 basis)
N    -0.491602  0.330171  0.297882
C    0.049307  0.027650  1.673440
C    1.573856  -0.109943  1.563421
O    2.181129  0.412665  0.562975
H    -0.566547  -0.641684  -0.157559
H    0.162862  0.921262  -0.234261
H    -0.124752  0.902624  2.319409
C    -0.653827  -1.197416  2.275844
C    -0.688085  -2.379128  1.320582
O    -0.970918  -3.514932  1.926694
O    -0.492123  -2.260206  0.109010
H    -1.691355  -0.946614  2.548186
H    -0.161442  -1.481884  3.214160
O    2.222768  -0.689924  2.492367
H    -1.413100  0.783488  0.328731
H    -1.059022  -4.238399  1.268395
Ca    4.112851  -0.203730  1.475723
