17
Energy: -32489.1686159 eV PBE+vdW (tier 2 basis)
N    -0.076562  0.032004  -0.177051
C    -0.186029  -0.465732  1.235488
C    1.098536  -0.015799  1.984212
O    1.820171  0.826947  1.504552
H    0.518524  0.880752  -0.089445
H    0.551933  -0.608085  -0.684020
H    -1.005595  0.086776  1.728212
C    -0.482622  -1.966012  1.343005
C    -1.795713  -2.384745  0.724483
O    -2.429826  -1.635301  -0.057194
O    -2.310863  -3.556372  0.961362
H    -0.469822  -2.254829  2.405247
H    0.314197  -2.569321  0.870034
O    1.224114  -0.624604  3.160869
H    2.010652  -0.276035  3.634173
H    -1.796033  -4.104912  1.589519
Ca    -2.221062  0.142268  -1.207447
