17
Energy: -32490.0135918 eV PBE+vdW (tier 2 basis)
N    0.854898  -0.604196  0.226720
C    0.533643  -0.347330  1.660554
C    1.827285  -0.578826  2.468057
O    2.701931  -1.342122  2.039543
H    -0.017312  -0.658683  -0.310517
H    1.336024  0.220103  -0.151919
H    0.206660  0.695021  1.810365
C    -0.624921  -1.242730  2.174937
C    -0.474499  -2.744495  1.978806
O    0.461412  -3.251929  1.340796
O    -1.376050  -3.550534  2.476795
H    -1.556678  -0.933283  1.670596
H    -0.799995  -1.041142  3.243571
O    2.005831  0.000311  3.627154
H    1.320408  0.654779  3.870812
H    -2.095751  -3.109176  2.972213
Ca    2.290114  -2.658768  0.295517
