17
Energy: -32489.8655565 eV PBE+vdW (tier 2 basis)
N    -0.397221  -0.169296  0.607882
C    -0.196980  -0.092838  2.102936
C    1.241795  0.453817  2.257052
O    1.854990  0.858169  1.290916
H    -1.324158  0.143160  0.297091
H    0.358374  0.440695  0.208376
H    -0.870647  0.685357  2.490241
C    -0.505404  -1.403721  2.839988
C    0.201536  -2.647564  2.351410
O    0.455219  -3.595750  3.162630
O    0.507140  -2.786647  1.099114
H    -1.586511  -1.619919  2.785863
H    -0.286882  -1.271662  3.907183
O    1.639416  0.441198  3.521982
H    2.514265  0.879281  3.601786
H    -0.213500  -1.139797  0.289116
Ca    1.258567  -4.844484  1.582434
