17
Energy: -32489.2734366 eV PBE+vdW (tier 2 basis)
N    0.498631  -1.043705  -0.181782
C    0.299180  -0.169641  1.038879
C    1.546538  -0.097626  1.936650
O    1.500834  0.357160  3.047275
H    1.177969  -0.633930  -0.835681
H    0.844644  -1.980480  0.064902
H    0.133314  0.844300  0.644055
C    -0.933843  -0.615060  1.837919
C    -2.200519  -0.692330  1.000701
O    -3.342884  -0.611636  1.673769
O    -2.174550  -0.850832  -0.216801
H    -1.058669  0.077491  2.679195
H    -0.771228  -1.606007  2.295790
O    2.629474  -0.577788  1.292123
H    3.416474  -0.483610  1.870123
H    -0.457032  -1.117795  -0.622819
Ca    -5.320335  -0.557511  1.860701
