17
Energy: -32489.3380768 eV PBE+vdW (tier 2 basis)
N    0.359954  0.020912  0.131976
C    -0.117181  0.106485  1.485626
C    0.993482  -0.286688  2.468500
O    0.971861  0.055472  3.677511
H    1.169685  0.610381  -0.057714
H    -0.360474  0.238801  -0.555284
H    -0.445310  1.113906  1.829974
C    -1.338295  -0.856094  1.594107
C    -2.190855  -0.809080  2.834720
O    -1.905426  -0.137324  3.851758
O    -3.294785  -1.505288  2.889950
H    -1.011681  -1.896769  1.426442
H    -1.995109  -0.623845  0.738684
O    1.967990  -0.981426  1.963300
H    2.659645  -1.184688  2.632591
H    -3.493948  -2.009619  2.073820
Ca    -0.461554  0.721863  5.157038
