17
Energy: -32490.2028382 eV PBE+vdW (tier 2 basis)
N    -0.019880  -1.064370  -0.191895
C    -0.084584  -0.359541  1.151905
C    1.221202  0.420594  1.335433
O    1.185958  1.509729  1.969092
H    0.937802  -1.443195  -0.317158
H    -0.198559  -0.408299  -0.968025
H    -0.949851  0.312302  1.142292
C    -0.199327  -1.428425  2.273446
C    0.289890  -1.013804  3.660848
O    -0.587755  -1.301990  4.589025
O    1.407166  -0.530881  3.901265
H    0.434108  -2.294528  2.013920
H    -1.234040  -1.780754  2.359012
O    2.298510  -0.192890  1.037329
H    -0.701906  -1.833227  -0.276500
H    -0.242887  -1.105915  5.488650
Ca    3.048478  0.775088  2.972597
