17
Energy: -32489.0183605 eV PBE+vdW (tier 2 basis)
N    -0.529541  -1.465522  0.804859
C    0.192910  -0.324152  1.302466
C    1.543539  -0.939083  1.659092
O    1.787619  -1.567373  2.750459
H    -0.918973  -1.391709  -0.128302
H    -1.101901  -2.001388  1.446174
H    0.396041  0.350746  0.460528
C    -0.477866  0.545064  2.393878
C    -0.917806  -0.092090  3.684849
O    -1.901275  0.385871  4.332421
O    -0.289746  -1.114977  4.205116
H    -1.360357  1.028382  1.952643
H    0.194953  1.374514  2.681771
O    2.452306  -0.887249  0.746717
H    3.254804  -1.411242  0.973846
H    0.995958  -1.488609  3.400234
Ca    -1.667664  -0.970184  6.001250
