17
Energy: -32489.7993367 eV PBE+vdW (tier 2 basis)
N    0.099414  0.505685  0.710578
C    -1.196999  -0.078964  1.256169
C    -0.921836  -0.589219  2.690967
O    -1.171340  -1.711802  3.051815
H    0.533937  1.127755  1.410496
H    0.743657  -0.281960  0.502204
H    -1.910555  0.754569  1.320010
C    -1.749424  -1.178193  0.355518
C    -0.901920  -2.428843  0.313112
O    0.388390  -2.344856  0.411941
O    -1.449596  -3.566150  0.155986
H    -1.878688  -0.814702  -0.677957
H    -2.753467  -1.452922  0.702522
O    -0.377653  0.398099  3.419025
H    -0.235155  0.102972  4.343785
H    -0.053885  1.047949  -0.151415
Ca    0.430117  -4.585416  0.424243
