17
Energy: -32489.1390911 eV PBE+vdW (tier 2 basis)
N    -0.468056  0.391985  0.310964
C    -0.294101  -0.467735  1.532444
C    1.167139  -0.250718  2.013410
O    1.993478  0.227504  1.268586
H    -0.580200  1.350956  0.670423
H    0.499363  0.437949  -0.078302
H    -0.990832  -0.128765  2.310546
C    -0.483760  -1.986756  1.296452
C    -1.850278  -2.403960  0.816702
O    -2.438892  -1.776558  -0.097393
O    -2.462988  -3.445974  1.297736
H    -0.224843  -2.504640  2.229930
H    0.236054  -2.345116  0.537884
O    1.339795  -0.674772  3.260273
H    2.273043  -0.541438  3.535404
H    -1.972354  -3.908344  2.008490
Ca    -2.204568  -0.046618  -1.283550
