17
Energy: -32489.0978222 eV PBE+vdW (tier 2 basis)
N    0.441223  -0.645434  0.008538
C    -0.154243  -0.258500  1.217464
C    0.871822  0.075049  2.308821
O    0.543511  0.582631  3.407774
H    -0.114620  -0.525166  -0.832738
H    0.998023  -1.495914  -0.006052
H    -0.699768  0.686186  1.057733
C    -1.270035  -1.327520  1.789735
C    -1.732897  -0.945854  3.132897
O    -1.265638  -1.376071  4.202044
O    -2.543896  0.147489  3.304050
H    -0.811967  -2.321423  1.834616
H    -2.074563  -1.326644  1.044485
O    2.104052  -0.191342  1.993302
H    2.737530  0.069502  2.698119
H    -2.970675  0.476151  2.487263
Ca    -0.805859  0.565859  5.147948
