17
Energy: -32490.0004176 eV PBE+vdW (tier 2 basis)
N    -0.319075  0.249651  0.217626
C    0.010572  -0.252858  1.613208
C    1.536696  -0.184916  1.764187
O    2.016014  0.028199  2.909172
H    0.409668  -0.113756  -0.427965
H    -1.250427  -0.039848  -0.115769
H    -0.484706  0.402206  2.338113
C    -0.473424  -1.727197  1.755402
C    0.319277  -2.613257  2.729074
O    1.550464  -2.709143  2.684030
O    -0.326638  -3.359742  3.591202
H    -0.356081  -2.242937  0.786494
H    -1.543136  -1.734292  2.001071
O    2.224146  -0.557727  0.758887
H    -0.283730  1.280057  0.174105
H    -1.297958  -3.250260  3.580409
Ca    3.491337  -1.585182  2.394753
