17
Energy: -32490.0518385 eV PBE+vdW (tier 2 basis)
N    0.008318  -0.200944  0.062955
C    0.247206  0.032616  1.546430
C    1.766606  -0.087758  1.756268
O    2.237514  0.168366  2.894505
H    -0.825081  -0.764172  -0.150895
H    -0.080610  0.688347  -0.449935
H    -0.102676  1.042653  1.789719
C    -0.493098  -0.974102  2.460301
C    0.143537  -2.347566  2.707024
O    1.361863  -2.557662  2.679471
O    -0.639677  -3.348917  3.037235
H    -1.540503  -1.077878  2.140343
H    -0.541817  -0.503943  3.457938
O    2.433754  -0.648044  0.822928
H    0.874230  -0.679588  -0.282910
H    -1.592358  -3.130377  3.068920
Ca    3.461289  -1.691692  2.592491
