17
Energy: -32489.1041985 eV PBE+vdW (tier 2 basis)
N    0.048699  0.014966  0.132398
C    -0.441894  -0.104594  1.497476
C    0.749889  -0.355212  2.400977
O    1.299176  -1.504106  2.563382
H    0.718685  -0.692759  -0.163312
H    0.402288  0.942659  -0.097525
H    -0.847965  0.871633  1.792821
C    -1.608432  -1.109719  1.628664
C    -1.394856  -2.525980  1.171434
O    -2.351108  -3.193803  0.670892
O    -0.241116  -3.130207  1.313432
H    -2.456667  -0.709274  1.058327
H    -1.949993  -1.169655  2.678444
O    1.290606  0.682158  2.948223
H    2.123449  0.472045  3.430743
H    0.758075  -2.243193  2.082794
Ca    -1.201835  -5.010959  0.473832
