18
Energy: -238541.42519 eV PBE+vdW (tier 2 basis)
N    0.162807  0.922094  0.759956
C    -0.545281  -0.190819  1.341567
C    0.321323  -0.927106  2.358684
O    -0.112673  -1.854406  3.073399
H    0.636668  1.507738  1.446299
H    -2.958720  -1.267866  -1.518960
H    -1.464031  0.068505  1.914544
C    -0.959646  -1.157780  0.172286
C    -2.288411  -1.856903  0.330049
O    -2.572499  -2.515769  1.379699
N    -3.157509  -1.783343  -0.666666
H    -0.190475  -1.931028  0.022752
H    -0.946734  -0.555716  -0.743870
H    -0.453282  1.518328  0.208698
H    -4.046322  -2.276788  -0.611621
O    1.555706  -0.502131  2.438752
H    2.060259  -0.998472  3.119128
Ba    -2.022180  -3.389538  3.558306
