18
Energy: -238541.810905 eV PBE+vdW (tier 2 basis)
N    -0.112807  0.304386  0.017051
C    -0.023247  0.049055  1.496088
C    1.331833  -0.629324  1.770351
O    2.272736  -0.464138  0.921355
H    -0.762590  1.060843  -0.220997
H    0.820770  0.510295  -0.363676
H    0.009696  1.011497  2.029535
C    -1.244768  -0.754893  1.966891
C    -1.503483  -1.983546  1.093848
O    -1.015267  -2.052982  -0.058679
N    -2.278320  -2.947114  1.592420
H    -2.140846  -0.115285  1.940730
H    -1.095441  -1.037814  3.016257
H    -2.691514  -2.892603  2.516829
H    -2.540107  -3.729256  0.996943
O    1.491494  -1.281940  2.847313
H    -0.478580  -0.679145  -0.343878
Ba    3.925445  -1.741035  2.368621
