18
Energy: -238541.620755 eV PBE+vdW (tier 2 basis)
N    -1.230341  -0.045437  0.702279
C    -0.236776  0.182615  1.790159
C    1.186402  0.387359  1.266403
O    2.119819  0.696886  1.940708
H    -1.421310  0.855518  0.250481
H    -2.123160  -0.302511  1.136170
H    -0.460639  1.120443  2.324972
C    -0.245454  -0.921751  2.866098
C    0.231641  -2.289489  2.409835
O    0.257556  -2.600135  1.181029
N    0.602653  -3.155670  3.338961
H    -1.266094  -1.028967  3.269381
H    0.371204  -0.577484  3.708036
H    0.610379  -2.920732  4.327723
H    0.896365  -4.094469  3.076502
O    1.309552  0.173760  -0.121415
H    2.225138  0.450381  -0.344550
Ba    -0.197937  -1.893315  -1.104774
