18
Energy: -238541.485156 eV PBE+vdW (tier 2 basis)
N    0.545954  0.717737  0.756682
C    -0.530117  -0.161931  1.174943
C    -0.055057  -1.014743  2.352651
O    0.348584  -2.196915  2.279344
H    0.707750  1.501709  1.386610
H    -3.573611  -0.539618  -0.515297
H    -1.348322  0.469182  1.551167
C    -1.013964  -0.957431  -0.062615
C    -2.183778  -1.889270  0.160892
O    -2.001313  -3.064314  0.611885
N    -3.404815  -1.459231  -0.118065
H    -0.181948  -1.554289  -0.463577
H    -1.251671  -0.202945  -0.822910
H    1.425924  0.247501  0.548192
H    -4.208615  -2.069833  0.015841
O    -0.024474  -0.331623  3.478762
H    0.411286  -0.836811  4.197186
Ba    -0.339814  -4.509173  1.620307
