18
Energy: -238542.069419 eV PBE+vdW (tier 2 basis)
N    2.278811  -5.574429  -0.883124
C    1.705377  -5.335028  0.504126
C    2.541710  -6.226756  1.448055
O    2.329891  -6.144149  2.682672
H    2.901293  -6.416731  -0.736800
H    1.575814  -5.761991  -1.607557
H    1.849561  -4.277685  0.754684
C    0.206350  -5.666364  0.620938
C    -0.183960  -7.148737  0.622561
O    0.477950  -8.012563  1.248064
N    -1.297139  -7.471474  -0.035507
H    -0.364883  -5.102462  -0.129673
H    -0.112089  -5.269699  1.598408
H    -1.874191  -6.782987  -0.508086
H    -1.651368  -8.424656  0.011982
O    3.289858  -7.094565  0.888131
H    2.859881  -4.789055  -1.204207
Ba    2.408135  -8.685670  2.814336
