18
Energy: -238540.644824 eV PBE+vdW (tier 2 basis)
N    -0.330200  0.488486  0.270626
C    0.024846  -0.262724  1.523366
C    1.491263  -0.114445  1.955517
O    1.996624  -0.850681  2.762934
H    -0.340692  1.502829  0.421246
H    -1.346407  0.068778  0.042200
H    -0.583809  0.192591  2.319886
C    -0.359057  -1.747071  1.392302
C    -1.794269  -1.989462  0.954779
O    -2.312301  -3.168532  1.273557
N    -2.388417  -1.064353  0.284604
H    -0.171917  -2.219075  2.363694
H    0.310444  -2.256277  0.678624
H    0.326171  0.299039  -0.495560
H    -3.345692  -1.271017  -0.008725
O    2.077365  0.930824  1.338535
H    2.995954  1.019161  1.669637
Ba    -3.200906  -5.167073  1.827775
