18
Energy: -238540.724574 eV PBE+vdW (tier 2 basis)
N    3.875775  1.591401  -0.347308
C    4.285012  1.469729  1.088510
C    5.811588  1.290804  1.106738
O    6.422144  0.959129  0.115919
H    3.975513  2.553031  -0.689604
H    4.500323  0.998774  -0.919627
H    4.000938  2.396747  1.601789
C    3.593940  0.261894  1.766241
C    2.094297  0.138767  1.527023
O    1.417662  -0.553535  2.437205
N    1.600973  0.656396  0.458825
H    3.791192  0.328279  2.842782
H    4.059138  -0.677761  1.423129
H    2.816059  1.273776  -0.349477
H    0.596073  0.523006  0.325804
O    6.312169  1.510618  2.325560
H    7.282813  1.373368  2.300436
Ba    0.158394  -1.752425  3.874054
