18
Energy: -238540.662667 eV PBE+vdW (tier 2 basis)
N    0.051653  0.880260  0.434881
C    0.209545  0.252768  1.712849
C    1.716078  0.120022  1.988664
O    2.565575  -0.248078  1.246095
H    0.510572  1.783326  0.336377
H    -0.914359  0.943764  0.120063
H    -0.243647  0.812188  2.576453
C    -0.446830  -1.147303  1.635943
C    -0.447050  -1.959690  2.907000
O    -0.316292  -1.405119  4.048045
N    -0.613818  -3.267428  2.813496
H    0.024350  -1.705969  0.814879
H    -1.501854  -1.005096  1.345305
H    -0.712977  -3.732762  1.914830
H    -0.678203  -3.843066  3.650632
O    2.054821  0.514669  3.329988
H    3.036243  0.476975  3.346102
Ba    0.428196  0.379538  5.449398
