18
Energy: -238541.534641 eV PBE+vdW (tier 2 basis)
N    0.581691  -0.067918  0.113978
C    -0.051956  0.038627  1.424204
C    0.955751  0.155358  2.560735
O    0.810079  -0.361960  3.683721
H    -0.011890  0.351914  -0.603338
H    1.476960  0.419554  0.072752
H    -0.648450  0.970085  1.538924
C    -1.042919  -1.135914  1.636595
C    -0.356657  -2.475604  1.787985
O    -0.346785  -3.064364  2.919470
N    0.256141  -2.988134  0.736624
H    -1.715897  -1.152222  0.768580
H    -1.673166  -0.961546  2.516249
H    0.348710  -2.426800  -0.111573
H    0.734750  -3.884526  0.796554
O    1.989843  0.908061  2.255042
H    2.589076  1.030598  3.022002
Ba    0.063720  -2.311207  5.163497
