18
Energy: -238541.349916 eV PBE+vdW (tier 2 basis)
N    -1.227798  -1.141349  1.229878
C    0.005061  -0.831315  2.011346
C    0.719016  0.359264  1.319400
O    0.154889  1.012831  0.472245
H    -0.956370  -1.755068  0.451287
H    -1.448700  -0.252282  0.743336
H    -0.298229  -0.435092  2.997785
C    0.909031  -2.046732  2.237761
C    0.326377  -3.094280  3.168029
O    -0.923696  -3.152822  3.393924
N    1.152415  -3.961145  3.729529
H    1.873756  -1.701167  2.633300
H    1.142727  -2.538075  1.276865
H    2.156882  -3.926013  3.578198
H    0.793337  -4.696879  4.334800
O    1.940983  0.567453  1.813143
H    2.332095  1.360322  1.387950
Ba    -3.108771  -2.310650  2.811223
