18
Energy: -238540.726839 eV PBE+vdW (tier 2 basis)
N    -0.282483  0.458170  -0.083332
C    0.006556  0.173389  1.359817
C    1.424352  -0.431301  1.364159
O    2.150326  -0.357443  0.398926
H    0.629987  0.563610  -0.564503
H    -0.867613  1.285044  -0.230571
H    0.079588  1.124842  1.907026
C    -1.087042  -0.692239  2.018695
C    -1.531445  -1.910600  1.222989
O    -2.105199  -2.886464  1.919100
N    -1.367705  -1.895176  -0.052437
H    -1.979316  -0.074480  2.209719
H    -0.718854  -1.007038  3.001883
H    -0.771426  -0.474249  -0.427695
H    -1.698604  -2.723804  -0.551928
O    1.733858  -0.973934  2.547831
H    2.673848  -1.250785  2.521666
Ba    -3.140824  -4.585541  2.977655
