18
Energy: -238540.74791 eV PBE+vdW (tier 2 basis)
N    4.287351  1.709722  -0.499290
C    4.238276  1.742250  0.955044
C    4.892720  0.485384  1.508152
O    5.680746  -0.206612  0.941697
H    2.240106  0.925912  -0.836314
H    4.415059  2.646700  -0.883496
H    4.838220  2.562351  1.400652
C    2.774664  1.968932  1.428804
C    1.906420  0.770434  1.141407
O    1.450896  0.071229  2.115048
N    1.694856  0.438995  -0.114126
H    2.395469  2.854264  0.900978
H    2.734240  2.200450  2.499720
H    5.062214  1.132135  -0.831951
H    1.145879  -0.383222  -0.358759
O    4.556344  0.187837  2.878615
H    5.314204  -0.377412  3.144181
Ba    2.217336  -0.645349  4.227639
