18
Energy: -238541.835417 eV PBE+vdW (tier 2 basis)
N    0.706311  -1.917156  -3.147779
C    1.097816  -2.483584  -1.801923
C    2.664748  -2.319872  -1.820079
O    3.291356  -2.637408  -0.753655
H    1.711499  -1.711733  -3.535496
H    0.160583  -1.050789  -3.085426
H    0.670852  -1.840968  -1.021976
C    0.597697  -3.942407  -1.653194
C    0.577283  -4.491375  -0.225564
O    1.630524  -4.721100  0.419972
N    -0.616885  -4.751486  0.301594
H    1.227791  -4.619311  -2.250118
H    -0.419838  -4.009010  -2.062597
H    -1.485017  -4.611974  -0.204646
H    -0.678549  -5.166946  1.228934
O    3.143082  -1.899754  -2.878286
H    0.210267  -2.572142  -3.762022
Ba    3.996481  -4.106987  0.945262
