18
Energy: -238541.248955 eV PBE+vdW (tier 2 basis)
N    -0.647795  -1.501581  0.735543
C    -0.155097  -0.883120  2.007414
C    0.527729  0.496889  1.806270
O    1.338646  0.947201  2.571807
H    0.172524  -1.793730  0.190019
H    -1.039108  -0.734327  0.172871
H    -1.041473  -0.658549  2.626326
C    0.790118  -1.794020  2.800585
C    0.117209  -2.937051  3.519300
O    -0.913214  -3.503270  3.026086
N    0.631419  -3.358248  4.660871
H    1.343320  -1.158549  3.505867
H    1.556815  -2.225816  2.133080
H    1.440467  -2.910217  5.083035
H    0.226917  -4.156657  5.146623
O    0.039556  1.107226  0.706745
H    0.446732  1.995725  0.630235
Ba    -2.431767  -3.572909  1.179325
