18
Energy: -238541.826394 eV PBE+vdW (tier 2 basis)
N    0.711400  -1.919063  -3.029869
C    1.165903  -2.573463  -1.801774
C    2.711917  -2.423935  -1.799370
O    3.457269  -2.953548  -0.950186
H    -0.045411  -1.252029  -2.887650
H    0.447514  -2.564825  -3.774875
H    0.814399  -1.979824  -0.942988
C    0.673380  -4.045721  -1.644465
C    0.598202  -4.574906  -0.220840
O    1.633596  -4.785604  0.474307
N    -0.606636  -4.827200  0.276790
H    1.319171  -4.727235  -2.217777
H    -0.323959  -4.100780  -2.097893
H    -1.457329  -4.696393  -0.261395
H    -0.699780  -5.211896  1.214836
O    3.169482  -1.677071  -2.743330
H    2.300939  -1.420016  -3.252688
Ba    4.023034  -4.440514  0.886833
