18
Energy: -238540.717326 eV PBE+vdW (tier 2 basis)
N    -0.029371  1.021526  0.542644
C    0.084985  0.180783  1.711062
C    1.588252  0.138471  1.995729
O    2.428217  -0.357066  1.313006
H    -0.981263  1.324626  0.347674
H    0.391242  0.618919  -0.294257
H    -0.428544  0.709204  2.531006
C    -0.489289  -1.255709  1.609866
C    -0.475832  -2.024298  2.911727
O    -0.174366  -1.443389  4.010659
N    -0.792956  -3.306357  2.900064
H    0.057541  -1.823595  0.841399
H    -1.532137  -1.187793  1.260354
H    -1.031122  -3.788578  2.036924
H    -0.819725  -3.847121  3.762120
O    1.952702  0.817923  3.207232
H    2.923509  0.951694  3.134363
Ba    0.677053  0.238568  5.481017
