33
Energy: -573178.112442 eV PBE+vdW (tier 2 basis)
C    0.116510  0.892328  0.588774
C    -0.329789  0.189217  1.824984
O    0.318126  0.262505  2.934790
H    0.106588  1.980546  0.754372
H    -0.509563  0.668630  -0.280847
H    1.155711  0.608211  0.372633
N    -1.407268  -0.589326  1.781770
C    -1.956351  -1.380776  2.866957
C    -2.657337  -2.572024  2.129883
O    -2.992765  -2.358525  0.960030
H    -1.867305  -0.822529  0.883484
H    -1.148679  -1.693565  3.538195
C    -3.090864  -0.629559  3.683585
C    -2.554736  0.583020  4.365573
C    -1.860167  0.467773  5.594319
C    -2.667455  1.852363  3.749939
C    -1.180587  1.545734  6.132780
C    -2.005447  2.953725  4.266671
C    -1.175672  2.806287  5.438842
H    -3.476810  -1.349851  4.417247
H    -3.901756  -0.378435  2.988136
H    -1.844386  -0.488991  6.117097
H    -3.280307  1.963844  2.855276
H    -0.651003  1.458718  7.081589
H    -2.110613  3.938510  3.810049
H    -0.797915  3.698607  5.944775
N    -2.885039  -3.714738  2.783869
C    -2.512894  -4.098396  4.142500
H    -3.380618  -4.410352  2.225808
H    -2.232141  -5.156910  4.147191
H    -3.353191  -3.959189  4.837387
H    -1.647462  -3.526818  4.492600
Hg    0.617193  2.147971  4.042485
