33
Energy: -573178.115405 eV PBE+vdW (tier 2 basis)
C    0.278009  0.753278  0.722827
C    -0.254314  0.056862  1.928595
O    0.365185  0.054148  3.055850
H    -0.339843  0.601582  -0.167996
H    1.297350  0.394004  0.524719
H    0.348908  1.834316  0.917791
N    -1.387160  -0.635736  1.836263
C    -2.026688  -1.404414  2.887563
C    -2.784622  -2.531918  2.109495
O    -3.118907  -2.261272  0.953173
H    -1.841358  -0.796994  0.921503
H    -1.268579  -1.785333  3.581420
C    -3.135359  -0.583832  3.673269
C    -2.533628  0.569127  4.401905
C    -1.896410  0.375631  5.651710
C    -2.523202  1.854882  3.810612
C    -1.154749  1.385700  6.237531
C    -1.796352  2.889995  4.374721
C    -1.025101  2.654489  5.572154
H    -3.609593  -1.284751  4.373140
H    -3.892722  -0.257209  2.949418
H    -1.974766  -0.589371  6.153301
H    -3.092079  2.031757  2.897635
H    -0.669074  1.238742  7.202277
H    -1.807011  3.888755  3.936837
H    -0.597163  3.504146  6.110537
N    -3.056891  -3.683520  2.733646
C    -2.581713  -4.140440  4.038902
H    -3.556930  -4.356198  2.153099
H    -3.071891  -5.092739  4.260333
H    -2.854098  -3.438087  4.837366
H    -1.496444  -4.308737  4.043069
Hg    0.765195  1.889134  4.223333
