33
Energy: -573177.32438 eV PBE+vdW (tier 2 basis)
C    -0.402654  1.376443  0.036483
C    -0.238949  0.445740  1.199241
O    0.891934  -0.116647  1.336005
H    0.411446  2.114128  0.059829
H    -1.364811  1.900400  0.044365
H    -0.290796  0.808713  -0.897113
N    -1.281780  0.275815  2.028561
C    -1.279360  -0.256959  3.400570
C    -1.670939  -1.753439  3.421978
O    -1.157039  -2.516724  2.535191
H    -2.129106  0.780575  1.771730
H    -0.223351  -0.282742  3.726082
C    -1.967359  0.769181  4.321314
C    -3.355326  1.255131  3.970906
C    -3.790272  2.464568  4.581737
C    -4.236575  0.585584  3.106069
C    -5.058733  2.975144  4.341313
C    -5.508996  1.100401  2.858801
C    -5.925586  2.298990  3.476877
H    -1.299454  1.644267  4.354664
H    -1.954807  0.390160  5.355608
H    -3.113406  2.996320  5.252083
H    -3.959030  -0.353603  2.622821
H    -5.374002  3.900191  4.821587
H    -6.189048  0.573522  2.190429
H    -6.922042  2.691543  3.277839
N    -2.447655  -2.348516  4.323914
C    -3.312822  -1.862994  5.403877
H    -2.446113  -3.363116  4.195047
H    -3.926789  -1.016405  5.084071
H    -2.715879  -1.589741  6.284014
H    -3.977441  -2.685609  5.682265
Hg    1.054740  -2.298322  1.947843
