33
Energy: -573177.612068 eV PBE+vdW (tier 2 basis)
C    -0.325807  -0.709253  0.030581
C    -0.668601  -0.052710  1.337306
O    -0.321888  -0.675605  2.385773
H    -0.839509  -0.257413  -0.825019
H    -0.579232  -1.774933  0.089618
H    0.762204  -0.647892  -0.116712
N    -1.302242  1.132842  1.284580
C    -2.019123  1.923521  2.307404
C    -1.085277  2.836689  3.125738
O    -0.180378  2.418204  3.915394
H    -1.453558  1.463942  0.335836
H    -2.655952  2.592220  1.712546
C    -2.984826  1.109930  3.215012
C    -4.053240  0.379138  2.440590
C    -5.186079  1.087838  1.960175
C    -3.952386  -1.002959  2.203605
C    -6.183684  0.430532  1.256971
C    -4.951739  -1.664905  1.501979
C    -6.072542  -0.948986  1.022868
H    -3.449797  1.835847  3.899588
H    -2.435843  0.392476  3.840652
H    -5.287731  2.154509  2.168254
H    -3.103975  -1.564688  2.595974
H    -7.056440  0.975795  0.901075
H    -4.884842  -2.738517  1.330761
H    -6.858012  -1.475310  0.481382
N    -1.268320  4.143547  3.005273
C    -0.499317  5.151573  3.744786
H    -1.949239  4.476074  2.327877
H    0.493924  5.278770  3.295687
H    -0.384131  4.835732  4.786775
H    -1.042882  6.099045  3.701668
Hg    0.179523  0.233653  4.412054
