33
Energy: -573177.545621 eV PBE+vdW (tier 2 basis)
C    -2.922057  -2.374190  0.643015
C    -1.907440  -1.620607  1.451292
O    -0.787367  -1.391166  0.919891
H    -2.442590  -3.244149  0.179250
H    -3.275045  -1.723971  -0.170293
H    -3.780110  -2.699510  1.242635
N    -2.251393  -1.236515  2.700648
C    -1.477640  -0.336256  3.546411
C    -0.226504  -1.015551  4.164381
O    0.926560  -0.605915  3.817186
H    -3.206890  -1.441759  2.982039
H    -1.050167  0.448214  2.900126
C    -2.361836  0.383537  4.599005
C    -3.332509  1.355993  3.974518
C    -2.873890  2.614717  3.498271
C    -4.697727  1.041621  3.879282
C    -3.758360  3.526827  2.943263
C    -5.587393  1.953342  3.322888
C    -5.118775  3.201040  2.848422
H    -1.682848  0.919041  5.279687
H    -2.907469  -0.349882  5.206029
H    -1.820192  2.881003  3.601385
H    -5.074123  0.098947  4.280191
H    -3.404254  4.496961  2.598270
H    -6.649583  1.718971  3.264713
H    -5.823090  3.913589  2.420255
N    -0.295468  -1.980186  5.074161
C    -1.446828  -2.562777  5.763760
H    0.622948  -2.299345  5.390978
H    -1.180925  -3.587531  6.044635
H    -2.320222  -2.605956  5.108362
H    -1.684253  -2.004214  6.678865
Hg    1.125438  -0.189320  1.555481
