33
Energy: -573177.683371 eV PBE+vdW (tier 2 basis)
C    0.272085  -1.769812  2.703436
C    -1.004661  -0.989523  2.751577
O    -1.354764  -0.443535  3.829753
H    0.469570  -2.198367  1.714545
H    0.227123  -2.572650  3.450939
H    1.103237  -1.111382  2.988994
N    -1.748639  -0.906730  1.602777
C    -2.935397  -0.085113  1.655286
C    -4.170289  -0.825906  2.203997
O    -4.627831  -0.482613  3.344691
H    -1.414991  -1.368724  0.762121
H    -2.657132  0.525011  2.509449
C    -3.239137  1.034415  0.613099
C    -3.926688  2.108599  1.449887
C    -5.315295  2.281833  1.462358
C    -3.181046  2.770037  2.444829
C    -5.971635  2.974608  2.501474
C    -3.834885  3.407603  3.551543
C    -5.256807  3.477969  3.576286
H    -3.865187  0.707355  -0.224883
H    -2.283694  1.391916  0.203382
H    -5.917945  1.837489  0.668318
H    -2.089663  2.809603  2.386873
H    -7.055300  3.082104  2.469922
H    -3.248819  4.016269  4.245241
H    -5.759821  3.973790  4.405350
N    -4.759901  -1.803664  1.536317
C    -4.406521  -2.348217  0.225148
H    -5.535166  -2.253499  2.027062
H    -3.758680  -1.659266  -0.323733
H    -5.321565  -2.495447  -0.359092
H    -3.900711  -3.315617  0.340124
Hg    -3.329847  1.082463  4.445928
