33
Energy: -573178.499569 eV PBE+vdW (tier 2 basis)
C    0.381906  0.574286  1.218568
C    -0.508674  0.927429  2.372163
O    -0.089836  0.623057  3.529336
H    1.326149  1.126715  1.328626
H    -0.054396  0.808132  0.241420
H    0.631485  -0.492865  1.267651
N    -1.665668  1.560981  2.080094
C    -2.687491  2.225883  2.921765
C    -2.055746  3.109138  4.020888
O    -1.823922  2.685267  5.189148
H    -1.810360  1.692315  1.082649
H    -3.163268  2.929066  2.227162
C    -3.885700  1.332055  3.401025
C    -3.647805  -0.035421  4.012688
C    -3.541178  -0.224824  5.446209
C    -3.601922  -1.175060  3.212039
C    -3.345244  -1.537958  5.989348
C    -3.436160  -2.456782  3.766683
C    -3.282313  -2.641810  5.142435
H    -4.516221  1.180204  2.514902
H    -4.476584  1.952083  4.091096
H    -3.885352  0.570794  6.115794
H    -3.726498  -1.079035  2.133144
H    -3.312760  -1.660136  7.072379
H    -3.432568  -3.323150  3.104829
H    -3.152508  -3.641213  5.554829
N    -1.795690  4.380535  3.727839
C    -2.064625  5.125412  2.493352
H    -1.385877  4.902479  4.504036
H    -3.142343  5.215656  2.303769
H    -1.562379  4.666946  1.633005
H    -1.661079  6.134103  2.617957
Hg    -1.370589  0.425859  5.319466
