33
Energy: -573177.747462 eV PBE+vdW (tier 2 basis)
C    -1.967209  0.645980  -0.653385
C    -1.750254  -0.130115  0.610142
O    -0.852787  -1.026833  0.592860
H    -1.006812  1.076378  -0.969644
H    -2.701613  1.450675  -0.536551
H    -2.285549  -0.042602  -1.447522
N    -2.504575  0.179116  1.682567
C    -2.270673  -0.177316  3.088757
C    -3.134364  -1.388774  3.489355
O    -3.041841  -2.492185  2.854941
H    -3.212630  0.892461  1.521100
H    -1.227063  -0.525220  3.165586
C    -2.414681  1.115429  3.939321
C    -2.237800  0.936011  5.427986
C    -1.043879  0.404207  5.965710
C    -3.263134  1.358798  6.309835
C    -0.880092  0.301491  7.338385
C    -3.098267  1.257294  7.685086
C    -1.907789  0.723362  8.205380
H    -3.393853  1.577177  3.737376
H    -1.657722  1.819922  3.561858
H    -0.226254  0.109272  5.306351
H    -4.169979  1.815947  5.906828
H    0.048813  -0.088898  7.751843
H    -3.879909  1.605920  8.358611
H    -1.772023  0.646355  9.283704
N    -3.994208  -1.292187  4.488214
C    -4.822402  -2.391456  4.985189
H    -4.080586  -0.387415  4.956748
H    -5.023714  -2.218137  6.046659
H    -4.298878  -3.341612  4.844336
H    -5.774922  -2.425259  4.438981
Hg    -1.115875  -2.970488  1.744443
