33
Energy: -573177.475404 eV PBE+vdW (tier 2 basis)
C    0.342784  1.380789  1.288037
C    -0.055241  0.449475  2.385230
O    0.789630  -0.244978  3.026474
H    0.774617  0.802003  0.458298
H    1.136528  2.042732  1.659098
H    -0.484981  1.983435  0.899700
N    -1.362602  0.359650  2.708290
C    -1.945693  -0.480813  3.738879
C    -1.278239  -1.853027  3.831116
O    -0.979187  -2.487960  2.769306
H    -2.008532  0.987111  2.229206
H    -1.853108  0.027756  4.710096
C    -3.471163  -0.689360  3.430226
C    -4.260551  0.586406  3.347836
C    -4.822205  0.991740  2.122479
C    -4.487373  1.377242  4.512295
C    -5.599032  2.141515  2.057490
C    -5.264740  2.521525  4.450941
C    -5.822767  2.913188  3.224013
H    -3.870408  -1.320628  4.239476
H    -3.560249  -1.262015  2.498021
H    -4.678805  0.381895  1.229542
H    -4.065335  1.066632  5.469648
H    -6.049216  2.448223  1.114142
H    -5.448838  3.111837  5.347132
H    -6.433235  3.813927  3.164757
N    -1.135988  -2.418129  5.027532
C    -1.431451  -1.862135  6.349422
H    -0.789022  -3.377530  4.996356
H    -0.973088  -0.870988  6.465417
H    -1.000310  -2.526820  7.103009
H    -2.513024  -1.796806  6.525772
Hg    1.254824  -2.361892  2.130763
