33
Energy: -573177.7522 eV PBE+vdW (tier 2 basis)
C    0.015859  0.355685  0.440686
C    -0.142564  -0.038471  1.870530
O    0.857711  -0.243778  2.631410
H    -0.934407  0.476472  -0.090272
H    0.619080  -0.409070  -0.069086
H    0.580019  1.297278  0.375245
N    -1.387995  -0.227025  2.358017
C    -1.679210  -0.680448  3.697523
C    -2.581027  -1.973724  3.765565
O    -2.113752  -2.869376  4.459412
H    -2.156975  -0.122803  1.698501
H    -0.733836  -1.028677  4.121239
C    -2.264843  0.434632  4.667304
C    -1.142471  1.347403  5.016873
C    -0.204075  0.952757  6.004245
C    -0.918916  2.533890  4.279027
C    0.992740  1.626635  6.154343
C    0.267790  3.232905  4.409215
C    1.295711  2.739853  5.295781
H    -2.640071  -0.099308  5.550433
H    -3.099914  0.962546  4.193177
H    -0.418478  0.088948  6.635136
H    -1.684328  2.896104  3.592501
H    1.715177  1.326432  6.913397
H    0.440662  4.157714  3.857925
H    2.154189  3.376674  5.524322
N    -3.769042  -2.038151  3.142628
C    -4.426270  -1.074286  2.265498
H    -4.233431  -2.937867  3.264047
H    -5.503316  -1.270428  2.284587
H    -4.094672  -1.172306  1.219912
H    -4.290326  -0.044798  2.617299
Hg    2.132815  1.362545  3.549173
