33
Energy: -573177.517329 eV PBE+vdW (tier 2 basis)
C    -0.380565  2.537132  1.525124
C    -1.005630  1.200976  1.251368
O    -0.963194  0.779755  0.053630
H    -0.681139  3.238903  0.737216
H    0.712316  2.433770  1.458722
H    -0.650902  2.947982  2.504029
N    -1.570839  0.556969  2.286901
C    -2.460149  -0.613674  2.342922
C    -1.702768  -1.945651  2.329511
O    -0.688182  -2.156312  1.590378
H    -1.485179  1.051644  3.170562
H    -2.945727  -0.526728  3.323526
C    -3.607448  -0.625688  1.279825
C    -4.525460  0.563644  1.353798
C    -5.533795  0.619337  2.349437
C    -4.407030  1.621790  0.428219
C    -6.386091  1.707937  2.427283
C    -5.262279  2.711362  0.500407
C    -6.255975  2.760684  1.501862
H    -4.184034  -1.544857  1.468450
H    -3.190009  -0.709898  0.267655
H    -5.652516  -0.208911  3.050269
H    -3.658919  1.570072  -0.363212
H    -7.163769  1.746655  3.188506
H    -5.183338  3.522600  -0.221988
H    -6.935630  3.611176  1.548003
N    -2.109056  -2.929849  3.126827
C    -3.098656  -2.889875  4.208124
H    -1.583406  -3.798161  3.009434
H    -3.143666  -3.885392  4.657951
H    -4.096627  -2.644185  3.824043
H    -2.807752  -2.175818  4.989809
Hg    -0.511585  -1.376392  -0.542592
