33
Energy: -573177.539945 eV PBE+vdW (tier 2 basis)
C    -0.948630  -3.184675  -0.133544
C    -0.869125  -1.999311  0.783462
O    0.157890  -1.271706  0.711613
H    0.007894  -3.719903  -0.118644
H    -1.104350  -2.821743  -1.159892
H    -1.762607  -3.868682  0.133666
N    -1.902812  -1.783329  1.628702
C    -2.081878  -0.588359  2.446268
C    -1.127905  -0.548512  3.667962
O    -0.275413  0.391820  3.749747
H    -2.691518  -2.419607  1.539826
H    -1.771808  0.282128  1.845520
C    -3.574559  -0.358007  2.802960
C    -3.805928  0.965086  3.491645
C    -3.903316  1.043979  4.892598
C    -3.947712  2.148069  2.718291
C    -4.133582  2.266078  5.510407
C    -4.178015  3.369974  3.331134
C    -4.270482  3.436975  4.730489
H    -3.955717  -1.178593  3.424838
H    -4.130163  -0.381571  1.853117
H    -3.830251  0.140647  5.498677
H    -3.906923  2.089180  1.629174
H    -4.223778  2.326603  6.594114
H    -4.304801  4.270871  2.732816
H    -4.460872  4.391669  5.219868
N    -1.169808  -1.442872  4.649759
C    -2.094078  -2.547448  4.898281
H    -0.472875  -1.270461  5.377971
H    -1.534040  -3.347888  5.394934
H    -2.501497  -2.943953  3.966303
H    -2.912145  -2.238470  5.563081
Hg    0.798806  0.744013  1.727859
