27
Energy: -568997.161088 eV PBE+vdW (tier 2 basis)
C    -0.244259  -0.333528  -0.133442
C    -0.381190  0.794194  0.830580
O    0.405044  1.811235  0.797240
H    -1.065725  -0.300848  -0.867565
H    -0.289959  -1.314523  0.358749
H    0.694036  -0.231386  -0.686149
N    -1.370084  0.793871  1.743136
C    -1.596417  1.851046  2.747788
C    -0.355617  2.330188  3.491801
O    0.648707  1.552498  3.669317
H    -2.035723  2.712699  2.213459
C    -2.654597  1.230538  3.694709
C    -3.477105  0.349895  2.749624
C    -2.426404  -0.239666  1.815575
H    -3.249888  2.001987  4.193586
H    -2.154208  0.628088  4.465965
H    -4.201190  0.949858  2.180579
H    -4.034748  -0.429126  3.279889
H    -2.793492  -0.484933  0.810573
H    -1.969903  -1.155972  2.234582
N    -0.367766  3.535592  4.046848
C    -1.440074  4.528241  4.072049
H    0.474055  3.756038  4.584123
H    -2.157807  4.305190  4.874374
H    -1.971825  4.552393  3.111971
H    -0.998464  5.511621  4.257705
Hg    2.249606  1.633812  2.064932
