27
Energy: -568997.448362 eV PBE+vdW (tier 2 basis)
C    -0.673906  0.148381  -0.400359
C    -0.637256  -0.547003  0.928515
O    -0.106525  -1.720832  0.860159
H    -0.103005  1.087332  -0.361361
H    -1.713964  0.385419  -0.671599
H    -0.249059  -0.503830  -1.168297
N    -1.130793  0.058383  2.018984
C    -0.845370  -0.290422  3.444557
C    -1.819510  -1.323928  4.076826
O    -1.535944  -2.582460  4.107749
H    0.154136  -0.751797  3.515093
C    -0.827674  1.087971  4.133231
C    -1.865017  1.915889  3.363325
C    -1.703668  1.447724  1.919545
H    0.174685  1.516805  3.999943
H    -0.998612  1.023563  5.214058
H    -1.677945  2.990830  3.459304
H    -2.895118  1.754708  3.713445
H    -0.989848  2.080428  1.376756
H    -2.644612  1.419444  1.358709
N    -2.925392  -0.925473  4.664730
C    -3.889887  -1.807903  5.335128
H    -3.084711  0.078247  4.733270
H    -3.586284  -1.970856  6.377891
H    -3.930024  -2.770548  4.817132
H    -4.870507  -1.323646  5.313709
Hg    -0.151796  -3.094499  2.517555
