27
Energy: -568997.227605 eV PBE+vdW (tier 2 basis)
C    0.195245  -0.988935  0.461475
C    -0.064416  0.058027  1.498711
O    0.800222  0.990871  1.597619
H    -0.493556  -0.854206  -0.387652
H    0.047947  -1.997174  0.871775
H    1.220052  -0.889045  0.091983
N    -1.153010  -0.025585  2.293898
C    -1.544416  1.035400  3.229925
C    -0.539056  1.311726  4.377147
O    0.014232  2.462169  4.457798
H    -1.579765  1.998072  2.674915
C    -2.985846  0.688262  3.666878
C    -3.505469  -0.180671  2.511920
C    -2.279912  -0.978419  2.072065
H    -3.572680  1.599099  3.825269
H    -2.992834  0.131237  4.610958
H    -3.868796  0.443532  1.684568
H    -4.329764  -0.831348  2.822492
H    -2.310715  -1.290503  1.023581
H    -2.114848  -1.877173  2.686911
N    -0.264734  0.439839  5.335662
C    -0.825015  -0.878789  5.629687
H    0.384000  0.807700  6.037711
H    -0.024503  -1.481823  6.075090
H    -1.175693  -1.375707  4.724123
H    -1.641066  -0.799276  6.361865
Hg    0.604198  3.110161  2.390010
