27
Energy: -568996.672013 eV PBE+vdW (tier 2 basis)
C    -0.483476  -0.149096  -0.225035
C    -0.215686  -0.540124  1.194148
O    0.899683  -0.789740  1.627548
H    0.462113  -0.155803  -0.773849
H    -0.931768  0.853116  -0.284653
H    -1.179182  -0.862604  -0.692788
N    -1.324070  -0.590482  2.093602
C    -1.121545  -0.616480  3.544292
C    -0.852159  -2.103476  4.032131
O    -1.619551  -2.779497  4.757156
H    -0.207434  -0.069606  3.809376
C    -2.379015  0.042358  4.121751
C    -3.456475  -0.200129  3.053361
C    -2.672021  -0.166867  1.749795
H    -2.192128  1.118904  4.230946
H    -2.629448  -0.327131  5.121985
H    -4.274062  0.527639  3.075324
H    -3.931388  -1.209573  3.154536
H    -2.644752  0.886612  1.392560
H    -3.079371  -0.755145  0.914488
N    0.346239  -2.577455  3.705018
C    0.883750  -3.866629  4.110128
H    0.952384  -1.924161  3.183597
H    0.076373  -4.597976  4.219873
H    1.413690  -3.775863  5.072150
H    1.611244  -4.183503  3.353158
Hg    -4.001947  -2.979289  4.801400
