27
Energy: -568996.899284 eV PBE+vdW (tier 2 basis)
C    -1.466664  -0.486102  -0.301519
C    -0.754230  -0.377638  0.996992
O    0.442864  -0.762033  1.122432
H    -0.999370  -1.284086  -0.891147
H    -1.356022  0.448278  -0.874754
H    -2.534405  -0.700880  -0.169021
N    -1.370170  0.146991  2.110715
C    -2.311264  1.284458  2.052934
C    -1.461698  2.520348  1.665199
O    -0.263698  2.381530  1.270510
H    -3.067340  1.124176  1.271105
C    -2.923104  1.290749  3.464076
C    -1.824951  0.706454  4.379009
C    -0.841651  -0.000723  3.442594
H    -3.813448  0.649848  3.469851
H    -3.245858  2.290238  3.777879
H    -2.237046  -0.012372  5.098645
H    -1.321436  1.479767  4.971958
H    -0.604759  -1.054146  3.652743
H    0.187555  0.505165  3.524218
N    -2.041222  3.716169  1.700329
C    -1.373005  4.986926  1.428197
H    -3.051299  3.750615  1.843222
H    -1.584996  5.304822  0.396118
H    -1.760762  5.746133  2.116553
H    -0.293383  4.867013  1.548355
Hg    1.650363  1.039308  1.982804
