27
Energy: -568997.397434 eV PBE+vdW (tier 2 basis)
C    -0.261057  -0.815669  0.126025
C    -0.156505  -0.354325  1.546941
O    1.021788  -0.135681  1.983101
H    -0.679534  -0.013330  -0.501761
H    -0.913406  -1.696291  0.047018
H    0.735782  -1.064721  -0.249096
N    -1.267447  -0.220422  2.302650
C    -1.279295  0.364634  3.654109
C    -0.500114  -0.460338  4.715355
O    0.586174  -0.027254  5.220645
H    -0.762730  1.348247  3.627748
C    -2.774920  0.595499  3.967501
C    -3.421022  0.713767  2.583513
C    -2.654113  -0.311723  1.755419
H    -2.913585  1.476892  4.602558
H    -3.200664  -0.259864  4.512474
H    -3.284931  1.721387  2.167894
H    -4.495922  0.505443  2.607003
H    -2.652612  -0.103147  0.681419
H    -3.025438  -1.337985  1.903614
N    -1.007179  -1.603451  5.139646
C    -0.404799  -2.457233  6.168114
H    -1.941357  -1.852901  4.818351
H    0.683479  -2.347141  6.142428
H    -0.693752  -3.493751  5.966691
H    -0.771784  -2.167312  7.162550
Hg    1.744943  1.145670  3.696089
