27
Energy: -568997.190823 eV PBE+vdW (tier 2 basis)
C    0.393473  -0.963774  0.674160
C    0.017004  0.137472  1.614558
O    0.885129  1.047133  1.816790
H    0.318043  -1.940349  1.174461
H    1.419618  -0.815012  0.328029
H    -0.284081  -0.975918  -0.193432
N    -1.192660  0.118406  2.223848
C    -1.718251  1.249895  2.985175
C    -0.954231  1.582555  4.303696
O    -0.353328  2.705533  4.400978
H    -1.576007  2.177421  2.391449
C    -3.238046  0.988490  3.119243
C    -3.450611  -0.490231  2.750243
C    -2.261679  -0.859908  1.864626
H    -3.753346  1.650025  2.411659
H    -3.620619  1.245622  4.113706
H    -4.396513  -0.632558  2.217141
H    -3.491592  -1.130640  3.637049
H    -2.490635  -0.743217  0.793826
H    -1.900007  -1.883124  2.021889
N    -0.952241  0.802757  5.373500
C    -1.661529  -0.446776  5.646550
H    -0.446223  1.209100  6.164902
H    -1.152552  -0.932597  6.485582
H    -1.623965  -1.115669  4.783653
H    -2.702550  -0.255695  5.940596
Hg    0.643401  3.213058  2.452129
