27
Energy: -568997.096646 eV PBE+vdW (tier 2 basis)
C    -0.293781  -0.296024  -0.193705
C    -0.429613  0.812987  0.792515
O    0.292140  1.879432  0.696262
H    -1.265588  -0.564649  -0.631594
H    0.104074  -1.205931  0.283277
H    0.384038  0.013919  -0.994177
N    -1.333300  0.739318  1.782546
C    -1.617300  1.827175  2.741139
C    -0.411522  2.221643  3.611369
O    0.651756  1.509056  3.649189
H    -1.879779  2.722973  2.154823
C    -2.828641  1.296173  3.557569
C    -2.726485  -0.227410  3.428484
C    -2.220450  -0.424735  2.004288
H    -3.753665  1.674525  3.103517
H    -2.811438  1.628236  4.600351
H    -3.688748  -0.723967  3.590431
H    -2.009530  -0.642445  4.149408
H    -3.039780  -0.389031  1.264433
H    -1.663846  -1.355992  1.841260
N    -0.491617  3.319572  4.354004
C    -1.612782  4.233967  4.550542
H    0.358302  3.520454  4.887818
H    -1.217453  5.248834  4.668670
H    -2.166957  3.969047  5.463847
H    -2.300028  4.205649  3.698592
Hg    2.125995  1.851222  1.955147
