27
Energy: -568996.690789 eV PBE+vdW (tier 2 basis)
C    -0.013428  0.458055  0.066063
C    -0.094433  -0.072295  1.461152
O    0.832522  -0.685457  2.007168
H    -0.857807  0.118934  -0.548592
H    0.929756  0.136137  -0.384060
H    -0.030287  1.559827  0.095546
N    -1.256818  0.107096  2.202205
C    -1.362704  -0.429127  3.552778
C    -1.147242  -1.977685  3.593376
O    -2.037557  -2.809264  3.323155
H    -0.520288  -0.015042  4.146460
C    -2.707545  0.080217  4.076359
C    -3.071867  1.238186  3.133033
C    -2.480349  0.795147  1.785645
H    -2.648566  0.368067  5.131140
H    -3.476713  -0.717383  4.004826
H    -2.603407  2.172551  3.469423
H    -4.150462  1.413776  3.060718
H    -2.246397  1.614346  1.097603
H    -3.148734  0.087778  1.260965
N    0.102460  -2.386624  3.875969
C    0.536106  -3.768934  3.871750
H    0.827051  -1.665871  3.895846
H    1.321618  -3.882382  4.630603
H    0.976513  -4.032639  2.895009
H    -0.315881  -4.429206  4.062049
Hg    -4.290540  -3.071204  4.273811
