29
Energy: -244836.031767 eV PBE+vdW (tier 2 basis)
C    0.082303  -1.236478  -0.292564
C    0.163634  -0.708965  1.102182
O    1.254105  -0.758763  1.752032
H    0.691584  -0.582010  -0.934326
H    -0.931835  -1.269079  -0.699834
H    0.530763  -2.235644  -0.345566
N    -0.904669  -0.147613  1.691859
C    -2.336587  -0.314926  1.378327
C    -3.098405  0.607662  2.339576
O    -3.000856  0.401411  3.578496
H    -0.709434  0.252768  2.609496
H    -2.511703  -0.014582  0.338203
C    -2.874484  -1.775133  1.613068
C    -1.934266  -2.768441  2.319292
C    -1.120739  -2.310492  3.511377
O    0.013234  -2.840937  3.697864
O    -1.528046  -1.409425  4.337630
H    -3.129381  -2.213534  0.640807
H    -3.821234  -1.701456  2.162315
H    -1.222998  -3.214799  1.613778
H    -2.545700  -3.614017  2.677949
N    -3.865524  1.559841  1.826738
C    -4.706113  2.459484  2.620159
H    -3.868277  1.682123  0.818024
H    -4.731541  2.102493  3.652495
H    -5.719343  2.467922  2.203590
H    -4.295699  3.476375  2.594052
H    -2.296208  -0.707001  3.996457
Ba    2.298773  -2.041637  3.587939
