29
Energy: -244835.857185 eV PBE+vdW (tier 2 basis)
C    -0.665087  1.204913  -0.483863
C    -0.852395  0.697174  0.910426
O    -0.060574  1.080521  1.844552
H    -1.417790  0.821897  -1.179837
H    0.331491  0.910298  -0.840760
H    -0.701186  2.302330  -0.485946
N    -1.844671  -0.145266  1.142108
C    -2.138006  -0.912821  2.348813
C    -2.613278  -2.288881  1.767845
O    -3.007473  -2.299868  0.600368
H    -2.368646  -0.561420  0.348187
H    -1.223926  -1.010802  2.949819
C    -3.304576  -0.309556  3.163816
C    -3.064281  1.083199  3.798510
C    -2.094964  1.056919  4.950918
O    -0.910638  1.419289  4.852615
O    -2.481980  0.598135  6.127617
H    -3.599044  -1.031004  3.939237
H    -4.170812  -0.217245  2.494136
H    -4.031645  1.469070  4.154545
H    -2.691867  1.789847  3.047832
N    -2.605855  -3.375545  2.560589
C    -2.187717  -3.508835  3.949007
H    -2.986000  -4.205268  2.107244
H    -1.702921  -4.481619  4.086735
H    -3.040319  -3.450019  4.641304
H    -1.455989  -2.737944  4.215310
H    -3.434868  0.383367  6.154063
Ba    1.173017  1.998998  3.640702
