29
Energy: -244836.337931 eV PBE+vdW (tier 2 basis)
C    0.528001  0.021771  -0.160982
C    0.325194  0.551989  1.230367
O    1.235623  1.208243  1.801970
H    0.744398  0.858853  -0.837821
H    -0.329550  -0.532660  -0.556233
H    1.403904  -0.640787  -0.163963
N    -0.857156  0.269250  1.808041
C    -1.426519  0.560139  3.144662
C    -2.163139  1.916150  3.115555
O    -1.562290  3.022646  3.006499
H    -1.483923  -0.265158  1.213318
H    -2.204028  -0.209112  3.236109
C    -0.485369  0.326237  4.368408
C    -0.008032  1.522322  5.228441
C    1.068908  2.333939  4.567491
O    2.282246  2.087379  4.728391
O    0.731125  3.288417  3.719763
H    0.378159  -0.264322  4.037815
H    -1.041340  -0.323286  5.055257
H    0.420353  1.109568  6.149656
H    -0.848516  2.168836  5.514923
N    -3.488433  1.872820  3.183938
C    -4.358368  3.051073  3.173397
H    -3.938883  0.963202  3.230562
H    -3.781595  3.926932  3.480688
H    -5.187379  2.885260  3.868769
H    -4.759602  3.217270  2.165458
H    -0.357819  3.168298  3.375959
Ba    3.045025  2.800731  2.432561
