29
Energy: -244835.898737 eV PBE+vdW (tier 2 basis)
C    0.146889  -0.571580  0.253766
C    0.160520  -0.207683  1.702626
O    1.190186  0.310393  2.233509
H    0.998167  -1.226467  0.028172
H    0.285232  0.346212  -0.335986
H    -0.779767  -1.060399  -0.064392
N    -0.946112  -0.427832  2.426997
C    -1.172395  0.014598  3.812970
C    -0.484503  -0.958593  4.797240
O    0.762688  -0.834965  5.007002
H    -1.738476  -0.850470  1.947892
H    -0.633539  0.967329  3.934422
C    -2.668162  0.257005  4.053834
C    -3.214672  1.448486  3.253981
C    -4.700298  1.711180  3.481696
O    -5.178363  2.806399  3.625919
O    -5.408475  0.548952  3.473633
H    -2.815117  0.448926  5.126700
H    -3.253828  -0.644632  3.807718
H    -3.085562  1.294155  2.170596
H    -2.689201  2.375681  3.513989
N    -1.214098  -1.888724  5.387586
C    -0.725068  -2.886021  6.339899
H    -2.210267  -1.900880  5.178451
H    -1.336042  -2.847807  7.249042
H    0.315855  -2.668693  6.587552
H    -0.800318  -3.888603  5.900796
H    -6.352179  0.784137  3.585386
Ba    2.753469  0.251917  4.082780
