29
Energy: -244835.644103 eV PBE+vdW (tier 2 basis)
C    0.050999  0.459031  1.032528
C    -0.309570  0.143217  2.447948
O    0.613057  0.130056  3.342702
H    -0.800894  0.457413  0.347323
H    0.820782  -0.235734  0.671082
H    0.508130  1.459003  1.019534
N    -1.547571  -0.128759  2.825100
C    -2.747355  -0.511085  2.090621
C    -3.886980  -0.104589  3.077283
O    -3.604728  -0.097342  4.281868
H    -1.783816  -0.147472  3.836222
H    -2.812331  0.013065  1.129710
C    -2.826853  -2.051794  1.916018
C    -1.717528  -2.735089  1.105875
C    -0.398088  -3.003943  1.792952
O    -0.162315  -2.813618  2.993749
O    0.598680  -3.487026  1.057115
H    -3.780573  -2.277184  1.419965
H    -2.890312  -2.508463  2.913847
H    -1.505280  -2.197933  0.166441
H    -2.084969  -3.726228  0.784207
N    -5.105851  0.155492  2.585135
C    -5.510339  0.254906  1.183763
H    -5.800740  0.373578  3.296492
H    -5.366166  -0.690888  0.644730
H    -4.981107  1.063552  0.662158
H    -6.578806  0.485750  1.155733
H    0.337941  -3.658655  0.130700
Ba    1.365048  -1.690143  4.698129
