29
Energy: -244836.28372 eV PBE+vdW (tier 2 basis)
C    0.389134  0.473481  0.848186
C    0.142378  -0.429911  2.009163
O    1.092214  -1.099360  2.524798
H    1.246778  1.113006  1.099176
H    -0.463938  1.109738  0.595185
H    0.683677  -0.114006  -0.032664
N    -1.075503  -0.552099  2.564453
C    -2.413514  -0.394039  1.967379
C    -3.397588  -0.928110  3.024520
O    -3.137749  -2.004866  3.633510
H    -1.074507  -1.095862  3.426246
H    -2.611161  0.668702  1.766347
C    -2.572786  -1.183516  0.637930
C    -2.512157  -2.732751  0.711683
C    -1.288766  -3.270543  1.408618
O    -0.222715  -3.530304  0.821386
O    -1.328723  -3.443232  2.726879
H    -1.815680  -0.822451  -0.069639
H    -3.544064  -0.915051  0.200674
H    -2.497036  -3.114406  -0.316419
H    -3.408117  -3.131078  1.205571
N    -4.514049  -0.244616  3.228800
C    -5.587445  -0.655276  4.137146
H    -4.623975  0.644624  2.748209
H    -6.547199  -0.597330  3.611918
H    -5.612352  0.009818  5.009087
H    -5.403357  -1.680541  4.466053
H    -2.166006  -2.892852  3.155599
Ba    1.593226  -3.508619  2.641937
