29
Energy: -244836.652224 eV PBE+vdW (tier 2 basis)
C    -0.163308  -1.189236  0.199402
C    -0.189316  -0.702373  1.618073
O    0.835867  -0.193445  2.134923
H    0.600318  -1.973014  0.105868
H    0.146773  -0.359645  -0.449835
H    -1.121627  -1.581640  -0.156565
N    -1.353278  -0.849875  2.286459
C    -1.815406  -0.419174  3.625841
C    -0.971566  0.680076  4.302681
O    0.134576  0.448790  4.856589
H    -2.101138  -1.257791  1.730538
H    -2.798554  0.033946  3.427844
C    -2.138925  -1.615934  4.558709
C    -1.001436  -2.408526  5.243231
C    0.007039  -3.032422  4.308958
O    1.122150  -2.540585  4.108537
O    -0.298286  -4.145431  3.654167
H    -2.777941  -2.300768  3.980542
H    -2.780996  -1.230528  5.363725
H    -1.475036  -3.200341  5.843521
H    -0.454503  -1.762832  5.937275
N    -1.536918  1.885314  4.342657
C    -0.952443  3.045772  5.013451
H    -2.429046  2.017794  3.875298
H    -0.401822  2.716900  5.899748
H    -1.759165  3.719690  5.316377
H    -0.274696  3.585081  4.338308
H    -1.156870  -4.518426  3.930945
Ba    2.382617  -0.341295  4.049629
