29
Energy: -244836.316226 eV PBE+vdW (tier 2 basis)
C    -0.683327  1.222372  -0.689389
C    -0.224567  0.188135  0.285020
O    0.948845  0.174992  0.739067
H    -1.498698  0.871220  -1.330725
H    0.169881  1.525110  -1.306592
H    -1.022323  2.119850  -0.148378
N    -1.091902  -0.777102  0.714636
C    -2.468667  -0.513421  1.103294
C    -2.504839  0.648688  2.147423
O    -1.466706  0.987710  2.774709
H    -0.624875  -1.468553  1.300508
H    -3.036350  -0.171680  0.224278
C    -3.162875  -1.810210  1.609559
C    -2.324951  -2.841169  2.418167
C    -1.608428  -2.298857  3.635168
O    -0.509248  -1.736168  3.550120
O    -2.163018  -2.390110  4.833436
H    -3.534754  -2.356251  0.733185
H    -4.049245  -1.522449  2.190382
H    -1.563062  -3.301702  1.773498
H    -3.006389  -3.654694  2.703368
N    -3.676290  1.254616  2.310429
C    -3.942627  2.355706  3.237542
H    -4.450949  0.955199  1.722481
H    -3.051536  2.536398  3.842120
H    -4.783756  2.094015  3.889930
H    -4.195069  3.263636  2.676241
H    -2.992729  -2.905393  4.826081
Ba    0.952455  0.369112  3.282440
