29
Energy: -244835.911475 eV PBE+vdW (tier 2 basis)
C    -0.446562  -1.414759  0.967635
C    -0.848657  -0.622032  2.167646
O    -0.184956  -0.698620  3.248147
H    0.515116  -1.017024  0.609486
H    -1.164533  -1.373323  0.144092
H    -0.270107  -2.460207  1.247511
N    -1.904528  0.207188  2.126650
C    -3.059977  0.198399  1.210728
C    -3.915239  1.410813  1.600636
O    -4.374562  1.461504  2.774147
H    -2.035407  0.755332  2.977090
H    -2.699587  0.284404  0.181020
C    -3.982406  -1.070728  1.352259
C    -3.680736  -2.033301  2.514588
C    -3.359826  -1.475881  3.885243
O    -2.573200  -2.133713  4.626537
O    -3.846985  -0.367011  4.327115
H    -3.912996  -1.655798  0.427401
H    -5.023593  -0.730358  1.411567
H    -2.863923  -2.720459  2.262322
H    -4.563178  -2.681404  2.651865
N    -4.194458  2.355863  0.712556
C    -3.733082  2.475924  -0.674496
H    -4.826078  3.077458  1.060992
H    -2.639127  2.440682  -0.735219
H    -4.057056  3.449913  -1.051210
H    -4.175154  1.700608  -1.312795
H    -4.203662  0.364019  3.595913
Ba    -0.351850  -1.702540  5.501083
