29
Energy: -244836.187933 eV PBE+vdW (tier 2 basis)
C    -1.185810  -1.084269  0.407423
C    -0.865602  -0.615527  1.788774
O    0.325625  -0.567084  2.197980
H    -0.523231  -0.585901  -0.310429
H    -2.229093  -0.920576  0.118303
H    -0.970963  -2.162497  0.356429
N    -1.890709  -0.280805  2.595645
C    -1.857112  0.135592  4.012505
C    -1.060099  1.451870  4.202096
O    0.188599  1.425221  4.383516
H    -2.816813  -0.351606  2.184354
H    -2.909757  0.349074  4.236760
C    -1.382310  -0.926914  5.043070
C    -1.535183  -2.400408  4.652783
C    -0.442932  -3.018845  3.816289
O    -0.579693  -3.750875  2.879880
O    0.866342  -2.721630  4.297622
H    -1.964821  -0.747997  5.956645
H    -0.347578  -0.724998  5.349089
H    -2.482296  -2.602545  4.139347
H    -1.555628  -2.996378  5.580145
N    -1.753168  2.582649  4.178875
C    -1.183767  3.921700  4.336627
H    -2.758306  2.522567  4.037726
H    -0.190315  3.839315  4.783720
H    -1.834228  4.510639  4.991799
H    -1.109478  4.420761  3.361938
H    1.414780  -3.425484  3.890921
Ba    2.044544  -0.164051  3.871170
