29
Energy: -244835.549293 eV PBE+vdW (tier 2 basis)
C    -1.160904  -0.794383  -0.154317
C    -0.490548  -0.357844  1.129095
O    0.618408  -0.705848  1.470530
H    -1.543393  0.053316  -0.740699
H    -1.998859  -1.478671  0.048334
H    -0.423187  -1.335577  -0.752684
N    -1.207830  0.531442  1.964346
C    -2.600972  0.894734  1.872839
C    -2.858368  2.189454  1.079039
O    -4.063226  2.490084  0.772208
H    -0.730193  0.686285  2.850990
H    -3.134080  0.125987  1.287843
C    -3.248450  0.992056  3.279042
C    -3.839811  -0.327622  3.777614
C    -5.153871  -0.691652  3.128290
O    -5.769922  0.077523  2.368593
O    -5.702979  -1.862525  3.371402
H    -4.027382  1.765788  3.289706
H    -2.486962  1.335528  3.992319
H    -4.026272  -0.277168  4.864405
H    -3.130341  -1.161607  3.645099
N    -1.816505  2.912720  0.739074
C    -1.820771  4.158877  -0.020312
H    -0.919650  2.516189  1.035502
H    -1.356310  4.953019  0.576346
H    -2.849532  4.435136  -0.262457
H    -1.245210  4.028695  -0.944761
H    -5.174400  -2.414654  3.982075
Ba    -6.399997  1.933857  0.843290
