29
Energy: -244836.012085 eV PBE+vdW (tier 2 basis)
C    -1.646763  -1.871011  0.500754
C    -0.964645  -0.724881  1.188521
O    0.264291  -0.569040  1.167199
H    -1.295185  -2.807002  0.956043
H    -1.331635  -1.893587  -0.549709
H    -2.740388  -1.838531  0.553996
N    -1.771220  0.166437  1.856732
C    -1.311776  1.235550  2.741428
C    -0.485020  2.372012  2.115678
O    -0.683303  3.555144  2.583534
H    -2.774018  0.052737  1.760363
H    -2.230586  1.741496  3.065248
C    -0.559039  0.707131  4.001129
C    -1.474839  0.353412  5.173104
C    -2.074172  1.545744  5.881498
O    -1.837883  2.722718  5.558304
O    -2.889921  1.355950  6.899849
H    0.179173  1.450074  4.333740
H    0.021708  -0.175571  3.708222
H    -0.915893  -0.225317  5.928229
H    -2.298011  -0.310794  4.857716
N    0.414460  2.093388  1.207586
C    1.284325  3.057343  0.544001
H    0.537004  1.061577  1.034594
H    2.299940  2.994203  0.956678
H    0.895532  4.070533  0.674150
H    1.328877  2.815819  -0.523514
H    -3.020169  0.410221  7.112392
Ba    -1.273454  4.890624  4.457007
