29
Energy: -244836.082101 eV PBE+vdW (tier 2 basis)
C    -1.000006  -0.800651  -0.151835
C    -0.752640  -0.575598  1.306103
O    0.432833  -0.455352  1.740556
H    -0.517266  -0.002779  -0.731015
H    -2.061539  -0.845460  -0.415779
H    -0.520237  -1.744777  -0.446301
N    -1.815883  -0.509140  2.120419
C    -1.864914  -0.438186  3.596634
C    -1.300236  0.887985  4.126056
O    -0.043275  1.063755  4.244946
H    -2.719139  -0.627572  1.669521
H    -2.930869  -0.463974  3.845768
C    -1.243218  -1.672793  4.279265
C    -1.426287  -1.734309  5.803349
C    -2.876806  -1.756363  6.260889
O    -3.796635  -1.215098  5.668697
O    -3.012305  -2.421356  7.413180
H    -0.169863  -1.745405  4.050678
H    -1.707986  -2.555706  3.818210
H    -0.950617  -0.873874  6.303269
H    -0.919195  -2.623917  6.196872
N    -2.138000  1.846379  4.489518
C    -3.607523  1.864025  4.435667
H    -1.683441  2.688260  4.843973
H    -3.949066  2.735424  5.000843
H    -4.024342  0.962041  4.897772
H    -3.959041  1.964741  3.401271
H    -3.951859  -2.382988  7.688983
Ba    2.081006  0.476072  3.231528
