29
Energy: -244836.581762 eV PBE+vdW (tier 2 basis)
C    -3.882482  -0.464351  -0.057106
C    -2.901034  -0.390830  1.065502
O    -1.677937  -0.639511  0.888234
H    -3.546069  0.194702  -0.868592
H    -4.900607  -0.187069  0.235117
H    -3.889234  -1.486180  -0.460489
N    -3.353672  -0.041443  2.295855
C    -2.425661  0.066924  3.412758
C    -2.143892  -1.291224  4.088589
O    -1.031273  -1.831277  3.814573
H    -4.345869  0.142384  2.416837
H    -1.478648  0.251408  2.910812
C    -2.585921  1.300504  4.322281
C    -1.677412  2.461546  3.847659
C    -0.192585  2.154445  3.874789
O    0.363853  1.232311  3.249714
O    0.483358  2.991592  4.638115
H    -2.333167  1.033970  5.357608
H    -3.622003  1.664372  4.343401
H    -1.855265  3.350138  4.462571
H    -1.928749  2.730113  2.808897
N    -3.010564  -1.881073  4.901194
C    -4.337301  -1.433152  5.316173
H    -2.700081  -2.783773  5.263531
H    -5.101847  -2.126123  4.943339
H    -4.547562  -0.431244  4.934417
H    -4.392120  -1.402294  6.410889
H    1.443370  2.791849  4.608884
Ba    0.559372  -1.093712  1.978449
