29
Energy: -244835.777128 eV PBE+vdW (tier 2 basis)
C    0.165472  -0.204449  0.220648
C    0.034992  -0.472375  1.687328
O    1.030812  -0.951206  2.339991
H    0.412480  -1.142555  -0.294995
H    0.994683  0.494067  0.045951
H    -0.746992  0.210696  -0.218366
N    -1.120256  -0.200242  2.267641
C    -1.590034  -0.493263  3.618221
C    -3.099022  -0.836180  3.369642
O    -3.597921  -0.483618  2.299316
H    -1.950652  0.023298  1.680633
H    -1.044983  -1.357631  4.020179
C    -1.497245  0.732979  4.579021
C    -0.479989  0.630705  5.744840
C    0.950186  0.663332  5.294984
O    1.663415  -0.348681  5.229741
O    1.491740  1.807831  4.891173
H    -2.476477  0.896713  5.046701
H    -1.312637  1.631271  3.973756
H    -0.633477  -0.293608  6.314012
H    -0.659910  1.471799  6.432064
N    -3.785021  -1.463127  4.342084
C    -3.316777  -1.910677  5.646885
H    -4.771161  -1.594420  4.124654
H    -3.967419  -2.719906  5.992920
H    -3.345087  -1.108175  6.398782
H    -2.299353  -2.317015  5.586236
H    0.898072  2.572566  5.024413
Ba    2.985833  -1.582277  3.510996
