29
Energy: -244836.186546 eV PBE+vdW (tier 2 basis)
C    0.483175  0.390472  -0.239636
C    0.014214  1.082380  0.999967
O    0.487295  2.225899  1.308615
H    0.037007  -0.599574  -0.374410
H    1.576755  0.295334  -0.204312
H    0.243376  1.013059  -1.112656
N    -0.904925  0.465216  1.742470
C    -1.397260  0.804798  3.091806
C    -1.993943  2.218689  3.187407
O    -1.278538  3.244696  3.392867
H    -1.030446  -0.541345  1.568981
H    -2.235098  0.109236  3.237701
C    -0.351247  0.515257  4.199558
C    -0.404512  -0.905718  4.783636
C    -0.301435  -2.069558  3.811744
O    -0.665885  -2.060446  2.642103
O    0.197334  -3.150674  4.413786
H    -0.515383  1.210915  5.034158
H    0.653786  0.726082  3.805478
H    -1.356152  -1.052627  5.322727
H    0.375588  -1.019076  5.546878
N    -3.314952  2.303617  3.097293
C    -4.087759  3.540227  3.209190
H    -3.833425  1.445888  2.926010
H    -5.059102  3.308784  3.656820
H    -4.250245  3.985926  2.218946
H    -3.552476  4.247526  3.848510
H    0.178842  -3.901630  3.784425
Ba    0.747039  4.269810  2.501560
