29
Energy: -244836.625895 eV PBE+vdW (tier 2 basis)
C    0.290317  0.211007  -0.382071
C    -0.019446  -0.100040  1.044725
O    0.893403  -0.237965  1.902669
H    -0.601551  0.324487  -1.006982
H    0.921117  -0.587707  -0.795089
H    0.881111  1.136031  -0.423236
N    -1.321599  -0.226050  1.408438
C    -1.658951  -0.488300  2.799868
C    -1.620995  -2.001895  3.114541
O    -0.570325  -2.468922  3.632697
H    -2.042054  -0.117711  0.699964
H    -0.793351  -0.096371  3.330805
C    -2.826902  0.308207  3.386580
C    -2.792288  0.288347  4.940636
C    -1.501057  0.798855  5.568690
O    -0.393861  0.284914  5.356490
O    -1.543454  1.828355  6.396482
H    -3.811236  -0.063681  3.067620
H    -2.752660  1.343439  3.024271
H    -2.919535  -0.743379  5.306000
H    -3.653209  0.855966  5.315713
N    -2.675199  -2.751891  2.812347
C    -2.755192  -4.202496  2.997974
H    -3.480407  -2.295947  2.391575
H    -2.795901  -4.703563  2.022985
H    -3.658166  -4.450895  3.567042
H    -1.871124  -4.538342  3.544524
H    -2.447424  2.173072  6.528344
Ba    1.503934  -1.115524  4.206394
