29
Energy: -244836.264696 eV PBE+vdW (tier 2 basis)
C    0.432845  0.337478  -0.435692
C    0.140089  -0.031708  0.987390
O    0.839428  -0.908941  1.567712
H    1.483567  0.641789  -0.524906
H    -0.205626  1.135055  -0.829255
H    0.306718  -0.558887  -1.059228
N    -0.884927  0.606043  1.582191
C    -1.547647  0.437660  2.894965
C    -0.649478  0.789776  4.089373
O    0.534289  0.347621  4.185055
H    -1.346859  1.286149  0.985442
H    -2.337211  1.197701  2.863186
C    -2.310536  -0.901927  3.080916
C    -1.516278  -2.169704  3.416934
C    -1.015933  -2.200175  4.838703
O    -1.583347  -1.799216  5.814705
O    0.261147  -2.800310  4.940541
H    -2.874745  -1.072198  2.154585
H    -3.058992  -0.744583  3.870224
H    -0.718931  -2.373484  2.694934
H    -2.204374  -3.029379  3.344259
N    -1.160255  1.537318  5.059808
C    -2.505228  2.109319  5.182784
H    -0.533274  1.671806  5.852480
H    -2.507116  2.777777  6.047976
H    -3.255940  1.327012  5.350624
H    -2.767847  2.705045  4.300603
H    0.379636  -2.994489  5.894971
Ba    2.206024  -1.346204  3.545740
