29
Energy: -244835.792052 eV PBE+vdW (tier 2 basis)
C    -0.499186  1.754515  0.258236
C    -1.183225  0.468927  0.607826
O    -1.782989  -0.189163  -0.290581
H    0.225706  1.572710  -0.545919
H    0.012514  2.228907  1.101834
H    -1.249926  2.451321  -0.140361
N    -1.126356  0.072797  1.890401
C    -1.752518  -1.049673  2.629393
C    -1.287713  -2.437186  2.165675
O    -1.410319  -2.819814  0.961647
H    -0.612313  0.708816  2.493554
H    -1.358046  -0.910508  3.642062
C    -3.289727  -0.967983  2.798543
C    -4.181322  -1.306918  1.606176
C    -5.665060  -1.215285  1.965259
O    -6.091540  -0.910435  3.049268
O    -6.414987  -1.530826  0.880886
H    -3.522508  0.046656  3.150070
H    -3.558144  -1.628985  3.635856
H    -4.018637  -2.345490  1.267780
H    -4.013850  -0.618181  0.764685
N    -0.802639  -3.273124  3.075990
C    -0.581815  -3.056772  4.512197
H    -0.564865  -4.195121  2.710341
H    -1.522868  -2.846179  5.034597
H    0.139239  -2.248854  4.686584
H    -0.162548  -3.977366  4.927172
H    -7.358064  -1.460596  1.135997
Ba    -2.309806  -2.333602  -1.259361
