29
Energy: -244836.138026 eV PBE+vdW (tier 2 basis)
C    0.781941  -0.179087  0.174543
C    0.385695  -0.055163  1.609036
O    1.190339  -0.326252  2.540576
H    1.634400  0.485430  -0.022061
H    -0.026622  0.062925  -0.523236
H    1.124293  -1.205322  -0.015169
N    -0.880958  0.360722  1.883284
C    -1.258913  0.582384  3.266164
C    -2.416909  -0.215325  3.839610
O    -2.256899  -0.669583  5.043970
H    -1.452507  0.675152  1.105440
H    -0.412040  0.116360  3.771559
C    -1.275166  2.063917  3.738024
C    -0.935339  2.204935  5.249822
C    0.263295  1.332897  5.554833
O    1.435941  1.772245  5.408730
O    0.068083  0.064923  5.799138
H    -2.237244  2.550594  3.531439
H    -0.510661  2.587055  3.148076
H    -1.784766  1.913019  5.880511
H    -0.695217  3.252477  5.462317
N    -3.567750  -0.448342  3.253449
C    -4.034564  0.029619  1.949640
H    -4.219235  -1.015388  3.800739
H    -3.675156  1.046768  1.758144
H    -5.127881  0.065543  1.973891
H    -3.726981  -0.652109  1.146697
H    -1.310867  -0.407736  5.444463
Ba    2.509925  -0.392537  4.745871
