29
Energy: -244835.892401 eV PBE+vdW (tier 2 basis)
C    0.208207  -0.316448  0.298458
C    0.176611  0.040699  1.752684
O    1.271707  0.204806  2.397741
H    0.712042  -1.287018  0.187618
H    0.798388  0.421201  -0.261917
H    -0.789165  -0.387849  -0.146577
N    -1.003657  0.183808  2.331852
C    -1.341249  0.351033  3.743882
C    -2.889293  0.151691  3.739618
O    -3.480877  0.317431  2.664543
H    -1.882546  0.102312  1.785199
H    -0.836891  -0.430645  4.328728
C    -0.980014  1.730152  4.350629
C    -1.392371  2.943692  3.507042
C    -0.376719  3.366870  2.476416
O    0.843599  3.168073  2.606498
O    -0.768207  4.020543  1.399608
H    0.098810  1.771682  4.553789
H    -1.465987  1.799923  5.331447
H    -1.513595  3.821419  4.165984
H    -2.372296  2.790012  3.030047
N    -3.515788  -0.148356  4.887485
C    -2.960937  -0.425973  6.208240
H    -4.527764  -0.213179  4.786945
H    -3.543155  -1.227139  6.676129
H    -3.003443  0.457085  6.861309
H    -1.924808  -0.772897  6.136980
H    -1.736918  4.151187  1.373204
Ba    2.939270  1.858038  2.803995
