29
Energy: -244836.330038 eV PBE+vdW (tier 2 basis)
C    0.987559  0.904582  0.044813
C    0.210637  1.301168  1.265588
O    0.452520  2.375325  1.874893
H    0.962640  1.728267  -0.680041
H    0.618965  -0.005726  -0.439484
H    2.037894  0.744747  0.326757
N    -0.760784  0.454054  1.668457
C    -1.647010  0.550692  2.841581
C    -2.241849  1.960870  3.017506
O    -1.883319  2.751107  3.955285
H    -0.868081  -0.391370  1.114894
H    -2.513673  -0.069813  2.571476
C    -1.092734  -0.073674  4.157523
C    0.410077  0.003910  4.444261
C    1.044561  1.363750  4.553004
O    2.267800  1.512141  4.295132
O    0.330755  2.412211  4.860648
H    -1.346602  -1.141284  4.127696
H    -1.674459  0.335065  4.995858
H    0.997649  -0.569417  3.715587
H    0.592974  -0.497767  5.409803
N    -3.224357  2.311217  2.210379
C    -3.963129  3.575769  2.259021
H    -3.523567  1.631854  1.514731
H    -3.554973  4.203623  3.053224
H    -5.020365  3.369230  2.464423
H    -3.878833  4.086176  1.292388
H    -0.926265  2.476912  4.455115
Ba    1.986966  3.806381  3.351480
