29
Energy: -244836.301467 eV PBE+vdW (tier 2 basis)
C    -0.468439  0.522513  0.206808
C    -0.301610  0.018363  1.602093
O    0.545090  -0.902645  1.865240
H    -0.776186  -0.305835  -0.445906
H    0.502141  0.877863  -0.165062
H    -1.203437  1.330209  0.135022
N    -1.051881  0.549346  2.565620
C    -0.872429  0.225480  3.982516
C    -1.277959  -1.236310  4.269482
O    -0.350196  -2.073546  4.518150
H    -1.649555  1.395628  2.376501
H    0.208953  0.241600  4.194947
C    -1.545096  1.253903  4.914928
C    -1.126418  2.720837  4.706157
C    -1.883001  3.433943  3.601059
O    -2.337874  2.885318  2.597169
O    -1.998294  4.736131  3.831738
H    -1.277320  0.964000  5.940100
H    -2.637196  1.185111  4.854946
H    -0.051192  2.813000  4.478676
H    -1.274239  3.282363  5.636792
N    -2.539325  -1.646753  4.240355
C    -3.772354  -0.924545  3.912374
H    -2.653594  -2.629064  4.491703
H    -3.572576  -0.089296  3.236921
H    -4.267731  -0.562702  4.822235
H    -4.447214  -1.621285  3.403997
H    -2.466782  5.158331  3.081165
Ba    1.582030  -2.669108  3.128354
