29
Energy: -244835.665484 eV PBE+vdW (tier 2 basis)
C    1.121045  -0.117964  1.086639
C    0.401878  -0.235320  2.400575
O    0.960928  -0.362957  3.483451
H    1.852665  -0.931101  1.008343
H    1.689363  0.821913  1.081064
H    0.456901  -0.138100  0.215245
N    -0.992828  -0.203206  2.347224
C    -1.718813  -0.171761  3.602973
C    -2.815637  -1.233254  3.586080
O    -4.056641  -0.922209  3.665915
H    -1.462287  0.008201  1.472472
H    -0.941104  -0.503617  4.321623
C    -2.149587  1.255292  4.017259
C    -1.965273  1.594486  5.504961
C    -3.044365  1.142047  6.451135
O    -4.221049  0.949785  6.097597
O    -2.771029  0.980242  7.730180
H    -3.172835  1.483081  3.684896
H    -1.499676  1.939820  3.459458
H    -1.938875  2.693678  5.619635
H    -0.982848  1.245243  5.858590
N    -2.477896  -2.511218  3.474209
C    -1.142670  -3.107590  3.379883
H    -3.265195  -3.152717  3.391466
H    -1.187353  -4.110633  3.815210
H    -0.404287  -2.515224  3.928898
H    -0.830585  -3.184942  2.330644
H    -1.833983  1.162990  7.941563
Ba    -5.995456  0.061284  4.658195
