29
Energy: -244836.172697 eV PBE+vdW (tier 2 basis)
C    1.067179  0.031110  1.380517
C    0.343958  -0.078628  2.682219
O    0.959077  -0.338739  3.753562
H    0.404603  0.022313  0.509188
H    1.758374  -0.818658  1.307091
H    1.679244  0.943763  1.364134
N    -0.995822  0.084909  2.755313
C    -1.929384  0.857278  1.926288
C    -1.281064  2.069143  1.260029
O    -0.486062  2.858744  1.889905
H    -1.375794  -0.170415  3.665998
H    -2.362787  0.214158  1.148614
C    -3.085954  1.321237  2.860397
C    -2.728940  2.348385  3.969904
C    -1.463805  2.024286  4.744340
O    -1.473409  1.272073  5.750685
O    -0.326851  2.503193  4.307488
H    -3.504812  0.408990  3.310482
H    -3.887828  1.748222  2.244542
H    -3.564156  2.369589  4.680517
H    -2.629489  3.354929  3.543188
N    -1.570947  2.365506  0.007994
C    -2.421197  1.632182  -0.939372
H    -1.158950  3.240481  -0.320780
H    -2.310190  2.104296  -1.919186
H    -3.477226  1.684578  -0.647865
H    -2.106040  0.585853  -1.027386
H    -0.400677  2.723488  2.997952
Ba    1.065584  0.872856  5.961950
