29
Energy: -244836.20003 eV PBE+vdW (tier 2 basis)
C    -0.909511  -1.342027  0.368475
C    -0.577556  -0.475757  1.541905
O    0.638512  -0.227075  1.825967
H    -0.403987  -2.310151  0.486254
H    -0.508858  -0.882528  -0.545337
H    -1.983965  -1.507291  0.241586
N    -1.589555  0.020089  2.256106
C    -1.574837  0.737361  3.546886
C    -0.868538  2.100588  3.490559
O    0.394637  2.210901  3.467174
H    -2.521485  -0.356752  2.061905
H    -2.638966  0.934501  3.720663
C    -1.083908  -0.121815  4.731026
C    -1.713539  -1.526815  4.820845
C    -3.219221  -1.574858  4.608511
O    -3.792149  -1.056926  3.658184
O    -3.839655  -2.275111  5.559841
H    -1.297297  0.442980  5.650278
H    0.008296  -0.241926  4.690006
H    -1.462382  -1.973254  5.789273
H    -1.281239  -2.185632  4.051585
N    -1.654926  3.167686  3.518748
C    -1.192381  4.555168  3.528983
H    -2.659928  3.012628  3.522488
H    -1.897777  5.156987  4.110245
H    -1.143373  4.951786  2.506419
H    -0.202497  4.606243  3.990255
H    -4.795950  -2.318747  5.347699
Ba    2.422066  1.122781  2.670290
