29
Energy: -244835.900931 eV PBE+vdW (tier 2 basis)
C    0.370766  0.523601  -0.273679
C    -0.116589  -0.460772  0.725403
O    0.299230  -1.673352  0.588811
H    -0.069480  1.517311  -0.146370
H    0.148022  0.148731  -1.282225
H    1.465509  0.595148  -0.200781
N    -0.945732  -0.068338  1.697550
C    -1.432280  -0.991358  2.720644
C    -2.936547  -1.129101  2.984961
O    -3.342417  -2.326332  3.063303
H    -1.140574  0.928340  1.749827
H    -1.280765  -1.957218  2.246017
C    -0.592766  -0.997156  4.027423
C    0.578267  -2.020589  3.955670
C    -0.025279  -3.338779  3.531829
O    -0.546833  -4.104566  4.389522
O    -0.198678  -3.569546  2.260969
H    -1.240194  -1.265390  4.873149
H    -0.198445  0.006250  4.233484
H    1.034660  -2.115778  4.947048
H    1.351294  -1.697537  3.246723
N    -3.752067  -0.101079  3.174562
C    -3.416943  1.322471  3.225188
H    -4.728066  -0.353319  3.331852
H    -3.514426  1.793046  2.237485
H    -2.409235  1.470645  3.630015
H    -4.112943  1.819155  3.908728
H    0.103293  -2.421297  1.310707
Ba    -2.528015  -4.795855  3.055041
