29
Energy: -244836.007084 eV PBE+vdW (tier 2 basis)
C    -1.275784  2.229269  2.048167
C    -0.342744  1.157559  1.616310
O    0.895659  1.561970  1.432945
H    -1.900667  1.909951  2.890683
H    -1.935825  2.509944  1.213120
H    -0.701621  3.114542  2.336978
N    -0.669083  -0.095155  1.413674
C    -2.020887  -0.660200  1.448113
C    -2.129295  -1.733578  2.551702
O    -1.171567  -2.505417  2.821555
H    0.060023  -0.791145  1.078864
H    -2.720047  0.147325  1.684809
C    -2.420013  -1.259685  0.054221
C    -1.263812  -1.750056  -0.851843
C    -0.330662  -2.704535  -0.136826
O    -0.608158  -3.935152  -0.062185
O    0.688166  -2.210349  0.498138
H    -2.970681  -0.489736  -0.500497
H    -3.122820  -2.086337  0.225216
H    -0.687532  -0.899030  -1.236859
H    -1.712091  -2.265343  -1.709809
N    -3.299096  -1.840792  3.180561
C    -4.518925  -1.046285  2.994194
H    -3.336822  -2.587030  3.873135
H    -5.286323  -1.448664  3.660996
H    -4.893985  -1.116682  1.966148
H    -4.358396  0.005131  3.265474
H    1.494179  0.869704  1.084923
Ba    0.578232  -4.233828  2.118319
