29
Energy: -244835.944273 eV PBE+vdW (tier 2 basis)
C    -0.405363  -0.211688  -0.339772
C    -0.250862  -0.216760  1.146222
O    0.886766  -0.005833  1.681431
H    0.261656  -0.969242  -0.773798
H    -0.087851  0.762116  -0.736291
H    -1.431082  -0.410249  -0.667707
N    -1.322504  -0.454177  1.907013
C    -1.321760  -0.469285  3.373652
C    -2.338277  -1.492631  3.959322
O    -2.832056  -1.271082  5.061170
H    -2.220477  -0.546168  1.435146
H    -0.320928  -0.817610  3.671547
C    -1.569510  0.953389  3.929479
C    -1.237041  1.137433  5.413086
C    0.218060  1.118141  5.763623
O    1.135096  1.069089  4.916155
O    0.585639  1.154721  7.028188
H    -2.629697  1.203333  3.792401
H    -0.995319  1.669526  3.324344
H    -1.761964  0.362439  5.999301
H    -1.640014  2.101887  5.767681
N    -2.603728  -2.587522  3.212575
C    -3.500819  -3.645518  3.680699
H    -2.061714  -2.764144  2.374033
H    -3.966994  -4.129487  2.816933
H    -4.274342  -3.197906  4.311421
H    -2.957125  -4.395683  4.270068
H    -0.178873  1.178901  7.638414
Ba    2.698034  0.775536  3.057826
