29
Energy: -244836.280167 eV PBE+vdW (tier 2 basis)
C    0.663281  0.462682  0.526215
C    -0.563364  1.058903  1.134159
O    -0.976524  2.200168  0.786333
H    1.056227  -0.393032  1.083899
H    1.433158  1.244158  0.487746
H    0.461710  0.161527  -0.511532
N    -1.266754  0.403076  2.084370
C    -1.439939  -1.030306  2.353582
C    -1.264278  -1.904806  1.108894
O    -1.816562  -1.630306  -0.015019
H    -1.980325  0.986981  2.518974
H    -0.715795  -1.361678  3.114311
C    -2.867623  -1.206475  2.947238
C    -4.068420  -0.933508  2.000048
C    -3.943491  0.335696  1.178110
O    -4.328274  1.450477  1.610920
O    -3.363743  0.264301  0.006292
H    -2.923039  -0.545634  3.825142
H    -2.963471  -2.229040  3.333564
H    -4.967218  -0.846568  2.622437
H    -4.216845  -1.779880  1.316942
N    -0.556545  -3.009405  1.234408
C    -0.376553  -4.026325  0.193363
H    -0.096116  -3.172266  2.127328
H    -0.510808  -5.016847  0.641166
H    0.635449  -3.955025  -0.224798
H    -1.112736  -3.870803  -0.598357
H    -2.543511  -0.770801  -0.031212
Ba    -3.192931  2.974128  -0.125531
