29
Energy: -244836.247871 eV PBE+vdW (tier 2 basis)
C    -0.728166  -0.432819  0.170976
C    -0.353750  -0.269176  1.607137
O    0.817503  -0.476498  2.017045
H    -0.105417  -1.221524  -0.265762
H    -0.504187  0.494225  -0.379916
H    -1.786596  -0.676953  0.031287
N    -1.294049  0.123707  2.518089
C    -2.255548  1.189919  2.279604
C    -1.504405  2.472065  1.814292
O    -0.259896  2.583496  1.999208
H    -0.922083  0.112777  3.467521
H    -2.928798  0.889154  1.464383
C    -3.141556  1.433286  3.535895
C    -2.504089  1.250627  4.942650
C    -1.256357  2.063986  5.211915
O    -0.136035  1.684030  4.848383
O    -1.341180  3.232672  5.827499
H    -3.980636  0.727011  3.498539
H    -3.582277  2.435661  3.463306
H    -2.245198  0.195628  5.109806
H    -3.283414  1.487946  5.680086
N    -2.182395  3.436968  1.198080
C    -3.601521  3.508782  0.843701
H    -1.612981  4.243256  0.939692
H    -3.691406  3.971649  -0.144786
H    -4.156166  4.120591  1.567159
H    -4.050871  2.512908  0.795265
H    -2.244827  3.427786  6.142533
Ba    1.791770  1.603339  3.130587
