29
Energy: -244836.109988 eV PBE+vdW (tier 2 basis)
C    0.567144  1.016904  0.389388
C    0.387643  0.447918  1.762354
O    1.391610  0.024469  2.410375
H    0.986009  0.234795  -0.259733
H    1.303475  1.830191  0.422548
H    -0.359963  1.389880  -0.057945
N    -0.857743  0.402946  2.260135
C    -1.372472  -0.233657  3.489429
C    -0.955029  0.492893  4.770603
O    0.273250  0.595987  5.097934
H    -1.575865  0.785285  1.651534
H    -2.460537  -0.154668  3.401714
C    -1.066122  -1.745149  3.603338
C    -1.814995  -2.604475  2.581593
C    -3.323351  -2.586691  2.778035
O    -3.913472  -1.811448  3.512947
O    -3.919972  -3.522529  2.032466
H    -1.352941  -2.059449  4.617372
H    0.013138  -1.925470  3.502805
H    -1.473242  -3.646645  2.644082
H    -1.602085  -2.295449  1.545971
N    -1.891974  0.964058  5.577671
C    -3.354861  0.948416  5.425962
H    -1.528529  1.402212  6.424652
H    -3.792284  1.058237  6.422560
H    -3.699273  0.001020  4.998250
H    -3.687878  1.790567  4.805890
H    -4.887078  -3.472889  2.179990
Ba    2.567544  0.105429  4.519491
