29
Energy: -244836.519694 eV PBE+vdW (tier 2 basis)
C    -0.668817  0.329201  -0.591260
C    -0.600004  -0.253415  0.781571
O    0.247970  -1.134942  1.082556
H    -0.862608  -0.475521  -1.313352
H    0.310719  0.755736  -0.845847
H    -1.437554  1.101430  -0.699039
N    -1.478913  0.194595  1.715810
C    -1.401136  -0.321790  3.074459
C    -2.150941  -1.665510  3.231615
O    -1.442552  -2.711381  3.290613
H    -2.147063  0.913214  1.453376
H    -0.358528  -0.627517  3.145158
C    -1.537863  0.693567  4.216066
C    -0.935416  0.141280  5.538503
C    0.535867  -0.243459  5.469682
O    0.972984  -1.116912  4.707353
O    1.405309  0.360780  6.260686
H    -2.576069  0.982628  4.419847
H    -1.004924  1.608503  3.919498
H    -1.474968  -0.768111  5.848099
H    -1.101898  0.882489  6.330363
N    -3.476763  -1.743692  3.284247
C    -4.483320  -0.687206  3.199545
H    -3.829417  -2.696716  3.382707
H    -5.286280  -1.014748  2.529758
H    -4.058459  0.232872  2.791713
H    -4.914206  -0.478874  4.187419
H    0.990477  1.025077  6.843731
Ba    1.037004  -2.868297  2.774953
