29
Energy: -244836.762779 eV PBE+vdW (tier 2 basis)
C    -1.231592  0.016624  0.187990
C    -0.914198  0.002383  1.653493
O    0.271314  0.076392  2.053615
H    -0.900258  0.975655  -0.233974
H    -2.294089  -0.120276  -0.038749
H    -0.649804  -0.767751  -0.312889
N    -1.958845  -0.087863  2.507806
C    -1.985493  -0.064696  3.984875
C    -1.211862  1.152576  4.555445
O    0.020780  1.091579  4.798805
H    -2.873228  -0.118570  2.067316
H    -3.047301  0.101325  4.205218
C    -1.570769  -1.370111  4.735670
C    -1.421749  -2.665939  3.933121
C    -0.003323  -2.975227  3.497687
O    0.969193  -2.278950  3.799959
O    0.217370  -4.058611  2.769695
H    -2.329246  -1.530436  5.510930
H    -0.634144  -1.187640  5.274053
H    -2.074366  -2.698619  3.047069
H    -1.744660  -3.515092  4.557917
N    -1.926538  2.247623  4.794696
C    -1.378707  3.489840  5.340944
H    -2.920769  2.228048  4.586643
H    -1.028406  4.147352  4.534581
H    -0.544373  3.255982  6.008450
H    -2.163916  4.002593  5.904290
H    -0.592501  -4.582114  2.612836
Ba    2.053486  0.009920  3.775505
