29
Energy: -244836.350447 eV PBE+vdW (tier 2 basis)
C    -1.602663  -2.024161  0.749500
C    -0.774860  -1.010621  1.467067
O    0.497908  -1.052491  1.419293
H    -2.676612  -1.899313  0.920574
H    -1.298746  -3.033170  1.056598
H    -1.402294  -1.943226  -0.328401
N    -1.390911  -0.041824  2.152888
C    -0.653361  1.017052  2.852469
C    0.029091  0.425325  4.105575
O    1.297863  0.294491  4.098673
H    -2.396623  -0.103938  2.313755
H    0.181852  1.275898  2.187654
C    -1.452127  2.336897  3.005665
C    -2.491048  2.558496  4.120753
C    -3.609065  1.547563  4.184627
O    -3.414055  0.328416  4.156780
O    -4.811538  2.092736  4.296982
H    -1.920160  2.522799  2.027336
H    -0.701171  3.129676  3.125141
H    -2.912430  3.563460  4.000641
H    -2.006861  2.552779  5.111073
N    -0.734900  0.021878  5.101242
C    -0.249999  -0.592288  6.334889
H    -1.756651  0.068717  4.935373
H    0.782667  -0.285208  6.520229
H    -0.304009  -1.687496  6.269081
H    -0.882226  -0.263122  7.165870
H    -5.485720  1.385836  4.387340
Ba    2.703649  -0.776163  2.404337
