29
Energy: -244836.337357 eV PBE+vdW (tier 2 basis)
C    -0.987557  -0.452088  -0.518019
C    -0.822814  -0.479492  0.971520
O    0.144943  -1.105905  1.488000
H    -0.067445  -0.070580  -0.979101
H    -1.835905  0.149086  -0.860913
H    -1.117359  -1.484523  -0.872057
N    -1.743655  0.178854  1.698426
C    -1.980283  0.284357  3.157757
C    -0.847918  0.996761  3.919922
O    0.355048  0.615206  3.848425
H    -2.459305  0.636518  1.141008
H    -2.851966  0.950188  3.207592
C    -2.460082  -1.024538  3.839746
C    -1.438806  -2.121242  4.162625
C    -0.577038  -1.803383  5.358312
O    -0.907482  -1.242669  6.363063
O    0.747905  -2.278778  5.197431
H    -3.238124  -1.447431  3.190452
H    -2.962271  -0.735800  4.774011
H    -0.844797  -2.418347  3.291879
H    -1.997312  -3.026794  4.455910
N    -1.222194  1.997445  4.706887
C    -0.341757  2.734895  5.611207
H    -2.201660  2.269694  4.699822
H    -0.843089  2.854907  6.577623
H    -0.115221  3.725576  5.197079
H    0.585576  2.174352  5.747357
H    1.141166  -2.254807  6.095916
Ba    2.016876  -1.029137  3.052605
