29
Energy: -244836.335962 eV PBE+vdW (tier 2 basis)
C    -1.542475  -1.802597  0.326461
C    -0.697171  -0.936873  1.204150
O    0.567983  -0.984276  1.137609
H    -1.334417  -1.546182  -0.722034
H    -2.616263  -1.694205  0.511497
H    -1.257415  -2.853941  0.460761
N    -1.310958  -0.098576  2.053447
C    -0.634958  0.897472  2.892608
C    0.002250  0.216693  4.130853
O    1.200650  -0.217278  4.011284
H    -2.325952  -0.131918  2.082817
H    0.240000  1.225552  2.314351
C    -1.500943  2.170692  3.141258
C    -3.029555  2.125718  3.015472
C    -3.800591  1.410466  4.103290
O    -3.303117  0.749207  5.009225
O    -5.112928  1.579647  3.962906
H    -1.165332  2.913245  2.406770
H    -1.225722  2.582743  4.120995
H    -3.369676  1.741376  2.039403
H    -3.392964  3.164756  3.008106
N    -0.689059  0.102585  5.237153
C    -0.192860  -0.516389  6.463635
H    -1.685249  0.424802  5.212834
H    -0.733850  -0.085745  7.311345
H    0.878763  -0.326098  6.575710
H    -0.369239  -1.600485  6.448082
H    -5.578930  1.122263  4.693645
Ba    2.691980  -1.095653  2.331367
