29
Energy: -244836.546592 eV PBE+vdW (tier 2 basis)
C    -0.220574  0.418873  -0.210637
C    -0.060745  0.040609  1.224952
O    1.074214  -0.182533  1.724563
H    0.397226  1.302851  -0.417396
H    -1.257444  0.627602  -0.493892
H    0.167461  -0.393709  -0.840036
N    -1.175446  -0.054029  1.993991
C    -1.062627  -0.406357  3.402335
C    -0.993818  -1.930865  3.628984
O    0.150241  -2.425825  3.832199
H    -2.081335  0.108485  1.562395
H    -0.047524  -0.100554  3.639738
C    -1.922364  0.412417  4.384092
C    -1.128415  1.621303  4.949625
C    0.144281  1.244003  5.699062
O    1.065765  0.586782  5.192425
O    0.300292  1.636788  6.950900
H    -2.245107  -0.229545  5.215076
H    -2.839461  0.792066  3.912794
H    -1.789396  2.214453  5.594397
H    -0.821083  2.283640  4.124518
N    -2.106174  -2.654315  3.593551
C    -2.172447  -4.107210  3.765674
H    -2.985237  -2.167638  3.437814
H    -2.825429  -4.349858  4.612134
H    -1.166395  -4.486224  3.958249
H    -2.573905  -4.571405  2.856949
H    -0.455146  2.161026  7.279902
Ba    2.357217  -1.139538  3.690462
