29
Energy: -244836.483413 eV PBE+vdW (tier 2 basis)
C    -3.764072  -0.660372  -0.016048
C    -2.772537  -0.511717  1.090640
O    -1.547080  -0.741271  0.912238
H    -3.449882  -0.035041  -0.862313
H    -4.784805  -0.389906  0.273574
H    -3.753632  -1.700594  -0.369104
N    -3.222998  -0.113637  2.308718
C    -2.283607  0.060859  3.406888
C    -1.957419  -1.263117  4.130159
O    -0.834447  -1.783348  3.865362
H    -4.219692  0.039892  2.434199
H    -1.349726  0.245507  2.882531
C    -2.455577  1.322607  4.276349
C    -1.554157  2.483951  3.773604
C    -0.065783  2.163609  3.769054
O    0.426878  1.241375  3.102841
O    0.760787  2.891863  4.498794
H    -2.203759  1.089025  5.319818
H    -3.494333  1.679379  4.283209
H    -1.752693  3.377490  4.379162
H    -1.824196  2.740799  2.737226
N    -2.801854  -1.845909  4.972271
C    -4.138017  -1.420077  5.378985
H    -2.464999  -2.726941  5.363087
H    -4.192087  -1.364278  6.472752
H    -4.887531  -2.138963  5.024807
H    -4.372595  -0.432574  4.974057
H    0.307224  3.610614  4.979808
Ba    0.734588  -1.099224  1.978332
