29
Energy: -244837.014951 eV PBE+vdW (tier 2 basis)
C    -0.447724  -0.037766  -0.177201
C    -0.245751  -0.285205  1.285513
O    0.842041  -0.752498  1.714813
H    0.350308  0.619897  -0.545409
H    -1.419315  0.404003  -0.421357
H    -0.346484  -0.993124  -0.710781
N    -1.274415  0.004860  2.110761
C    -1.372062  -0.237758  3.563648
C    -0.456307  0.730585  4.343934
O    0.790951  0.573714  4.388883
H    -2.106824  0.379519  1.665623
H    -2.407322  0.029449  3.816779
C    -1.197178  -1.738689  3.899498
C    -1.104049  -2.098021  5.386696
C    0.283279  -2.397797  5.902886
O    1.328098  -2.329800  5.239742
O    0.268862  -2.775657  7.168288
H    -0.333202  -2.148005  3.365714
H    -2.069091  -2.244673  3.466312
H    -1.700516  -2.998129  5.599251
H    -1.540519  -1.333151  6.048946
N    -1.063543  1.737550  4.968881
C    -0.375615  2.777264  5.734379
H    -2.072105  1.820267  4.878082
H    -1.003369  3.069458  6.582026
H    -0.188941  3.657636  5.105585
H    0.577423  2.386214  6.099946
H    1.171955  -3.005618  7.471170
Ba    2.573082  -0.927062  3.477028
