29
Energy: -244835.957447 eV PBE+vdW (tier 2 basis)
C    -0.016723  0.789369  0.030005
C    -0.429438  0.502109  1.438682
O    0.037912  1.209838  2.401259
H    1.072005  0.667926  -0.055326
H    -0.248838  1.833541  -0.217861
H    -0.504054  0.133157  -0.697725
N    -1.277303  -0.489558  1.653623
C    -1.704773  -1.083139  2.916874
C    -1.766375  -2.612533  2.571113
O    -1.911349  -2.920169  1.387803
H    -1.525205  -1.136120  0.881170
H    -0.958554  -0.870321  3.695771
C    -3.123211  -0.630588  3.332775
C    -3.313417  0.873040  3.656231
C    -2.669840  1.293439  4.951037
O    -1.583112  1.893292  5.008015
O    -3.245406  0.992943  6.101206
H    -3.444797  -1.246331  4.185389
H    -3.809385  -0.874795  2.509915
H    -4.393505  1.076968  3.711831
H    -2.909208  1.495194  2.849221
N    -1.704998  -3.470899  3.601377
C    -1.811158  -4.922300  3.439589
H    -1.529430  -3.110208  4.533061
H    -2.590557  -5.317028  4.101328
H    -0.855263  -5.405789  3.675043
H    -2.074590  -5.133299  2.399882
H    -4.119644  0.571442  5.987163
Ba    0.603110  2.689634  4.158355
