29
Energy: -244836.677489 eV PBE+vdW (tier 2 basis)
C    0.146171  1.081821  -0.765990
C    -0.438640  0.841694  0.593419
O    0.179620  0.167176  1.449992
H    0.388888  0.116261  -1.228304
H    1.094619  1.624308  -0.649514
H    -0.506580  1.649638  -1.437303
N    -1.649643  1.388710  0.849756
C    -2.427889  1.386873  2.104084
C    -1.520548  1.692664  3.322562
O    -1.057480  0.766190  4.039907
H    -2.050590  1.935200  0.093559
H    -3.094770  2.248709  1.984367
C    -3.338380  0.149935  2.380836
C    -3.570132  -0.852218  1.248104
C    -2.549448  -1.968142  1.176790
O    -1.673112  -2.140561  2.028021
O    -2.605220  -2.824497  0.168418
H    -4.313347  0.545841  2.689206
H    -2.950829  -0.390720  3.251204
H    -3.650684  -0.375618  0.259324
H    -4.545139  -1.343340  1.408334
N    -1.256271  2.966993  3.601279
C    -1.724292  4.172315  2.910368
H    -0.674865  3.103571  4.427240
H    -1.424874  4.169872  1.855555
H    -1.258288  5.037304  3.390152
H    -2.812810  4.286222  2.994601
H    -3.353082  -2.650100  -0.435538
Ba    0.243615  -1.306102  3.455573
