29
Energy: -244836.157761 eV PBE+vdW (tier 2 basis)
C    -1.425389  -0.469227  0.076362
C    -1.023026  -0.323412  1.509549
O    0.167840  -0.526726  1.870413
H    -1.159018  -1.477466  -0.268457
H    -0.842690  0.237780  -0.530109
H    -2.491736  -0.297825  -0.102740
N    -1.977563  0.013297  2.398448
C    -1.853396  0.238855  3.853093
C    -0.987445  1.497403  4.126560
O    0.271362  1.412474  4.131228
H    -2.909928  0.143244  2.016430
H    -2.881892  0.451290  4.169225
C    -1.323400  -0.945117  4.710819
C    -1.369140  -2.358118  4.106143
C    -0.266374  -3.253894  4.613890
O    -0.360856  -4.341847  5.088198
O    1.038520  -2.672461  4.440434
H    -1.890261  -0.938371  5.650916
H    -0.298772  -0.707737  5.019449
H    -1.261645  -2.333069  3.012682
H    -2.313359  -2.868236  4.323045
N    -1.631674  2.635682  4.349079
C    -0.995510  3.927501  4.611010
H    -2.648271  2.616278  4.341332
H    -1.475185  4.395213  5.477788
H    -1.106455  4.586295  3.740471
H    0.065089  3.768920  4.818515
H    1.632025  -3.374106  4.782604
Ba    2.014152  -0.269619  3.445619
