29
Energy: -244836.736969 eV PBE+vdW (tier 2 basis)
C    0.563528  0.162325  -0.142649
C    0.110446  -0.109554  1.253225
O    0.883472  0.041267  2.238574
H    0.926586  1.197203  -0.202921
H    -0.220027  0.010621  -0.892187
H    1.417223  -0.488149  -0.376323
N    -1.167524  -0.520244  1.449057
C    -1.654484  -0.745621  2.802286
C    -1.317575  -2.170601  3.299173
O    -0.304132  -2.312637  4.038518
H    -1.777575  -0.630607  0.643708
H    -1.006522  -0.104160  3.399231
C    -3.058796  -0.234409  3.128225
C    -3.257136  -0.134081  4.663398
C    -2.281418  0.777084  5.384151
O    -1.046729  0.623843  5.421353
O    -2.884414  1.772978  6.005132
H    -3.858158  -0.871735  2.723828
H    -3.186025  0.755698  2.667993
H    -3.151685  -1.129706  5.123849
H    -4.273779  0.211868  4.877032
N    -2.087228  -3.184645  2.923364
C    -1.861559  -4.588535  3.274402
H    -2.886835  -2.981318  2.329236
H    -1.027973  -4.648144  3.977646
H    -1.623661  -5.165647  2.372468
H    -2.765378  -5.001597  3.736630
H    -2.234033  2.325626  6.488917
Ba    1.279390  -0.453123  4.689682
