29
Energy: -244836.450653 eV PBE+vdW (tier 2 basis)
C    -1.516537  -2.080963  1.359134
C    -0.767812  -0.940842  1.969642
O    0.415975  -0.664051  1.578606
H    -1.562598  -1.933555  0.271510
H    -2.530968  -2.183953  1.756472
H    -0.964859  -3.015085  1.531343
N    -1.371865  -0.231624  2.921173
C    -0.863743  1.015413  3.507815
C    0.296271  0.722110  4.488166
O    1.484292  0.666631  4.044765
H    -2.390590  -0.408617  3.108637
H    -0.403843  1.612127  2.702767
C    -2.017680  1.825434  4.128626
C    -3.171551  2.197088  3.178945
C    -4.233840  1.121968  3.039531
O    -4.034680  -0.080797  3.200568
O    -5.417776  1.629278  2.715347
H    -1.585074  2.752954  4.526070
H    -2.448833  1.285897  4.986865
H    -2.807316  2.434523  2.165756
H    -3.661162  3.113440  3.531194
N    0.024670  0.525435  5.767491
C    1.018108  0.224912  6.799580
H    -0.948036  0.577541  6.057760
H    1.169628  -0.859114  6.884942
H    0.656262  0.610207  7.757395
H    1.965863  0.708216  6.546809
H    -6.065406  0.900480  2.614120
Ba    2.672102  -0.003051  2.008970
