29
Energy: -244836.290515 eV PBE+vdW (tier 2 basis)
C    -0.040229  1.153215  0.796641
C    -0.949579  1.556363  1.910711
O    -0.812899  2.650771  2.517217
H    -0.378303  1.610438  -0.146236
H    0.018160  0.068127  0.661609
H    0.958974  1.553582  1.003240
N    -1.971927  0.735218  2.289284
C    -2.818502  -0.006605  1.363377
C    -3.368789  0.958768  0.279288
O    -3.389295  2.202497  0.497217
H    -2.441837  1.057369  3.133067
H    -2.216651  -0.786040  0.874608
C    -3.957771  -0.724712  2.130650
C    -5.205616  0.091041  2.562782
C    -5.009493  1.126908  3.654317
O    -4.321577  2.145942  3.495915
O    -5.592406  0.965941  4.826939
H    -3.505924  -1.228458  2.997136
H    -4.336282  -1.529356  1.488125
H    -5.973658  -0.631159  2.870160
H    -5.623102  0.631949  1.699129
N    -3.823468  0.462467  -0.867987
C    -3.877753  -0.928351  -1.324782
H    -4.192435  1.165301  -1.508940
H    -4.851084  -1.381796  -1.096542
H    -3.080968  -1.525812  -0.871200
H    -3.733800  -0.942357  -2.409836
H    -6.123917  0.148184  4.881400
Ba    -2.970872  3.980568  2.285713
