29
Energy: -244835.938502 eV PBE+vdW (tier 2 basis)
C    0.424457  -0.765899  0.141696
C    0.273327  -0.992090  1.612026
O    1.174610  -1.596068  2.269265
H    0.639626  -1.716701  -0.361729
H    1.296397  -0.115240  -0.019300
H    -0.452117  -0.301175  -0.321608
N    -0.830918  -0.525946  2.212996
C    -1.086199  -0.450560  3.661156
C    -1.601516  -1.804917  4.205394
O    -0.807514  -2.802305  4.179579
H    -1.510101  -0.061866  1.614762
H    -0.104031  -0.326168  4.145075
C    -1.922449  0.799420  3.976975
C    -3.234338  0.981281  3.162435
C    -4.429689  1.332014  4.032458
O    -5.099065  2.322069  3.967660
O    -4.661168  0.314825  4.944249
H    -1.278536  1.671860  3.808895
H    -2.128892  0.797956  5.055474
H    -3.512100  0.064152  2.615826
H    -3.136812  1.785288  2.426032
N    -2.811195  -1.908884  4.715190
C    -3.344442  -3.152725  5.275238
H    -3.424603  -1.084711  4.779140
H    -3.266661  -3.965531  4.544607
H    -4.396031  -2.990056  5.524915
H    -2.797753  -3.432836  6.184477
H    -5.433695  0.573378  5.487096
Ba    1.473736  -3.510856  3.721652
