29
Energy: -244835.417673 eV PBE+vdW (tier 2 basis)
C    -0.568967  -0.114476  -0.126086
C    -0.528553  0.301310  1.317363
O    -0.051864  1.353811  1.720115
H    0.426414  0.024751  -0.564196
H    -1.249843  0.558738  -0.664517
H    -0.896249  -1.148894  -0.280087
N    -1.070904  -0.604264  2.235403
C    -1.211659  -0.181411  3.616473
C    -0.595335  -1.230860  4.538943
O    -1.288637  -1.868045  5.413715
H    -1.568377  -1.423447  1.900125
H    -0.569172  0.722928  3.657961
C    -2.657375  0.268338  3.905766
C    -2.880267  1.194500  5.141480
C    -2.975127  0.409798  6.401541
O    -2.097249  0.288621  7.254742
O    -4.076408  -0.375879  6.597370
H    -3.337051  -0.596757  3.929881
H    -2.948761  0.862016  3.030592
H    -3.814018  1.756897  4.989849
H    -2.067564  1.923575  5.242357
N    0.699784  -1.498525  4.421972
C    1.694349  -0.895523  3.529050
H    1.028748  -2.273645  4.994503
H    2.665513  -0.928594  4.032647
H    1.445960  0.146265  3.305162
H    1.756903  -1.459471  2.589743
H    -4.772871  -0.232633  5.927134
Ba    -2.070973  -2.252612  7.669144
