29
Energy: -244835.839809 eV PBE+vdW (tier 2 basis)
C    0.278385  0.089030  0.708346
C    -0.107824  0.159556  2.148459
O    0.800737  0.125059  3.054002
H    0.760218  -0.876125  0.499212
H    1.032484  0.863803  0.514650
H    -0.561422  0.231350  0.022245
N    -1.370014  0.248788  2.540485
C    -2.637051  0.048461  1.848903
C    -3.673771  0.552261  2.899716
O    -3.306098  0.604583  4.084273
H    -1.589989  0.394891  3.547047
H    -2.683990  0.640091  0.925777
C    -2.881664  -1.447342  1.519584
C    -2.729144  -2.412394  2.730724
C    -1.300185  -2.735971  3.083755
O    -0.721188  -2.326581  4.100631
O    -0.582386  -3.489702  2.253016
H    -2.215146  -1.745723  0.696613
H    -3.902208  -1.556959  1.131122
H    -3.236543  -3.357401  2.482050
H    -3.215567  -2.004356  3.624777
N    -4.914438  0.858348  2.499022
C    -5.482158  0.870353  1.153467
H    -5.531225  1.129832  3.263435
H    -4.702521  0.995586  0.395320
H    -6.166244  1.721072  1.065260
H    -6.044849  -0.049983  0.944663
H    -1.116201  -3.848363  1.517512
Ba    1.295966  -1.133889  5.031237
