29
Energy: -244836.877849 eV PBE+vdW (tier 2 basis)
C    -1.141809  -0.210830  0.194180
C    -0.875192  -0.224335  1.668393
O    0.289347  -0.379051  2.112469
H    -0.731919  -1.126275  -0.252091
H    -0.600254  0.632554  -0.256002
H    -2.202783  -0.128378  -0.063471
N    -1.934168  -0.072200  2.492003
C    -1.970019  -0.031322  3.966702
C    -1.182749  1.192659  4.502803
O    0.065333  1.138783  4.661941
H    -2.832666  0.046492  2.033852
H    -3.031988  0.134542  4.185231
C    -1.532826  -1.317267  4.733115
C    -1.432079  -2.640760  3.964915
C    -0.041620  -3.231455  3.933066
O    1.005009  -2.602421  4.150412
O    -0.048149  -4.515915  3.631961
H    -2.247394  -1.439686  5.555653
H    -0.573339  -1.119033  5.223067
H    -1.741850  -2.542193  2.911697
H    -2.104114  -3.404071  4.376855
N    -1.890747  2.279471  4.789821
C    -1.328447  3.530004  5.300973
H    -2.895779  2.248407  4.642648
H    -2.030021  3.967394  6.018340
H    -1.163047  4.240957  4.481057
H    -0.378113  3.320535  5.798859
H    0.865645  -4.870003  3.608021
Ba    2.018739  -0.247604  3.871529
