29
Energy: -244836.184264 eV PBE+vdW (tier 2 basis)
C    0.175437  0.392478  1.158515
C    -0.136833  -0.584169  2.241944
O    0.791992  -1.234613  2.817268
H    0.584055  -0.131589  0.283170
H    0.970533  1.056131  1.525625
H    -0.680710  1.001241  0.853551
N    -1.395131  -0.796936  2.661668
C    -2.671830  -0.661843  1.941156
C    -3.726396  -1.308294  2.855440
O    -3.442501  -2.377274  3.469790
H    -1.455851  -1.388120  3.489827
H    -2.899177  0.398850  1.774482
C    -2.664324  -1.388593  0.566248
C    -2.530376  -2.934956  0.579211
C    -1.347662  -3.448650  1.360656
O    -0.219463  -3.620422  0.866068
O    -1.499157  -3.701781  2.659034
H    -1.863562  -0.956793  -0.047279
H    -3.602246  -1.146435  0.047930
H    -2.403164  -3.266248  -0.458675
H    -3.445098  -3.399439  0.970538
N    -4.931460  -0.764454  2.954832
C    -5.417242  0.489836  2.368875
H    -5.580383  -1.294294  3.537048
H    -4.838958  1.348888  2.730716
H    -6.455593  0.625354  2.682941
H    -5.398048  0.455378  1.272709
H    -2.390673  -3.214417  3.037970
Ba    1.407978  -3.618231  2.864974
