29
Energy: -244836.232783 eV PBE+vdW (tier 2 basis)
C    0.682696  0.177417  0.324189
C    0.099384  -0.019875  1.684220
O    0.143980  -1.136321  2.265770
H    0.220354  -0.537072  -0.370277
H    1.756025  -0.054929  0.355342
H    0.547582  1.192072  -0.064893
N    -0.492023  1.052563  2.285107
C    -0.953267  0.911260  3.652334
C    -2.429350  1.131398  3.929209
O    -2.951630  0.412266  4.871602
H    -0.352136  1.962886  1.854354
H    -0.867899  -0.168637  3.783100
C    -0.036608  1.562500  4.727286
C    -0.092369  0.830761  6.099170
C    -0.041443  -0.658204  5.841610
O    1.061660  -1.261038  5.734638
O    -1.153311  -1.273921  5.546397
H    -0.271810  2.625565  4.868121
H    0.987737  1.502922  4.335933
H    -1.003470  1.087859  6.653676
H    0.772239  1.136524  6.698354
N    -3.174167  2.005257  3.296860
C    -4.599570  2.258301  3.551619
H    -2.731105  2.564745  2.572696
H    -5.000438  1.467603  4.189252
H    -5.132181  2.276023  2.594873
H    -4.714876  3.228262  4.050819
H    -2.268781  -0.312094  5.233359
Ba    0.343146  -2.978343  4.064627
