29
Energy: -244836.34566 eV PBE+vdW (tier 2 basis)
C    -1.659685  -1.728548  0.618555
C    -0.760163  -0.854253  1.432746
O    0.505296  -0.903584  1.262118
H    -1.508718  -1.489482  -0.443626
H    -2.717481  -1.602135  0.868187
H    -1.376175  -2.780727  0.751428
N    -1.323885  -0.034674  2.316934
C    -0.662927  1.056168  3.042014
C    0.102589  0.537071  4.282208
O    1.090416  -0.241683  4.118917
H    -2.376405  0.016281  2.326140
H    0.142234  1.443717  2.393863
C    -1.648920  2.227156  3.256759
C    -2.983078  2.009384  4.012212
C    -4.103516  1.380107  3.201696
O    -3.949587  0.472934  2.388317
O    -5.286980  1.903812  3.498411
H    -1.875586  2.632512  2.260743
H    -1.095791  3.030195  3.764884
H    -3.338665  2.976194  4.388325
H    -2.882293  1.361992  4.900004
N    -0.238468  0.943435  5.494485
C    0.458967  0.545481  6.720351
H    -1.013619  1.591702  5.583672
H    -0.069589  0.976880  7.574191
H    1.491202  0.916123  6.711482
H    0.467966  -0.546252  6.814109
H    -5.984132  1.440332  2.987787
Ba    2.538995  -1.294139  2.436088
