29
Energy: -244835.661245 eV PBE+vdW (tier 2 basis)
C    -0.939251  0.283026  -0.370376
C    -0.923353  -0.166993  1.060010
O    -0.123597  -1.004823  1.494607
H    -0.019316  0.853667  -0.560966
H    -1.800263  0.910145  -0.627677
H    -0.911747  -0.594716  -1.026204
N    -1.850529  0.403110  1.908382
C    -1.734898  0.235873  3.353673
C    -2.317747  -1.127425  3.810777
O    -3.363550  -1.247931  4.543239
H    -2.505846  1.076787  1.528868
H    -0.653450  0.130412  3.548269
C    -2.155463  1.491077  4.135632
C    -3.552266  2.136308  3.896387
C    -4.673568  1.367510  4.512248
O    -5.497950  0.689172  3.900618
O    -4.771252  1.321758  5.866803
H    -1.421710  2.266367  3.878092
H    -2.006808  1.291900  5.206832
H    -3.781387  2.260163  2.831499
H    -3.530412  3.147663  4.331403
N    -1.630150  -2.167666  3.393170
C    -1.960120  -3.558475  3.669159
H    -0.845298  -1.927907  2.735420
H    -1.110829  -4.180547  3.373502
H    -2.839187  -3.879313  3.091664
H    -2.147530  -3.705042  4.739962
H    -4.123405  1.895027  6.320803
Ba    -5.633894  -1.511848  5.239450
