29
Energy: -244835.990004 eV PBE+vdW (tier 2 basis)
C    -0.592478  0.118815  -0.173854
C    -0.360866  -0.830518  0.961135
O    0.515281  -1.758986  0.853768
H    -0.942237  -0.454872  -1.043728
H    0.349954  0.603311  -0.462648
H    -1.334162  0.889812  0.057204
N    -1.079325  -0.673228  2.060879
C    -1.194722  -1.532642  3.236981
C    -2.422697  -0.916529  3.981582
O    -2.709014  0.262171  3.741488
H    -1.745007  0.116458  2.152877
H    -1.408483  -2.562460  2.914124
C    0.046458  -1.555431  4.163793
C    0.636597  -0.180801  4.504519
C    1.656945  0.326825  3.517623
O    2.356029  -0.425869  2.817397
O    1.870392  1.623694  3.404128
H    0.825889  -2.191761  3.722306
H    -0.249296  -2.054012  5.095649
H    1.175195  -0.243287  5.466481
H    -0.152737  0.571916  4.652257
N    -3.052243  -1.706882  4.861093
C    -4.197536  -1.268876  5.660787
H    -2.782480  -2.683739  4.921889
H    -4.003540  -1.448008  6.724598
H    -5.100394  -1.814400  5.360802
H    -4.349468  -0.200041  5.490080
H    1.295767  2.149989  3.994852
Ba    2.857585  -2.130837  1.088614
