29
Energy: -244836.694128 eV PBE+vdW (tier 2 basis)
C    -0.648483  -1.020834  0.123487
C    -0.379952  -0.721337  1.569318
O    0.740468  -0.981386  2.075772
H    0.110842  -0.527960  -0.496802
H    -1.642711  -0.714905  -0.218238
H    -0.537401  -2.102606  -0.034486
N    -1.393389  -0.176425  2.272025
C    -1.563442  0.130314  3.705695
C    -0.613760  1.217253  4.234669
O    0.633622  1.170605  4.052940
H    -2.237434  -0.023499  1.728517
H    -2.567946  0.567599  3.722859
C    -1.668587  -1.100073  4.664455
C    -0.449228  -1.546934  5.499187
C    0.574736  -2.407320  4.812017
O    1.761509  -2.082519  4.658655
O    0.100258  -3.574915  4.412244
H    -2.066968  -1.942684  4.083886
H    -2.452255  -0.847275  5.390789
H    -0.842696  -2.154568  6.328866
H    0.071066  -0.695150  5.951593
N    -1.146867  2.203699  4.954148
C    -2.555506  2.465889  5.272242
H    -0.463948  2.870607  5.312141
H    -2.596833  3.369384  5.886790
H    -2.998661  1.646152  5.850514
H    -3.143080  2.650041  4.364068
H    0.816929  -4.116335  4.020120
Ba    2.668827  -0.099636  3.352966
