27
Energy: -170730.515874 eV PBE+vdW (tier 2 basis)
C    -0.727193  1.299725  0.216837
C    -0.502290  0.517339  1.468501
O    0.491692  -0.282374  1.477295
H    -1.483186  2.084588  0.328227
H    -1.058120  0.599090  -0.565311
H    0.220535  1.736687  -0.120017
N    -1.358033  0.703826  2.488490
C    -1.623666  -0.082827  3.715050
C    -0.652996  0.253454  4.866077
O    0.557550  -0.165964  4.889436
H    -2.085192  1.384405  2.283663
H    -2.624268  0.247655  4.024931
C    -1.783607  -1.617884  3.475938
O    -2.444181  -1.744765  2.258237
C    -2.447939  -2.308680  4.660014
H    -0.746959  -2.107583  3.382025
H    -2.869856  -2.618224  2.188528
H    -2.525054  -3.388546  4.477664
H    -3.461651  -1.912889  4.811859
H    -1.870647  -2.179014  5.585431
N    -1.114008  0.992197  5.856475
C    -0.347676  1.418505  7.033161
H    -2.087311  1.288142  5.812847
H    -0.733541  0.908319  7.924663
H    -0.466284  2.500711  7.159031
H    0.706437  1.171544  6.892341
Cd    1.252163  -1.255462  3.192070
