27
Energy: -170730.458381 eV PBE+vdW (tier 2 basis)
C    0.652817  -0.984397  3.292494
C    0.020781  -0.145050  2.235268
O    0.621403  -0.072564  1.102776
H    1.691510  -0.666758  3.450445
H    0.693544  -2.021730  2.924453
H    0.103489  -0.968031  4.239893
N    -1.139435  0.471484  2.506002
C    -2.165218  0.982126  1.580314
C    -2.022600  2.502219  1.315983
O    -0.874618  2.997023  0.971611
H    -1.459781  0.379843  3.469347
H    -2.012064  0.499095  0.598106
C    -3.552527  0.468612  2.096588
O    -4.500368  1.061946  1.205893
C    -3.862539  0.772471  3.563656
H    -3.531652  -0.624082  1.948020
H    -5.358510  0.610688  1.284428
H    -3.773652  1.837195  3.815867
H    -3.245219  0.189010  4.263410
H    -4.894541  0.463936  3.775901
N    -3.064314  3.287850  1.413475
C    -3.088284  4.724522  1.138507
H    -3.959217  2.805476  1.585407
H    -3.918890  4.935575  0.454905
H    -2.140497  5.041126  0.698732
H    -3.257162  5.268712  2.077053
Cd    0.551545  1.756701  0.055465
