27
Energy: -170729.578721 eV PBE+vdW (tier 2 basis)
C    -0.846138  -1.093579  0.052928
C    -1.074728  -0.242426  1.269120
O    -0.182684  0.062064  2.057870
H    -0.291215  -0.499714  -0.687341
H    -1.777351  -1.453485  -0.399799
H    -0.209321  -1.942902  0.326150
N    -2.364150  0.215788  1.493949
C    -2.621966  1.128252  2.590349
C    -3.770232  0.645412  3.486443
O    -4.827799  1.348273  3.732950
H    -3.092302  -0.000247  0.819437
H    -1.700189  1.085139  3.203109
C    -2.710575  2.580764  2.047626
O    -2.796008  3.484308  3.235292
C    -3.796740  2.894605  1.033916
H    -1.724882  2.789705  1.606836
H    -2.284117  4.299800  3.073135
H    -3.766735  3.956791  0.758602
H    -4.807496  2.632632  1.382334
H    -3.626353  2.337418  0.103094
N    -3.715772  -0.556361  4.033636
C    -2.677956  -1.586041  3.931183
H    -4.537064  -0.791099  4.595511
H    -2.756338  -2.221023  4.819186
H    -1.679297  -1.137635  3.902748
H    -2.833023  -2.208144  3.039936
Cd    -4.819568  3.427704  4.176802
