27
Energy: -170729.629587 eV PBE+vdW (tier 2 basis)
C    0.067015  0.539330  0.032449
C    -0.129560  0.465932  1.507871
O    0.912606  0.278411  2.231685
H    -0.865236  0.742827  -0.506179
H    0.486219  -0.415874  -0.316668
H    0.808252  1.316021  -0.199068
N    -1.372767  0.586094  2.016621
C    -1.586206  0.447991  3.445030
C    -2.839800  -0.130319  4.134660
O    -2.659336  -0.223979  5.368212
H    -2.124324  0.813764  1.369947
H    -0.891941  -0.371366  3.720032
C    -1.161065  1.731393  4.236400
O    -0.472130  1.219124  5.452100
C    -2.250133  2.719328  4.604596
H    -0.392190  2.268446  3.659517
H    -1.184963  0.566799  5.800953
H    -3.027468  2.278761  5.237974
H    -2.713913  3.102897  3.684000
H    -1.806723  3.571934  5.131326
N    -3.936089  -0.488369  3.480871
C    -5.118766  -1.068112  4.135394
H    -3.970786  -0.389168  2.470829
H    -5.982388  -0.410329  3.983942
H    -4.914415  -1.168802  5.204014
H    -5.328448  -2.052810  3.702391
Cd    1.201556  0.269078  4.377102
