27
Energy: -170729.556869 eV PBE+vdW (tier 2 basis)
C    0.093222  -0.955962  0.811648
C    -0.573758  0.021897  1.691706
O    0.156624  0.628793  2.582497
H    0.554379  -1.744522  1.424980
H    0.916126  -0.457486  0.278259
H    -0.595208  -1.407171  0.090175
N    -1.871255  0.297301  1.612786
C    -2.543742  1.245798  2.462916
C    -2.891011  0.859526  3.794834
O    -3.184157  1.723012  4.749370
H    -2.379511  -0.179163  0.865460
H    -0.419770  1.286528  3.051206
C    -3.136572  2.423305  1.759374
O    -2.364899  3.695183  2.214402
C    -4.631445  2.660448  1.911122
H    -2.871234  2.352399  0.695732
H    -2.575725  4.446412  1.620250
H    -4.967976  2.679695  2.957453
H    -5.173952  1.842704  1.417346
H    -4.944047  3.592013  1.423099
N    -2.933608  -0.414417  4.229144
C    -3.284713  -1.617456  3.476812
H    -2.953280  -0.493025  5.246160
H    -2.387598  -2.170710  3.165217
H    -3.895033  -1.366287  2.603100
H    -3.875702  -2.271051  4.127138
Cd    -2.597148  3.719235  4.408813
