27
Energy: -170729.642865 eV PBE+vdW (tier 2 basis)
C    -0.664629  1.587639  0.049965
C    -0.449487  1.120896  1.450435
O    0.687586  0.599113  1.728392
H    -1.655451  2.029439  -0.103036
H    -0.547622  0.725720  -0.623972
H    0.114181  2.312079  -0.222508
N    -1.448974  1.239332  2.337149
C    -1.544376  0.585979  3.645929
C    -2.940430  -0.153363  3.772513
O    -2.916289  -1.364464  3.925976
H    -2.303518  1.653293  1.967888
H    -0.851520  -0.268391  3.648800
C    -1.261676  1.478747  4.859819
O    0.172128  1.929017  4.721736
C    -1.466387  0.783511  6.187951
H    -1.836944  2.416569  4.798464
H    0.399132  2.500406  5.482397
H    -1.155869  1.431410  7.018321
H    -0.919541  -0.166842  6.247993
H    -2.531618  0.566044  6.344718
N    -4.050476  0.603284  3.667684
C    -5.394557  0.015609  3.769588
H    -3.982601  1.615208  3.733272
H    -6.105538  0.686963  3.278967
H    -5.685549  -0.123589  4.818873
H    -5.394371  -0.958170  3.269857
Cd    1.673313  0.743457  3.595325
