27
Energy: -170730.000748 eV PBE+vdW (tier 2 basis)
C    0.058254  -1.242068  1.016048
C    0.120195  -0.036710  1.872185
O    1.258992  0.461198  2.186439
H    0.689451  -1.130263  0.125600
H    -0.964519  -1.530873  0.754340
H    0.500113  -2.067941  1.603405
N    -1.002391  0.552031  2.376681
C    -2.205362  0.919997  1.642627
C    -2.128701  2.440111  1.301096
O    -1.077316  3.175238  1.498239
H    -0.873190  1.022893  3.275488
H    -2.197815  0.387836  0.679152
C    -3.500499  0.483299  2.388218
O    -4.538600  0.736075  1.433301
C    -3.731402  1.173100  3.726230
H    -3.393220  -0.604477  2.540887
H    -5.399561  0.455827  1.789200
H    -3.814689  2.263563  3.625935
H    -2.939776  0.934023  4.451877
H    -4.663630  0.806737  4.175834
N    -3.198892  2.977327  0.773998
C    -3.338206  4.366173  0.330035
H    -4.024133  2.350997  0.757755
H    -4.053624  4.389724  -0.497509
H    -2.371363  4.754875  -0.000043
H    -3.719070  4.987674  1.151361
Cd    0.867366  2.582797  2.075681
