27
Energy: -170729.873663 eV PBE+vdW (tier 2 basis)
C    -0.809055  -0.860197  0.044266
C    -0.836917  0.121662  1.174871
O    -0.450548  1.296726  1.027457
H    -1.251023  -1.831067  0.293501
H    0.236889  -1.007990  -0.260320
H    -1.331336  -0.424584  -0.816963
N    -1.319519  -0.317883  2.377946
C    -1.264738  0.339552  3.685730
C    -1.883288  1.744186  3.810733
O    -2.378020  2.110602  4.958916
H    -1.663846  -1.273551  2.398999
H    -1.893762  -0.292275  4.328655
C    0.179755  0.279327  4.293065
O    -0.006716  0.159420  5.784601
C    1.111563  1.415181  3.952659
H    0.602083  -0.692056  3.998309
H    0.845908  -0.088003  6.193240
H    0.722597  2.389240  4.287288
H    1.240256  1.476799  2.862550
H    2.104768  1.260046  4.393380
N    -1.926246  2.553016  2.789721
C    -2.473202  3.907667  2.780924
H    -1.429029  2.186248  1.927450
H    -3.488564  3.886167  2.360931
H    -1.843668  4.526595  2.132412
H    -2.510502  4.320385  3.792163
Cd    -1.402842  1.604792  6.751514
