27
Energy: -170730.43408 eV PBE+vdW (tier 2 basis)
C    -0.258776  -1.714409  0.448719
C    -0.241969  -0.789185  1.619557
O    0.862574  -0.175579  1.849871
H    -0.023283  -1.136985  -0.457423
H    -1.224968  -2.213099  0.318816
H    0.536852  -2.462611  0.563397
N    -1.358438  -0.652540  2.341456
C    -1.713545  0.376556  3.321366
C    -1.256616  0.021631  4.761319
O    -0.099685  0.462816  5.155450
H    -2.193638  -1.166264  2.032084
H    -1.149349  1.296829  3.094115
C    -3.217694  0.763187  3.086740
O    -3.868436  -0.445788  2.687337
C    -3.344074  1.864072  2.041831
H    -3.625792  1.117131  4.049132
H    -4.721009  -0.239449  2.267537
H    -4.404242  2.086577  1.860959
H    -2.889988  1.572374  1.084868
H    -2.882460  2.797348  2.391363
N    -1.945848  -0.662586  5.646393
C    -3.282071  -1.266617  5.611276
H    -1.451615  -0.759096  6.538517
H    -3.208596  -2.260174  6.068113
H    -3.650343  -1.357145  4.587804
H    -3.972536  -0.657390  6.209477
Cd    1.347547  0.784397  3.659928
