27
Energy: -170730.292048 eV PBE+vdW (tier 2 basis)
C    -0.622765  -0.574555  -0.062004
C    -0.384738  -0.676585  1.406534
O    0.833052  -0.626289  1.800236
H    -0.360070  0.445222  -0.383285
H    -1.664616  -0.774879  -0.335311
H    0.044791  -1.263075  -0.594551
N    -1.441672  -0.806391  2.223258
C    -1.459221  -0.589118  3.673823
C    -1.056806  -1.841521  4.482134
O    0.139016  -1.900043  4.972298
H    -2.348072  -0.725121  1.763935
H    -0.684367  0.166335  3.906805
C    -2.771838  0.132172  4.090031
O    -2.735264  1.287776  3.264203
C    -2.803274  0.441386  5.580846
H    -3.637122  -0.500020  3.818382
H    -3.467680  1.883873  3.496597
H    -3.723163  0.989401  5.822304
H    -1.952104  1.069163  5.876395
H    -2.807724  -0.467412  6.198764
N    -1.854011  -2.861372  4.722642
C    -3.258116  -3.089053  4.362987
H    -1.414703  -3.596182  5.283372
H    -3.415291  -4.171580  4.321265
H    -3.485644  -2.669673  3.379446
H    -3.928613  -2.666481  5.121998
Cd    1.572833  -0.917967  3.758472
