27
Energy: -170730.128465 eV PBE+vdW (tier 2 basis)
C    -0.626741  -0.333175  0.202924
C    -0.328273  -0.108334  1.646983
O    0.859098  0.260000  1.946608
H    0.099000  -1.043898  -0.213822
H    -0.487518  0.616238  -0.335359
H    -1.645416  -0.697115  0.030312
N    -1.311551  -0.292232  2.544882
C    -1.296500  0.097547  3.951226
C    -0.600175  -0.948716  4.870107
O    0.593877  -0.672399  5.294735
H    -2.215002  -0.573887  2.167144
H    -0.631115  0.973634  4.039664
C    -2.685884  0.644594  4.454193
O    -2.659774  0.343117  5.843102
C    -3.934668  0.151568  3.728161
H    -2.629640  1.735513  4.300156
H    -3.236223  0.956328  6.329218
H    -4.811878  0.580125  4.231158
H    -4.063060  -0.936188  3.735575
H    -3.981312  0.525599  2.694399
N    -1.100299  -2.107222  5.235761
C    -2.431387  -2.684328  5.035440
H    -0.466644  -2.645340  5.831740
H    -3.159133  -2.199269  5.695359
H    -2.368479  -3.748377  5.280337
H    -2.739474  -2.590064  3.989409
Cd    1.757171  0.365279  3.870587
