27
Energy: -170730.404757 eV PBE+vdW (tier 2 basis)
C    0.649072  0.144711  0.249459
C    0.481830  0.023540  1.728336
O    1.544703  -0.118579  2.418628
H    -0.275711  0.419928  -0.269117
H    0.993570  -0.828147  -0.133681
H    1.435286  0.876359  0.027022
N    -0.767542  0.066181  2.224292
C    -1.321353  -0.310357  3.544410
C    -1.183935  0.812306  4.589760
O    -0.067353  1.080116  5.163164
H    -1.479814  0.173506  1.506810
H    -2.391078  -0.447707  3.348143
C    -0.848515  -1.699789  4.077162
O    -0.774832  -2.524947  2.959134
C    -1.739123  -2.201451  5.207154
H    0.202132  -1.609433  4.533737
H    -0.811848  -3.462307  3.221649
H    -1.371896  -3.164958  5.584031
H    -2.766947  -2.344125  4.846283
H    -1.750133  -1.507131  6.058470
N    -2.242115  1.522683  4.931507
C    -3.627808  1.419586  4.448161
H    -2.054743  2.238061  5.637628
H    -3.675960  1.510072  3.356967
H    -4.189287  2.252992  4.879507
H    -4.094235  0.483856  4.779660
Cd    1.664634  0.016034  4.524725
