27
Energy: -170729.504306 eV PBE+vdW (tier 2 basis)
C    0.122158  0.595335  0.044639
C    0.055203  0.548369  1.534152
O    1.164102  0.611954  2.173650
H    -0.865950  0.547746  -0.426302
H    0.726379  -0.256547  -0.301801
H    0.645186  1.506624  -0.274100
N    -1.140506  0.417447  2.127848
C    -1.388519  0.061954  3.527634
C    -2.336092  -1.204571  3.613709
O    -1.854490  -2.195737  4.142197
H    -1.931965  0.365776  1.489840
H    -0.460049  -0.374937  3.923692
C    -1.823302  1.206776  4.451623
O    -0.629979  2.129768  4.547202
C    -2.238639  0.751246  5.833092
H    -2.597070  1.827297  3.977130
H    -0.842960  2.861477  5.159782
H    -3.181603  0.189919  5.779530
H    -2.428680  1.613243  6.486359
H    -1.489166  0.100644  6.302351
N    -3.574889  -1.160617  3.072210
C    -4.415461  -0.014680  2.727888
H    -4.064520  -2.051440  3.172308
H    -4.958005  0.372297  3.602560
H    -5.152288  -0.339809  1.985265
H    -3.842087  0.805742  2.280053
Cd    1.435193  1.482724  4.081491
