27
Energy: -170730.785451 eV PBE+vdW (tier 2 basis)
C    0.984683  -0.541264  0.378026
C    0.241248  -0.054905  1.575834
O    0.380705  1.185495  1.881110
H    0.634917  0.022709  -0.499910
H    0.841155  -1.611566  0.195472
H    2.053507  -0.317846  0.492207
N    -0.531400  -0.913409  2.249353
C    -1.570211  -0.624895  3.249034
C    -0.997659  -0.610158  4.685578
O    -0.546672  0.490028  5.199924
H    -0.519728  -1.890706  1.949217
H    -1.979029  0.381553  3.059947
C    -2.746822  -1.617909  3.044715
O    -2.125951  -2.912316  3.160905
C    -3.479012  -1.422885  1.726879
H    -3.447581  -1.455444  3.882762
H    -2.761745  -3.609796  2.923059
H    -4.292944  -2.155594  1.646462
H    -2.822234  -1.552287  0.857039
H    -3.943862  -0.428988  1.677780
N    -0.992253  -1.721352  5.377962
C    -0.494427  -1.882002  6.746216
H    -1.389308  -2.539240  4.890691
H    -1.344167  -1.980176  7.434296
H    0.106568  -1.015352  7.030088
H    0.108448  -2.795505  6.793504
Cd    0.033511  1.962262  3.810881
