27
Energy: -170729.849149 eV PBE+vdW (tier 2 basis)
C    0.399778  0.969803  0.137206
C    0.035033  0.259367  1.406155
O    0.317440  0.658728  2.528007
H    0.382714  0.317017  -0.743397
H    1.389829  1.424789  0.249386
H    -0.319462  1.788704  -0.015527
N    -0.675838  -0.945750  1.282790
C    -1.198286  -1.560682  2.481059
C    -0.343500  -2.738338  2.988185
O    -0.631099  -3.377281  4.070510
H    -1.026643  -1.216883  0.367145
H    -1.078630  -0.776145  3.259122
C    -2.706795  -1.876905  2.315618
O    -3.315979  -1.777412  3.686350
C    -3.060138  -3.189776  1.651121
H    -3.141180  -1.025003  1.772088
H    -4.285635  -1.678824  3.608512
H    -4.146830  -3.302111  1.548313
H    -2.664519  -4.059308  2.194573
H    -2.647397  -3.222515  0.632273
N    0.730362  -3.063350  2.311484
C    1.714333  -4.086723  2.674657
H    0.884007  -2.518420  1.460557
H    1.560698  -4.984407  2.062270
H    1.608706  -4.340963  3.731855
H    2.716473  -3.688589  2.483462
Cd    -2.310442  -2.939023  5.288225
