27
Energy: -170730.48229 eV PBE+vdW (tier 2 basis)
C    0.219545  0.880951  -0.300598
C    -0.461049  0.709560  1.015755
O    -0.910717  1.773743  1.572325
H    0.707006  -0.037657  -0.644991
H    0.951089  1.695712  -0.237404
H    -0.537305  1.181140  -1.041901
N    -0.568236  -0.525371  1.525501
C    -1.495724  -0.998006  2.566461
C    -0.917290  -0.854517  3.990810
O    -1.133060  0.212604  4.681011
H    -0.262698  -1.266668  0.893201
H    -2.404290  -0.366679  2.533401
C    -1.973756  -2.435495  2.202762
O    -2.222041  -2.357023  0.809152
C    -3.186908  -2.854753  3.021813
H    -1.135280  -3.144349  2.383447
H    -2.648621  -3.175122  0.501426
H    -3.476870  -3.880266  2.758962
H    -4.041918  -2.197258  2.816252
H    -2.984976  -2.851244  4.101926
N    -0.210713  -1.828809  4.517491
C    0.396046  -1.815558  5.854576
H    -0.119856  -2.686598  3.974712
H    0.599760  -0.785361  6.156743
H    1.326630  -2.390230  5.817078
H    -0.287549  -2.279072  6.578076
Cd    -1.618219  1.931326  3.548013
