27
Energy: -170729.510085 eV PBE+vdW (tier 2 basis)
C    -0.030209  0.440679  0.060040
C    -0.013955  0.301642  1.544931
O    1.116317  0.061864  2.101772
H    -1.031602  0.642023  -0.336267
H    0.349116  -0.493680  -0.380013
H    0.660130  1.238205  -0.245246
N    -1.166807  0.404482  2.222102
C    -1.388589  0.040747  3.621333
C    -2.571673  -1.001400  3.805836
O    -2.290426  -1.986796  4.475745
H    -1.984810  0.626107  1.658089
H    -0.545194  -0.594559  3.927885
C    -1.505509  1.219529  4.599395
O    -0.144859  1.882259  4.589757
C    -1.885775  0.837941  6.011901
H    -2.174497  1.994742  4.195745
H    -0.152106  2.627509  5.223135
H    -1.844337  1.715758  6.670825
H    -1.245229  0.046130  6.420407
H    -2.923084  0.477856  6.041294
N    -3.782006  -0.767631  3.267240
C    -4.285639  0.376425  2.512118
H    -4.437604  -1.532763  3.427918
H    -5.358718  0.476880  2.707392
H    -4.162260  0.240518  1.426164
H    -3.823955  1.317471  2.834590
Cd    1.687035  0.784463  4.007267
