27
Energy: -170729.801423 eV PBE+vdW (tier 2 basis)
C    0.672223  0.254460  -0.219808
C    0.407233  0.019824  1.230389
O    1.260975  -0.737919  1.842340
H    0.673978  -0.716418  -0.736877
H    1.674286  0.685293  -0.346299
H    -0.078983  0.906142  -0.679004
N    -0.663818  0.568963  1.784385
C    -1.310584  0.364189  3.084452
C    -2.825111  0.679157  2.748089
O    -3.016581  1.545274  1.896242
H    -1.269974  1.164887  1.193883
H    -1.223327  -0.686502  3.404558
C    -0.779217  1.316218  4.197359
O    0.188515  0.490668  5.025439
C    -1.783842  1.920342  5.153693
H    -0.190269  2.109995  3.717969
H    0.410308  0.977519  5.845026
H    -2.460420  2.579393  4.591221
H    -1.274928  2.560525  5.888085
H    -2.379727  1.169446  5.684370
N    -3.782808  0.014613  3.403844
C    -3.662948  -1.135638  4.299842
H    -4.724808  0.278052  3.113304
H    -2.846271  -1.005436  5.019619
H    -3.523653  -2.071678  3.741475
H    -4.590068  -1.216959  4.875789
Cd    1.572818  -0.756412  3.897620
