28
Energy: -19698.1451109 eV PBE+vdW (tier 2 basis)
C    0.858477  -0.984585  1.002141
C    0.268704  0.059609  1.934896
O    0.956983  0.695934  2.728729
H    1.608427  -0.502321  0.362542
H    0.116139  -1.483930  0.367572
H    1.381756  -1.737300  1.604406
N    -1.078451  0.260923  1.802926
C    -1.858202  1.122927  2.685916
C    -1.228313  2.516063  2.936825
O    -1.143304  2.973385  4.072067
H    -1.619489  -0.375045  1.224091
H    -2.799514  1.311668  2.143127
C    -2.190138  0.464130  4.036787
C    -2.695973  -0.990625  3.927798
C    -3.864583  -1.135898  2.985285
O    -3.786952  -1.195928  1.768941
O    -5.059435  -1.159843  3.631745
H    -2.931458  1.086719  4.553309
H    -1.289384  0.473005  4.662671
H    -2.978797  -1.345421  4.925519
H    -1.892775  -1.635273  3.547881
N    -0.883002  3.266992  1.847376
C    -0.894884  2.924998  0.437543
H    -0.440638  4.140814  2.114019
H    -0.922153  3.853977  -0.144855
H    -1.789896  2.347623  0.177171
H    -0.009083  2.347593  0.129621
H    -5.744396  -1.222313  2.936735
