28
Energy: -19698.0761688 eV PBE+vdW (tier 2 basis)
C    0.069305  -0.527860  -0.239326
C    0.084669  0.498151  0.877066
O    0.673008  1.566955  0.744519
H    1.071204  -0.974502  -0.300771
H    -0.109061  0.002570  -1.180865
H    -0.658432  -1.336394  -0.132609
N    -0.503885  0.195879  2.095635
C    -1.478441  -0.831475  2.475409
C    -1.030569  -2.275303  2.135451
O    -1.834851  -3.135331  1.787865
H    -0.434544  0.990291  2.727855
H    -1.470830  -0.818844  3.578672
C    -2.938026  -0.536955  2.080889
C    -3.224328  -0.388512  0.582589
C    -4.665214  -0.050288  0.272272
O    -5.353553  -0.595574  -0.562855
O    -5.126752  0.986891  1.034991
H    -3.240325  0.383501  2.598706
H    -3.550469  -1.353832  2.486703
H    -2.993439  -1.308673  0.036263
H    -2.617176  0.427862  0.158398
N    0.294558  -2.510709  2.339874
C    0.911513  -3.796313  2.078904
H    0.879762  -1.711907  2.559403
H    1.520481  -4.116282  2.934362
H    1.548107  -3.764974  1.182000
H    0.110347  -4.524517  1.915259
H    -6.047009  1.136841  0.744022
