28
Energy: -19698.0172799 eV PBE+vdW (tier 2 basis)
C    0.209909  0.387646  0.715260
C    -0.033113  -0.188318  2.098855
O    0.885120  -0.563218  2.821982
H    1.279757  0.309380  0.506247
H    -0.079856  1.447158  0.664291
H    -0.349574  -0.148996  -0.062482
N    -1.336764  -0.265990  2.530956
C    -2.555783  0.114190  1.823917
C    -3.529811  0.782566  2.822810
O    -4.616859  0.284552  3.110060
H    -1.430064  -0.685386  3.452675
H    -2.277863  0.885015  1.089156
C    -3.216199  -1.037081  1.043632
C    -3.486901  -2.297780  1.871133
C    -4.068636  -3.459476  1.101998
O    -3.844482  -4.630164  1.327320
O    -4.926162  -3.060363  0.115180
H    -2.553307  -1.287740  0.201712
H    -4.154393  -0.666340  0.611762
H    -4.204168  -2.054670  2.670937
H    -2.574758  -2.674869  2.349759
N    -3.121354  1.960535  3.381423
C    -1.899455  2.712831  3.145805
H    -3.784774  2.328666  4.055953
H    -2.037498  3.726953  3.535896
H    -1.685432  2.802947  2.072135
H    -1.024885  2.264302  3.637767
H    -5.264233  -3.885445  -0.283946
