28
Energy: -19698.202703 eV PBE+vdW (tier 2 basis)
C    0.218136  1.119592  1.693384
C    0.105294  -0.332852  2.109611
O    1.007709  -0.933840  2.683805
H    0.189461  1.218829  0.598771
H    1.172701  1.505335  2.059470
H    -0.602744  1.728114  2.096587
N    -1.084349  -0.972655  1.819586
C    -2.228106  -0.447903  1.084342
C    -3.128478  0.503374  1.903478
O    -3.868749  1.298309  1.326071
H    -1.071244  -1.965686  2.039585
H    -1.881740  0.161429  0.235624
C    -3.023297  -1.644758  0.521328
C    -4.242846  -1.301926  -0.340194
C    -5.544780  -0.955618  0.353962
O    -6.478757  -0.402335  -0.180132
O    -5.599926  -1.407662  1.643965
H    -3.329463  -2.295703  1.353837
H    -2.318348  -2.222793  -0.094581
H    -4.482938  -2.174575  -0.969031
H    -4.035371  -0.477811  -1.034152
N    -3.046110  0.369855  3.251094
C    -3.866658  1.134563  4.167897
H    -2.369716  -0.295343  3.610297
H    -3.247090  1.706619  4.871909
H    -4.539294  0.479453  4.739672
H    -4.468558  1.829947  3.572916
H    -6.483380  -1.145547  1.967368
