28
Energy: -19697.9665795 eV PBE+vdW (tier 2 basis)
C    -0.436327  -2.010071  0.378939
C    0.079409  -0.978461  1.368651
O    1.252006  -0.615159  1.380888
H    0.417383  -2.395079  -0.184353
H    -1.148735  -1.555033  -0.324503
H    -0.944169  -2.847173  0.879228
N    -0.823380  -0.477910  2.274684
C    -2.253876  -0.701265  2.281786
C    -2.957601  0.029771  1.112370
O    -2.545703  1.104186  0.688584
H    -0.472344  0.298169  2.831180
H    -2.425788  -1.783279  2.187416
C    -2.885355  -0.270445  3.631737
C    -3.302905  1.198433  3.795880
C    -2.254526  2.290866  3.852813
O    -2.488363  3.467612  3.705805
O    -1.000908  1.828107  4.158703
H    -2.192116  -0.568136  4.430733
H    -3.794955  -0.870669  3.778216
H    -3.856472  1.290737  4.744693
H    -4.009943  1.507176  3.014909
N    -4.089015  -0.554982  0.611458
C    -4.629671  -1.871767  0.912198
H    -4.512746  -0.025690  -0.144483
H    -5.546065  -2.009122  0.328757
H    -4.899769  -1.978101  1.972313
H    -3.935889  -2.682145  0.640831
H    -0.425578  2.618039  4.183339
