28
Energy: -19698.3782901 eV PBE+vdW (tier 2 basis)
C    -0.510264  0.009384  -0.389885
C    -0.265294  -0.333393  1.063595
O    0.838382  -0.164992  1.597337
H    -0.305250  1.077317  -0.536298
H    -1.530502  -0.206400  -0.729410
H    0.201542  -0.547952  -1.011088
N    -1.331162  -0.835884  1.746691
C    -1.298602  -1.138343  3.178498
C    -0.687378  -2.541513  3.466190
O    -1.337614  -3.460633  3.965469
H    -2.190339  -1.015278  1.240861
H    -0.607742  -0.402579  3.619172
C    -2.675937  -0.941089  3.819062
C    -3.801269  -1.818071  3.243863
C    -5.162128  -1.526578  3.827782
O    -6.182623  -1.365036  3.190467
O    -5.137814  -1.477954  5.191382
H    -2.942704  0.122050  3.721168
H    -2.579302  -1.150646  4.891272
H    -3.556132  -2.871543  3.445909
H    -3.920415  -1.704136  2.158379
N    0.624431  -2.620453  3.129523
C    1.396578  -3.839695  3.262546
H    1.041704  -1.791168  2.695805
H    2.296947  -3.666962  3.867715
H    1.703789  -4.227723  2.280429
H    0.769943  -4.587717  3.759398
H    -6.059873  -1.308532  5.465679
