28
Energy: -19697.9882062 eV PBE+vdW (tier 2 basis)
C    -0.260037  -0.099595  -1.105659
C    0.200996  -0.549662  0.270470
O    1.136093  -1.325783  0.424694
H    0.336387  -0.633491  -1.849614
H    -0.108894  0.981472  -1.242056
H    -1.323657  -0.317851  -1.276624
N    -0.498612  -0.066790  1.357201
C    -1.470561  1.009819  1.348205
C    -0.775506  2.383243  1.371902
O    0.224477  2.569442  2.081445
H    -0.039729  -0.274888  2.240748
H    -2.066786  0.908073  0.433308
C    -2.456168  0.874596  2.533323
C    -1.882906  1.129909  3.949965
C    -2.131113  2.555030  4.451875
O    -3.171025  2.874087  4.987078
O    -1.142504  3.460518  4.272521
H    -2.845329  -0.151200  2.482901
H    -3.315859  1.540385  2.369671
H    -0.814902  0.875166  4.003709
H    -2.410916  0.480564  4.657139
N    -1.315145  3.384496  0.637479
C    -2.508279  3.343951  -0.197365
H    -0.855226  4.281125  0.770740
H    -3.421166  3.164900  0.388209
H    -2.427785  2.578780  -0.981413
H    -2.613073  4.314476  -0.692033
H    -0.440321  3.094248  3.680291
