28
Energy: -19698.0125214 eV PBE+vdW (tier 2 basis)
C    0.296878  -0.582422  0.757225
C    -0.194997  -0.536822  2.188182
O    0.570730  -0.617479  3.146492
H    -0.147755  0.194306  0.124456
H    0.051740  -1.549333  0.296498
H    1.383765  -0.468097  0.776614
N    -1.550562  -0.423542  2.415150
C    -2.674670  -0.283406  1.487298
C    -2.690748  -1.400271  0.410169
O    -2.595317  -1.146508  -0.789536
H    -1.766110  -0.390097  3.407009
H    -3.570460  -0.448460  2.106069
C    -2.788809  1.112375  0.844151
C    -4.240287  1.590294  0.624474
C    -5.058455  0.635863  -0.216091
O    -5.649167  -0.336875  0.214155
O    -5.053351  0.975563  -1.529420
H    -2.256150  1.111976  -0.115278
H    -2.294943  1.832143  1.509662
H    -4.222649  2.577260  0.146251
H    -4.750932  1.681419  1.592863
N    -2.810673  -2.680068  0.860000
C    -3.028985  -3.146592  2.219612
H    -2.831487  -3.364546  0.111279
H    -3.339656  -4.195788  2.177564
H    -3.835368  -2.585930  2.713315
H    -2.121016  -3.077253  2.834632
H    -5.525543  0.259244  -1.997129
