28
Energy: -19698.0354996 eV PBE+vdW (tier 2 basis)
C    -0.485779  -0.442294  -0.322190
C    -0.146730  0.363980  0.921839
O    0.944078  0.907923  1.062783
H    0.329488  -0.315781  -1.038944
H    -1.427993  -0.115457  -0.785078
H    -0.586646  -1.512013  -0.090046
N    -1.109034  0.446262  1.901078
C    -2.487737  0.022304  1.817034
C    -3.271211  0.877630  2.851070
O    -2.753008  1.853729  3.389240
H    -0.931726  1.139335  2.630974
H    -2.904196  0.288468  0.827407
C    -2.687248  -1.505778  2.023194
C    -3.761934  -2.111262  1.081860
C    -4.575872  -3.178881  1.766399
O    -4.461431  -4.376079  1.645882
O    -5.496755  -2.607983  2.616086
H    -2.936266  -1.700989  3.075667
H    -1.731202  -2.009540  1.846615
H    -3.294562  -2.550863  0.194477
H    -4.451267  -1.325673  0.738049
N    -4.554093  0.503788  3.095004
C    -5.372900  1.225081  4.057027
H    -4.897021  -0.394133  2.771463
H    -6.417128  0.921420  3.928551
H    -5.285117  2.303382  3.883047
H    -5.063571  1.023652  5.093454
H    -5.954923  -3.345921  3.062655
