28
Energy: -19698.2940857 eV PBE+vdW (tier 2 basis)
C    0.066664  -0.145725  -0.051645
C    -0.009507  -0.052594  1.460332
O    0.994572  0.065952  2.163985
H    0.553532  0.758905  -0.436560
H    -0.910722  -0.260220  -0.535869
H    0.702594  -0.998461  -0.319469
N    -1.267548  -0.106474  1.987393
C    -1.506352  -0.067596  3.417723
C    -2.755634  -0.923312  3.668985
O    -3.704763  -0.863450  2.881835
H    -2.091892  -0.236994  1.407318
H    -0.608022  -0.477222  3.898113
C    -1.694620  1.394399  3.892892
C    -1.812818  1.598103  5.410264
C    -3.141787  1.252496  6.047141
O    -3.285369  0.661287  7.099549
O    -4.192701  1.723825  5.324079
H    -2.568465  1.820910  3.382764
H    -0.808740  1.939486  3.540748
H    -1.650877  2.666689  5.625765
H    -1.035726  1.051843  5.958862
N    -2.796946  -1.722816  4.768390
C    -1.790034  -1.984489  5.786023
H    -3.693153  -2.191623  4.873028
H    -1.792979  -3.054443  6.029590
H    -1.981328  -1.408262  6.702476
H    -0.792216  -1.734783  5.413088
H    -4.997376  1.464530  5.812866
