28
Energy: -19697.5738701 eV PBE+vdW (tier 2 basis)
C    -0.212594  0.197393  -0.666077
C    0.040910  -0.152770  0.787272
O    1.088757  -0.679909  1.149118
H    -0.562024  1.228857  -0.798554
H    -0.966059  -0.480431  -1.091401
H    0.724598  0.062474  -1.211998
N    -0.938476  0.138856  1.710052
C    -2.313605  0.618518  1.528593
C    -3.170972  -0.486516  0.836599
O    -3.295249  -1.545463  1.446092
H    -0.733132  -0.275045  2.614271
H    -2.733792  0.575655  2.543154
C    -2.385411  2.103980  1.099954
C    -3.475190  2.912366  1.839109
C    -4.876662  2.368982  1.678697
O    -5.417182  1.581088  2.424074
O    -5.495257  2.863407  0.562062
H    -2.495948  2.234955  0.019969
H    -1.421011  2.557138  1.365687
H    -3.449823  3.950454  1.483661
H    -3.260439  2.908380  2.915343
N    -3.792666  -0.334662  -0.377006
C    -3.748890  0.678827  -1.424697
H    -4.310341  -1.180619  -0.598627
H    -4.268370  0.267633  -2.297364
H    -2.724636  0.913301  -1.740599
H    -4.261285  1.606961  -1.141509
H    -6.378836  2.445428  0.544199
