28
Energy: -19698.1050349 eV PBE+vdW (tier 2 basis)
C    -0.196883  -0.212657  -0.186654
C    0.249321  -0.079490  1.255038
O    1.437267  -0.097629  1.571018
H    -1.044179  0.429338  -0.451341
H    -0.502894  -1.249509  -0.387128
H    0.661594  0.021047  -0.822030
N    -0.712453  0.021446  2.236506
C    -2.168462  0.132705  2.148653
C    -2.799969  -0.950406  1.246515
O    -3.487845  -0.665053  0.265738
H    -0.304373  0.118394  3.162018
H    -2.526453  -0.064295  3.170861
C    -2.639982  1.548960  1.775057
C    -4.124731  1.818609  2.022096
C    -4.537587  1.784738  3.473363
O    -3.838860  1.471394  4.419186
O    -5.839813  2.153774  3.627018
H    -2.430856  1.735395  0.713856
H    -2.031968  2.253424  2.359008
H    -4.749311  1.099575  1.470592
H    -4.405855  2.804733  1.624038
N    -2.580463  -2.250115  1.600270
C    -1.827607  -2.777190  2.727480
H    -3.006020  -2.912490  0.959392
H    -2.138192  -3.814299  2.896228
H    -2.042687  -2.215797  3.646104
H    -0.741915  -2.757794  2.556271
H    -6.024158  2.095234  4.584710
