28
Energy: -19698.1984518 eV PBE+vdW (tier 2 basis)
C    0.456842  1.125841  0.452228
C    0.342327  0.041219  1.508320
O    1.252204  -0.752168  1.735477
H    0.455674  2.123562  0.913741
H    -0.368769  1.097164  -0.272359
H    1.403009  0.981054  -0.075078
N    -0.833711  -0.025282  2.217311
C    -2.008549  0.829946  2.094047
C    -2.507824  1.212518  3.506906
O    -2.389830  2.360876  3.928314
H    -0.828544  -0.734558  2.945782
H    -1.675290  1.782340  1.672808
C    -3.149445  0.257143  1.179509
C    -2.829031  -1.046450  0.454232
C    -2.725935  -2.250699  1.358190
O    -3.038862  -2.293952  2.538010
O    -2.260262  -3.334416  0.698452
H    -3.394346  1.016921  0.426039
H    -4.062325  0.117011  1.773540
H    -1.905224  -0.989774  -0.137888
H    -3.626821  -1.270539  -0.272509
N    -3.040054  0.182151  4.219592
C    -3.525820  0.347141  5.575956
H    -3.162766  -0.719961  3.755593
H    -3.106077  -0.426067  6.232979
H    -4.623552  0.290380  5.622019
H    -3.211446  1.334217  5.930795
H    -2.226488  -4.065053  1.346682
