28
Energy: -19698.2759228 eV PBE+vdW (tier 2 basis)
C    -0.670622  -0.630522  -0.146310
C    -0.738507  0.013696  1.221277
O    0.258645  0.418378  1.814999
H    0.229211  -1.250982  -0.207131
H    -0.583727  0.170337  -0.894187
H    -1.553164  -1.237412  -0.385734
N    -2.004840  0.144621  1.740864
C    -2.280517  0.891204  2.962665
C    -3.036553  -0.011859  3.962270
O    -4.244224  0.119382  4.160724
H    -2.795982  -0.184815  1.198327
H    -1.286920  1.145565  3.359151
C    -3.066037  2.182751  2.701760
C    -2.416276  3.079153  1.639071
C    -2.570709  2.641785  0.199736
O    -1.719029  2.724322  -0.660734
O    -3.829773  2.175258  -0.074434
H    -3.125146  2.735102  3.649924
H    -4.100944  1.940222  2.430843
H    -1.341460  3.213772  1.813715
H    -2.877094  4.078916  1.693709
N    -2.310562  -0.968430  4.611513
C    -0.929845  -1.374466  4.405205
H    -2.890795  -1.562129  5.197932
H    -0.502048  -1.702258  5.360645
H    -0.323773  -0.544730  4.027459
H    -0.846660  -2.200659  3.681424
H    -3.833938  1.994977  -1.034347
