28
Energy: -19698.2222299 eV PBE+vdW (tier 2 basis)
C    -0.922040  -0.455699  -0.180053
C    -0.639608  -0.319501  1.303440
O    0.444207  0.076530  1.731148
H    -0.198263  -1.156288  -0.615189
H    -0.760866  0.517598  -0.659443
H    -1.937857  -0.802950  -0.405616
N    -1.667693  -0.686674  2.128751
C    -1.589434  -0.571701  3.577123
C    -1.958300  -1.909297  4.255503
O    -2.912654  -2.005566  5.026202
H    -2.550033  -0.997139  1.733302
H    -0.527235  -0.364536  3.782335
C    -2.405156  0.607576  4.146142
C    -3.758691  0.922129  3.475548
C    -4.800728  -0.168206  3.567108
O    -5.709229  -0.228384  4.360687
O    -4.627404  -1.117002  2.581662
H    -1.789920  1.512551  4.047831
H    -2.563120  0.425483  5.216465
H    -3.597080  1.168359  2.416346
H    -4.186062  1.805179  3.964092
N    -1.166799  -2.985360  3.973644
C    0.019866  -3.065872  3.137786
H    -1.483859  -3.834806  4.430892
H    0.565110  -2.115373  3.125900
H    -0.220289  -3.331226  2.096363
H    0.690387  -3.831809  3.545533
H    -5.286391  -1.812420  2.771052
