28
Energy: -19698.1250982 eV PBE+vdW (tier 2 basis)
C    -0.116135  0.328982  -0.009413
C    0.008052  -0.187108  1.409868
O    1.070610  -0.138719  2.022200
H    -0.199097  1.423962  0.022890
H    -0.971031  -0.060651  -0.571558
H    0.813228  0.087222  -0.535881
N    -1.104008  -0.748741  2.016359
C    -2.504797  -0.757739  1.584435
C    -2.781529  -1.717510  0.398768
O    -3.827272  -1.650807  -0.244236
H    -0.920682  -0.975573  2.989995
H    -3.051114  -1.227096  2.420002
C    -3.078044  0.667378  1.418362
C    -4.589384  0.768699  1.188529
C    -4.957994  0.877953  -0.276714
O    -4.251555  1.340134  -1.148566
O    -6.236447  0.474046  -0.500154
H    -2.577806  1.186532  0.590945
H    -2.810546  1.203313  2.338977
H    -4.968122  1.691746  1.658151
H    -5.149595  -0.058782  1.640542
N    -1.830658  -2.666763  0.194523
C    -1.945697  -3.682778  -0.832316
H    -0.999948  -2.622230  0.774565
H    -1.140151  -3.590413  -1.574202
H    -2.909127  -3.542023  -1.333715
H    -1.912015  -4.690755  -0.396494
H    -6.392303  0.604718  -1.455369
