28
Energy: -19697.6556849 eV PBE+vdW (tier 2 basis)
C    -0.852924  0.815674  -0.513291
C    -0.165061  0.585486  0.816104
O    1.060134  0.576243  0.912923
H    -0.104650  1.206353  -1.207577
H    -1.685903  1.526268  -0.452376
H    -1.244361  -0.134164  -0.901692
N    -0.932120  0.367734  1.938834
C    -2.374510  0.367608  2.170473
C    -3.134044  -0.352245  1.020253
O    -2.823132  -1.516684  0.782883
H    -0.352831  0.196642  2.756556
H    -2.530005  -0.383579  2.961471
C    -2.871243  1.700321  2.784996
C    -2.310148  2.987764  2.174121
C    -0.872085  3.237285  2.589731
O    -0.426434  3.066437  3.705365
O    -0.130511  3.714646  1.556484
H    -2.565370  1.695532  3.841595
H    -3.968852  1.716616  2.796738
H    -2.891612  3.843766  2.551143
H    -2.378596  3.018889  1.081828
N    -4.198072  0.204925  0.355527
C    -4.632118  1.578904  0.150694
H    -4.577114  -0.476178  -0.296795
H    -5.457672  1.560262  -0.568399
H    -3.841956  2.216126  -0.272207
H    -5.007501  2.046770  1.068392
H    0.784035  3.803745  1.890333
