28
Energy: -19697.9959818 eV PBE+vdW (tier 2 basis)
C    -0.886647  -0.309623  -0.559715
C    -0.735346  -0.228759  0.947581
O    0.021775  -0.961388  1.575946
H    -1.524172  0.475219  -0.985377
H    -1.306959  -1.289999  -0.818273
H    0.108168  -0.249253  -1.016420
N    -1.500009  0.734482  1.564795
C    -1.595060  0.794709  3.023951
C    -2.878642  1.481652  3.497254
O    -3.562307  0.937503  4.374966
H    -2.241128  1.162722  1.022402
H    -1.686631  -0.234826  3.398661
C    -0.331922  1.406119  3.682989
C    -0.459815  1.585151  5.208129
C    -1.139926  2.895675  5.603362
O    -0.621917  3.977145  5.423841
O    -2.364742  2.818631  6.186860
H    -0.077664  2.369864  3.222514
H    0.491997  0.716476  3.464311
H    0.549588  1.644843  5.635657
H    -0.955097  0.714439  5.661043
N    -3.238045  2.694820  2.989477
C    -2.419192  3.690315  2.301414
H    -4.067087  3.055520  3.458020
H    -1.945592  4.378516  3.017143
H    -3.052419  4.266318  1.615630
H    -1.631727  3.208569  1.715414
H    -2.759938  1.936525  6.019162
