28
Energy: -19698.252312 eV PBE+vdW (tier 2 basis)
C    0.012889  0.104744  0.108913
C    -0.024251  0.127222  1.623784
O    0.993939  0.266346  2.301886
H    0.520443  1.010587  -0.243686
H    -0.978128  0.043683  -0.356775
H    0.613769  -0.754338  -0.215395
N    -1.269189  -0.002599  2.181253
C    -1.468935  -0.100667  3.620478
C    -1.760809  -1.573371  3.972325
O    -2.820305  -2.097250  3.625400
H    -2.051426  -0.260867  1.588130
H    -0.527164  0.240503  4.066004
C    -2.626243  0.785673  4.097656
C    -2.354119  2.278370  3.843243
C    -3.574097  3.105881  4.167332
O    -4.510021  3.305464  3.421823
O    -3.534541  3.593923  5.442882
H    -2.780498  0.609772  5.172361
H    -3.551155  0.471144  3.593431
H    -2.123425  2.434840  2.782030
H    -1.499718  2.618154  4.442731
N    -0.799126  -2.260675  4.646436
C    0.514878  -1.800406  5.081366
H    -1.060111  -3.221536  4.847674
H    0.465143  -1.220417  6.015894
H    1.000143  -1.194613  4.305847
H    1.143668  -2.678986  5.263153
H    -4.374478  4.077495  5.568701
