28
Energy: -19698.0506931 eV PBE+vdW (tier 2 basis)
C    0.228031  -1.123044  0.359231
C    -0.034874  -0.065454  1.414525
O    0.855842  0.426889  2.099869
H    0.823488  -0.673935  -0.446167
H    -0.682433  -1.554902  -0.074671
H    0.831882  -1.923289  0.802982
N    -1.345376  0.309182  1.565869
C    -1.738787  1.380187  2.466374
C    -1.394946  1.183295  3.951945
O    -1.145249  2.201667  4.620535
H    -2.052831  -0.107001  0.971776
H    -1.167146  2.285552  2.211709
C    -3.241149  1.674488  2.268712
C    -3.812041  2.817524  3.135677
C    -4.428007  2.337482  4.454563
O    -5.550739  1.880002  4.504664
O    -3.677762  2.452079  5.571343
H    -3.834806  0.761892  2.437300
H    -3.369209  1.940632  1.208981
H    -4.642177  3.280448  2.589467
H    -3.046669  3.586975  3.303739
N    -1.468361  -0.026557  4.549717
C    -1.823376  -1.333272  4.017797
H    -1.235292  0.023113  5.537474
H    -2.090691  -1.978040  4.862066
H    -0.990722  -1.800832  3.473522
H    -2.696050  -1.277942  3.358388
H    -2.732968  2.635357  5.332080
