28
Energy: -19698.1320616 eV PBE+vdW (tier 2 basis)
C    1.447760  0.054970  0.055721
C    0.794913  -0.376937  1.345959
O    1.456612  -0.841811  2.287347
H    0.739420  0.403060  -0.704955
H    2.022585  -0.788185  -0.346735
H    2.155186  0.862391  0.283402
N    -0.557252  -0.260474  1.406250
C    -1.329508  -0.410139  2.640514
C    -0.672097  0.455289  3.756354
O    -0.290818  1.591648  3.497514
H    -1.011305  0.218248  0.638573
H    -2.270397  0.128475  2.446351
C    -1.750443  -1.856485  2.971777
C    -0.649712  -2.903550  3.247629
C    -0.200322  -3.645130  1.985295
O    -0.929754  -4.413336  1.395982
O    1.068083  -3.430868  1.571540
H    -2.375187  -2.228871  2.146653
H    -2.428659  -1.799555  3.837209
H    -1.074247  -3.686490  3.890873
H    0.206064  -2.459175  3.770346
N    -0.657025  -0.073407  5.009503
C    -0.076911  0.640291  6.133165
H    -0.867784  -1.056045  5.124213
H    -0.648059  0.432187  7.045961
H    -0.116867  1.711804  5.913131
H    0.975104  0.360606  6.294136
H    1.424908  -2.621858  2.017398
