28
Energy: -19697.7662646 eV PBE+vdW (tier 2 basis)
C    -0.264407  -0.989641  0.274037
C    -0.081384  -0.347181  1.635520
O    0.982070  -0.414516  2.244124
H    0.654726  -1.530953  0.036033
H    -0.441183  -0.236011  -0.505124
H    -1.106703  -1.694088  0.267885
N    -1.142194  0.343104  2.183481
C    -2.530183  0.461329  1.730072
C    -3.219406  -0.937700  1.722783
O    -3.221373  -1.564014  2.780003
H    -0.956542  0.605916  3.146092
H    -3.046764  0.932108  2.580707
C    -2.696861  1.418983  0.540008
C    -2.160855  2.812465  0.857489
C    -2.196689  3.734665  -0.338109
O    -2.402612  3.404903  -1.488077
O    -1.947519  5.024629  0.023407
H    -3.763666  1.493034  0.286989
H    -2.192595  1.050035  -0.359741
H    -1.113261  2.754113  1.194492
H    -2.709730  3.288758  1.683900
N    -3.841889  -1.464794  0.622192
C    -3.932536  -1.052684  -0.772678
H    -4.265462  -2.358293  0.856122
H    -2.951035  -0.832208  -1.208982
H    -4.585995  -0.182138  -0.919040
H    -4.360812  -1.888793  -1.335566
H    -1.960803  5.543657  -0.804319
