28
Energy: -19698.4427031 eV PBE+vdW (tier 2 basis)
C    0.373893  0.135057  0.459390
C    -0.449655  -0.757656  1.358835
O    -0.160606  -1.946764  1.549933
H    1.391174  0.197837  0.866292
H    -0.031843  1.148160  0.355321
H    0.446581  -0.328856  -0.531596
N    -1.527272  -0.172982  1.953539
C    -2.377731  -0.876094  2.910811
C    -3.429844  -1.770862  2.199606
O    -4.649384  -1.536249  2.258680
H    -1.772586  0.775767  1.691210
H    -1.710123  -1.570244  3.443469
C    -3.029586  0.072468  3.936040
C    -3.297198  1.523390  3.505888
C    -4.083607  1.861519  2.230863
O    -3.869675  2.907582  1.647065
O    -5.043839  1.024646  1.817875
H    -2.373562  0.124052  4.815448
H    -3.960527  -0.402504  4.271233
H    -2.360083  2.091413  3.433403
H    -3.858674  2.010179  4.319428
N    -2.897411  -2.820130  1.550492
C    -3.682073  -3.756400  0.766612
H    -1.871414  -2.873019  1.543520
H    -4.733751  -3.458870  0.820364
H    -3.577003  -4.776439  1.160135
H    -3.357925  -3.748806  -0.282780
H    -4.963274  0.096804  2.195922
