28
Energy: -19698.4894826 eV PBE+vdW (tier 2 basis)
C    0.727480  -0.639793  0.475767
C    -0.079400  0.463413  1.134724
O    -0.350727  1.515858  0.555438
H    1.708427  -0.236984  0.194150
H    0.221521  -0.943236  -0.449074
H    0.870730  -1.521132  1.112609
N    -0.490491  0.205193  2.410314
C    -1.185427  1.187025  3.216356
C    -0.939929  0.797460  4.684318
O    -0.601413  -0.349691  4.989362
H    -0.178343  -0.617271  2.924156
H    -0.748583  2.177181  3.010162
C    -2.694685  1.272917  2.867272
C    -3.477030  -0.020450  3.090231
C    -3.960549  -0.227167  4.509161
O    -4.086466  0.634339  5.357195
O    -4.297255  -1.525789  4.732243
H    -2.746206  1.556746  1.808520
H    -3.159640  2.086489  3.442413
H    -2.901915  -0.902790  2.777835
H    -4.382463  -0.023827  2.462087
N    -1.130386  1.790057  5.587127
C    -1.172958  1.539509  7.017220
H    -1.527731  2.658736  5.248259
H    -0.759380  2.397934  7.559606
H    -0.566022  0.653251  7.226717
H    -2.202075  1.351792  7.357813
H    -4.624082  -1.565768  5.652016
