28
Energy: -19697.9902411 eV PBE+vdW (tier 2 basis)
C    0.783190  -0.714177  0.550820
C    0.470790  -0.565883  2.024803
O    1.300945  -0.871499  2.888105
H    1.704514  -0.161050  0.330768
H    -0.015222  -0.361321  -0.112794
H    0.982533  -1.772184  0.339372
N    -0.757301  -0.061571  2.322043
C    -1.290163  0.178138  3.667293
C    -0.291570  0.836306  4.655185
O    -0.206793  0.432212  5.807373
H    -1.374449  0.134857  1.543310
H    -2.075135  0.941007  3.525616
C    -1.992596  -1.054645  4.272631
C    -1.228793  -2.391467  4.286862
C    -0.244823  -2.598691  5.445615
O    -0.603478  -3.065150  6.505827
O    1.049172  -2.306223  5.213708
H    -2.912183  -1.206510  3.687313
H    -2.300499  -0.797001  5.294368
H    -0.735498  -2.564206  3.319445
H    -1.973042  -3.187881  4.410382
N    0.394174  1.947257  4.245427
C    0.397055  2.638450  2.970640
H    1.025299  2.286916  4.964400
H    -0.610905  2.690075  2.539968
H    0.731941  3.669223  3.135819
H    1.070221  2.174979  2.231993
H    1.147573  -1.807849  4.364387
