28
Energy: -19697.9500849 eV PBE+vdW (tier 2 basis)
C    0.213490  0.441115  0.788662
C    -0.341053  -0.367104  1.937124
O    0.366162  -1.072842  2.646152
H    1.272077  0.188951  0.686174
H    0.126451  1.518207  0.987896
H    -0.321244  0.221769  -0.143779
N    -1.702018  -0.273529  2.251453
C    -2.860268  0.160418  1.443013
C    -3.080728  -0.764591  0.223854
O    -2.390022  -0.684113  -0.789679
H    -1.928243  -0.989655  2.939740
H    -3.714661  0.041928  2.127226
C    -2.834495  1.628920  0.993888
C    -2.472666  2.641252  2.096184
C    -3.379507  2.529397  3.315299
O    -4.417256  3.132972  3.449266
O    -2.965642  1.651257  4.278582
H    -3.836608  1.862744  0.605865
H    -2.144649  1.746017  0.149487
H    -2.592914  3.654563  1.695772
H    -1.421125  2.523368  2.394479
N    -4.080520  -1.676471  0.383261
C    -4.420660  -2.658525  -0.630784
H    -4.611774  -1.663507  1.245567
H    -5.462002  -2.541487  -0.959632
H    -4.276278  -3.680811  -0.255524
H    -3.754932  -2.494385  -1.484276
H    -2.158189  1.196283  3.962923
