28
Energy: -19698.4768912 eV PBE+vdW (tier 2 basis)
C    0.123025  0.503990  -0.041399
C    0.041310  0.365729  1.463602
O    1.041977  0.466158  2.184141
H    -0.844856  0.404972  -0.547436
H    0.811245  -0.256614  -0.430482
H    0.551599  1.485334  -0.279736
N    -1.198768  0.129723  1.976057
C    -1.457044  0.020967  3.412478
C    -1.142637  -1.420382  3.906341
O    -2.028814  -2.232573  4.171089
H    -1.976695  -0.017769  1.342779
H    -0.749984  0.710465  3.899967
C    -2.894708  0.434704  3.713126
C    -3.179270  0.531790  5.208970
C    -4.562435  1.058530  5.506636
O    -5.392300  1.402384  4.690969
O    -4.789974  1.112116  6.851222
H    -3.585446  -0.293836  3.264506
H    -3.087173  1.406202  3.236595
H    -2.457236  1.191165  5.717455
H    -3.080605  -0.452180  5.690220
N    0.189141  -1.667132  4.002068
C    0.717168  -2.976016  4.334168
H    0.811685  -0.949890  3.620117
H    1.521488  -2.887602  5.075800
H    1.113024  -3.491678  3.446106
H    -0.096566  -3.577387  4.752637
H    -5.697846  1.457758  6.953248
