28
Energy: -19698.3508228 eV PBE+vdW (tier 2 basis)
C    -0.921114  -0.531484  -0.095081
C    -0.502197  -0.571172  1.358973
O    0.555452  -1.123612  1.704926
H    -1.015296  -1.562623  -0.458253
H    -0.123170  -0.054394  -0.677652
H    -1.864798  -0.001904  -0.268690
N    -1.350789  0.031859  2.224095
C    -1.212752  0.147538  3.666136
C    -2.280395  1.195176  4.079332
O    -3.022134  1.710313  3.240303
H    -2.154753  0.559730  1.875990
H    -1.504384  -0.809553  4.136741
C    0.217599  0.473869  4.150354
C    0.887786  1.657226  3.428676
C    2.388107  1.457996  3.224124
O    3.224512  2.224130  3.651151
O    2.745592  0.361720  2.517677
H    0.812770  -0.436315  4.025145
H    0.195019  0.667303  5.232528
H    0.750168  2.595613  3.975829
H    0.432898  1.793783  2.435041
N    -2.349261  1.465483  5.404762
C    -3.295948  2.409783  5.972491
H    -1.691022  1.008899  6.024736
H    -3.920773  1.925466  6.734532
H    -3.935274  2.770649  5.161101
H    -2.777598  3.265649  6.425931
H    1.956740  -0.171574  2.232529
