28
Energy: -19698.3247109 eV PBE+vdW (tier 2 basis)
C    2.209696  0.145263  2.298065
C    1.175364  0.725341  3.231998
O    1.497100  1.309495  4.283016
H    1.781608  -0.468861  1.497523
H    2.919149  -0.451740  2.882440
H    2.768489  0.976739  1.847485
N    -0.113671  0.624285  2.831853
C    -1.239247  1.000892  3.666979
C    -2.341228  -0.036313  3.383303
O    -2.346503  -0.666679  2.324071
H    -0.372639  0.056109  2.025117
H    -0.897238  0.944962  4.711568
C    -1.781586  2.423942  3.395911
C    -0.840096  3.563679  3.829417
C    0.161821  3.983312  2.751898
O    -0.182858  4.561130  1.743684
O    1.467446  3.718612  2.987602
H    -2.729987  2.533534  3.940371
H    -2.024157  2.523746  2.327929
H    -0.339932  3.306354  4.772763
H    -1.447502  4.461182  4.007361
N    -3.311066  -0.211951  4.321381
C    -3.462197  0.435097  5.613380
H    -4.037334  -0.858223  4.026402
H    -3.954441  -0.257631  6.305861
H    -4.064872  1.354864  5.556768
H    -2.485046  0.687806  6.039490
H    1.552970  3.051225  3.712941
