28
Energy: -19698.1308244 eV PBE+vdW (tier 2 basis)
C    0.256099  0.657946  0.285024
C    0.103906  0.367636  1.764273
O    1.001594  0.590708  2.572992
H    0.077999  1.730802  0.126475
H    -0.441038  0.092450  -0.345991
H    1.284653  0.438680  -0.018782
N    -1.111654  -0.153761  2.134489
C    -1.563355  -0.200077  3.526218
C    -1.272253  1.162899  4.219582
O    -1.564378  2.206993  3.642323
H    -1.837517  -0.141694  1.428586
H    -2.663245  -0.210130  3.469393
C    -1.171608  -1.491493  4.265376
C    0.342577  -1.802021  4.368119
C    0.727415  -2.439577  5.674342
O    1.240382  -3.522708  5.842703
O    0.433705  -1.605421  6.733522
H    -1.668095  -2.330858  3.758701
H    -1.622618  -1.446093  5.267177
H    0.921461  -0.872271  4.257651
H    0.663198  -2.468842  3.562340
N    -0.797592  1.125836  5.491221
C    -0.492982  2.354209  6.204130
H    -0.451993  0.257270  5.884318
H    0.434577  2.818649  5.836460
H    -0.385254  2.130455  7.271063
H    -1.308277  3.072693  6.062810
H    0.714966  -2.080645  7.538332
