28
Energy: -19698.2095609 eV PBE+vdW (tier 2 basis)
C    0.476660  -2.306972  0.680545
C    -0.595640  -2.190995  1.741481
O    -1.468061  -3.054973  1.890297
H    1.026411  -3.242843  0.840504
H    1.187655  -1.472137  0.677752
H    -0.003300  -2.374745  -0.303619
N    -0.541531  -1.078378  2.527742
C    -1.470262  -0.835657  3.630790
C    -2.787165  -0.178098  3.127556
O    -3.083527  0.984812  3.393395
H    0.130173  -0.350500  2.308086
H    -1.728293  -1.829434  4.030686
C    -0.801964  0.014644  4.708327
C    0.325447  -0.739961  5.436712
C    1.148301  0.206538  6.296370
O    2.104804  0.823051  5.894154
O    0.723381  0.377744  7.587271
H    -1.574402  0.347011  5.414002
H    -0.406165  0.935727  4.254480
H    1.016772  -1.183920  4.709162
H    -0.095555  -1.563636  6.034823
N    -3.546337  -1.026432  2.386690
C    -4.778408  -0.614229  1.743308
H    -3.146936  -1.946781  2.185253
H    -4.666802  -0.570389  0.649783
H    -5.036918  0.384266  2.111178
H    -5.593370  -1.309512  1.984915
H    -0.049969  -0.187202  7.755357
