28
Energy: -19697.7633513 eV PBE+vdW (tier 2 basis)
C    -0.223119  0.411240  -0.251492
C    0.027239  0.304071  1.239683
O    1.158199  0.386867  1.711660
H    0.747072  0.375865  -0.753794
H    -0.854643  -0.402632  -0.629320
H    -0.702846  1.369774  -0.492547
N    -1.052031  0.122367  2.072974
C    -2.482499  0.082467  1.775941
C    -2.825857  -1.169974  0.911773
O    -2.515330  -2.266863  1.367111
H    -0.775470  -0.011778  3.040503
H    -2.945191  -0.207560  2.731909
C    -3.063846  1.465260  1.425367
C    -2.899524  2.476280  2.572039
C    -1.472800  2.855123  2.914807
O    -0.985004  2.809171  4.023480
O    -0.789719  3.308545  1.824049
H    -4.139810  1.357465  1.227737
H    -2.610624  1.877735  0.516557
H    -3.358378  2.103628  3.496478
H    -3.422567  3.405503  2.297807
N    -3.493906  -1.098059  -0.283554
C    -3.868499  0.007532  -1.153927
H    -3.665688  -2.032605  -0.643455
H    -4.731611  0.573852  -0.776816
H    -4.147796  -0.415310  -2.124939
H    -3.038083  0.702210  -1.326906
H    0.125637  3.467155  2.127821
