28
Energy: -19698.1407127 eV PBE+vdW (tier 2 basis)
C    0.279674  -0.869019  0.026272
C    0.077276  0.028968  1.229379
O    0.880467  0.906990  1.527429
H    -0.135618  -1.876685  0.141586
H    1.354121  -0.931582  -0.169875
H    -0.196785  -0.406450  -0.849390
N    -1.048438  -0.164622  2.013023
C    -2.221170  -1.006892  1.764852
C    -1.913354  -2.525049  1.874822
O    -2.581652  -3.361000  1.269697
H    -1.144494  0.563109  2.715916
H    -2.890019  -0.803217  2.617839
C    -2.997060  -0.656232  0.478028
C    -4.480931  -1.036073  0.556276
C    -5.313056  -0.608852  -0.628749
O    -6.451546  -0.193391  -0.573040
O    -4.651474  -0.764823  -1.813951
H    -2.541404  -1.151632  -0.387179
H    -2.899856  0.428099  0.323984
H    -4.961403  -0.605957  1.445048
H    -4.563845  -2.131118  0.637292
N    -0.900826  -2.835519  2.726731
C    -0.482239  -4.198793  2.987210
H    -0.368905  -2.061708  3.110902
H    -0.491176  -4.411806  4.064512
H    0.527786  -4.389378  2.596973
H    -1.188118  -4.867197  2.483091
H    -5.285788  -0.491983  -2.505040
