28
Energy: -19698.324793 eV PBE+vdW (tier 2 basis)
C    0.016522  -0.047342  -0.307187
C    0.093925  -0.233888  1.193706
O    1.137555  -0.509934  1.776422
H    1.026396  -0.157560  -0.710016
H    -0.370542  0.946423  -0.573596
H    -0.646277  -0.792635  -0.769030
N    -1.072762  -0.048753  1.917801
C    -2.432923  0.023247  1.399538
C    -3.200509  1.259911  1.921940
O    -4.425224  1.345236  1.819303
H    -0.962763  -0.325569  2.892399
H    -2.354513  0.163139  0.313078
C    -3.202079  -1.293924  1.653393
C    -4.442703  -1.509752  0.786257
C    -4.136902  -1.729195  -0.674019
O    -3.037318  -1.700643  -1.195796
O    -5.269938  -1.972065  -1.387988
H    -3.502360  -1.337999  2.710876
H    -2.491763  -2.114779  1.482749
H    -5.126653  -0.652744  0.870101
H    -5.010323  -2.384528  1.137729
N    -2.418810  2.233534  2.457297
C    -2.949249  3.492742  2.939593
H    -1.420239  2.052397  2.484987
H    -2.567438  4.337835  2.349564
H    -2.689215  3.652303  3.994902
H    -4.039445  3.454435  2.840998
H    -4.983246  -2.094204  -2.313913
