28
Energy: -19698.1798216 eV PBE+vdW (tier 2 basis)
C    0.017499  1.157746  1.111543
C    -0.134062  -0.126139  1.900085
O    0.836451  -0.777928  2.273076
H    0.043906  2.007701  1.808505
H    0.978618  1.120011  0.590379
H    -0.789060  1.335121  0.390770
N    -1.411434  -0.571926  2.198190
C    -2.711231  0.073391  2.001671
C    -3.183312  0.117072  0.522359
O    -4.068681  0.889408  0.165601
H    -1.388057  -1.388352  2.802478
H    -3.431195  -0.603492  2.491038
C    -2.871364  1.454423  2.660024
C    -2.536991  1.428988  4.158314
C    -2.677583  2.793096  4.790405
O    -3.524593  3.124883  5.591310
O    -1.716347  3.654093  4.337691
H    -3.909664  1.770889  2.501529
H    -2.245754  2.195923  2.148548
H    -1.502937  1.083904  4.308143
H    -3.207805  0.749662  4.699043
N    -2.585180  -0.789202  -0.295582
C    -2.929028  -0.928509  -1.696852
H    -1.847036  -1.358552  0.103910
H    -3.734481  -0.218893  -1.913798
H    -2.068795  -0.701555  -2.342078
H    -3.278879  -1.946035  -1.918724
H    -1.894115  4.507800  4.777765
