28
Energy: -19698.020922 eV PBE+vdW (tier 2 basis)
C    -0.616466  -0.223444  -0.745053
C    -0.074766  -0.557046  0.629491
O    1.066330  -0.973032  0.815674
H    -0.893671  0.836969  -0.827092
H    -1.515680  -0.814220  -0.969809
H    0.159718  -0.450588  -1.479900
N    -0.932531  -0.389435  1.693714
C    -2.232056  0.259227  1.689516
C    -2.232446  1.804717  1.578202
O    -3.093276  2.345081  0.885241
H    -0.501947  -0.612803  2.586931
H    -2.766137  -0.042989  0.779217
C    -3.065782  -0.188472  2.901905
C    -3.436416  -1.686266  2.882898
C    -4.470508  -1.992086  1.821960
O    -5.668171  -1.861434  1.951446
O    -3.897951  -2.414153  0.654452
H    -3.981468  0.417091  2.938087
H    -2.511833  0.022507  3.830342
H    -3.881233  -1.955516  3.848259
H    -2.541901  -2.301064  2.720949
N    -1.298103  2.545002  2.244791
C    -0.238360  2.139762  3.157419
H    -1.406667  3.539248  2.069875
H    -0.606077  1.459753  3.937948
H    0.130526  3.037502  3.665585
H    0.608151  1.665308  2.642003
H    -4.638008  -2.553946  0.030864
