28
Energy: -19698.2487358 eV PBE+vdW (tier 2 basis)
C    -0.420605  -1.227469  0.240363
C    -0.490103  -0.349424  1.472788
O    0.450177  0.343782  1.851666
H    0.591538  -1.631466  0.139539
H    -0.625568  -0.598469  -0.637861
H    -1.147415  -2.049898  0.253499
N    -1.698342  -0.366366  2.125539
C    -2.023638  0.588789  3.177122
C    -2.682646  -0.138572  4.365776
O    -3.850162  0.071432  4.696763
H    -2.443364  -0.945218  1.752634
H    -1.050051  0.988201  3.500767
C    -2.863078  1.773959  2.669155
C    -4.096127  1.389719  1.835169
C    -3.744727  0.948434  0.432311
O    -3.063574  1.561718  -0.361480
O    -4.306249  -0.264991  0.117247
H    -2.210483  2.418723  2.064558
H    -3.193947  2.354254  3.539500
H    -4.727431  2.283125  1.715718
H    -4.700845  0.631715  2.344547
N    -1.904075  -1.031994  5.044146
C    -0.525851  -1.422656  4.795399
H    -2.408601  -1.513185  5.782729
H    -0.062659  -1.715817  5.745039
H    -0.451116  -2.267148  4.092967
H    0.054898  -0.590557  4.382104
H    -4.060250  -0.431690  -0.814178
