28
Energy: -19698.1951305 eV PBE+vdW (tier 2 basis)
C    -0.319928  0.105118  0.136365
C    0.287789  -0.450215  1.408039
O    1.328163  -1.101499  1.416829
H    -0.346741  1.202699  0.164607
H    -1.349308  -0.252204  -0.010970
H    0.296314  -0.228825  -0.702172
N    -0.389361  -0.222448  2.590197
C    -1.509079  0.679380  2.830501
C    -0.971123  2.103659  3.131369
O    -0.732947  2.871531  2.198648
H    0.131090  -0.540853  3.405088
H    -2.052083  0.793827  1.883770
C    -2.453749  0.051914  3.867036
C    -3.691495  0.897562  4.204624
C    -3.712722  1.424697  5.621959
O    -2.779929  1.419152  6.404581
O    -4.926482  1.936025  5.943375
H    -1.904531  -0.171745  4.794733
H    -2.765912  -0.920249  3.464317
H    -4.623273  0.338704  4.046517
H    -3.774157  1.778070  3.545822
N    -0.715582  2.390397  4.435456
C    -0.158132  3.663160  4.855034
H    -1.077988  1.774274  5.159844
H    -0.860282  4.204255  5.504772
H    0.034380  4.259063  3.957017
H    0.784876  3.518247  5.399855
H    -4.851124  2.274455  6.857063
