28
Energy: -19697.9916644 eV PBE+vdW (tier 2 basis)
C    0.407092  -0.096769  0.100862
C    0.242781  0.360595  1.539840
O    1.061781  1.081349  2.099120
H    -0.471891  -0.609787  -0.309098
H    1.268194  -0.775486  0.046716
H    0.638981  0.775306  -0.521415
N    -0.896852  -0.078223  2.165638
C    -1.182780  0.129836  3.584722
C    -0.858412  1.569091  4.068978
O    -0.166608  1.762474  5.062967
H    -1.499784  -0.717687  1.661992
H    -2.275851  0.010160  3.688817
C    -0.489000  -0.924557  4.463373
C    -1.093025  -1.028609  5.871570
C    -0.580415  -2.205671  6.663689
O    -1.267443  -3.044479  7.210956
O    0.783131  -2.234942  6.715582
H    0.579463  -0.685563  4.525056
H    -0.586635  -1.892688  3.949071
H    -2.185317  -1.131576  5.831681
H    -0.854777  -0.109215  6.426110
N    -1.472564  2.609016  3.426687
C    -2.275634  2.608756  2.218924
H    -1.163853  3.508675  3.781980
H    -1.668978  2.565951  1.300579
H    -2.871795  3.528859  2.197280
H    -2.976807  1.765334  2.209860
H    1.009181  -3.016972  7.255378
