28
Energy: -19697.9890584 eV PBE+vdW (tier 2 basis)
C    -1.784706  0.403987  0.787089
C    -0.890430  0.331949  2.013491
O    0.319596  0.520617  1.957532
H    -1.468038  -0.369834  0.076520
H    -1.633712  1.374949  0.299962
H    -2.852777  0.272551  1.001524
N    -1.534306  0.052235  3.191345
C    -0.849840  -0.107601  4.473440
C    0.124027  1.063865  4.784254
O    1.283675  0.856679  5.124141
H    -2.531749  -0.117964  3.165646
H    -1.640023  -0.054143  5.240329
C    -0.120907  -1.460797  4.600159
C    -0.203708  -2.103184  6.000980
C    0.295897  -1.200862  7.106959
O    -0.377805  -0.360241  7.672669
O    1.598453  -1.429335  7.408078
H    0.926936  -1.319359  4.310507
H    -0.577987  -2.160248  3.887763
H    0.375953  -3.034617  5.998911
H    -1.248991  -2.344834  6.238860
N    -0.383026  2.330735  4.740330
C    -1.733218  2.780564  4.463548
H    0.318133  3.035340  4.943139
H    -1.948312  2.853457  3.386204
H    -1.867887  3.772951  4.909729
H    -2.476671  2.116346  4.923269
H    1.852008  -0.739399  8.051661
