28
Energy: -19697.999786 eV PBE+vdW (tier 2 basis)
C    0.027504  0.130821  -0.168278
C    -0.006807  0.324758  1.337426
O    0.889799  0.922720  1.930450
H    0.984919  -0.329583  -0.439783
H    -0.009182  1.117765  -0.646873
H    -0.790786  -0.485182  -0.560264
N    -1.090413  -0.228987  1.964519
C    -1.434289  -0.101349  3.385269
C    -2.150712  1.259300  3.639250
O    -3.352428  1.313591  3.361083
H    -1.833824  -0.576315  1.370752
H    -2.271268  -0.800237  3.522668
C    -0.314931  -0.559583  4.329957
C    -0.820242  -0.641643  5.784504
C    0.330434  -0.879225  6.731541
O    1.026283  -0.014355  7.222116
O    0.541208  -2.208365  6.957577
H    0.561074  0.090510  4.262734
H    0.009742  -1.556303  3.997998
H    -1.564201  -1.442855  5.885761
H    -1.289471  0.305189  6.081114
N    -1.505380  2.348939  4.137045
C    -0.102638  2.597292  4.462288
H    -2.146186  3.130658  4.241590
H    0.047025  3.682623  4.474477
H    0.554821  2.172590  3.696095
H    0.175159  2.206616  5.452656
H    1.322713  -2.259740  7.542235
