28
Energy: -19697.9675509 eV PBE+vdW (tier 2 basis)
C    0.118072  -0.185379  0.058921
C    0.078012  0.196718  1.528219
O    0.837173  1.048997  1.990249
H    1.142263  -0.482301  -0.197039
H    -0.124704  0.702578  -0.538397
H    -0.568311  -0.996245  -0.213245
N    -0.841276  -0.486775  2.274678
C    -1.163694  -0.277684  3.691623
C    -2.194509  0.881033  3.838266
O    -3.383555  0.593620  3.679529
H    -1.489890  -1.078099  1.769499
H    -1.792561  -1.140147  3.949196
C    0.064507  -0.338726  4.612768
C    -0.300638  -0.292119  6.100579
C    -1.122782  -1.438964  6.652630
O    -1.890510  -1.356278  7.586191
O    -0.879718  -2.621270  6.009410
H    0.773583  0.462113  4.387131
H    0.584572  -1.280401  4.389598
H    -0.840738  0.624867  6.369242
H    0.628585  -0.280479  6.693154
N    -1.826192  2.162598  4.116978
C    -0.520033  2.791325  4.267865
H    -2.640630  2.765604  4.193394
H    -0.628900  3.857375  4.037570
H    0.200224  2.365969  3.560799
H    -0.132179  2.707904  5.295555
H    -1.434664  -3.283661  6.465280
