28
Energy: -19698.2526416 eV PBE+vdW (tier 2 basis)
C    1.234815  -2.126557  1.710877
C    0.887550  -0.748814  2.221154
O    1.791074  0.054749  2.534247
H    2.005577  -2.035835  0.937262
H    0.379165  -2.683961  1.312498
H    1.667670  -2.694361  2.546230
N    -0.432176  -0.474632  2.336787
C    -1.136274  0.696263  2.905031
C    -0.829294  2.104663  2.327729
O    -1.750328  2.922711  2.313432
H    -1.050773  -1.219964  2.038639
H    -2.176190  0.553879  2.584699
C    -1.181550  0.731557  4.450229
C    0.162723  0.799124  5.198762
C    0.692770  -0.580475  5.590225
O    0.080142  -1.327226  6.321278
O    1.912255  -0.937120  5.111456
H    -1.738713  -0.143069  4.816159
H    -1.787366  1.613586  4.697604
H    -0.005820  1.310843  6.156591
H    0.903231  1.389966  4.645804
N    0.422776  2.371141  1.899800
C    0.776992  3.682917  1.387884
H    1.146466  1.663410  2.066800
H    0.022429  4.023957  0.668723
H    1.749850  3.616465  0.889420
H    0.835961  4.433372  2.190639
H    2.153502  -0.350922  4.358887
