28
Energy: -19698.1773036 eV PBE+vdW (tier 2 basis)
C    -2.533038  -2.945629  0.587934
C    -1.877418  -1.899569  1.466059
O    -1.336236  -0.891771  1.002912
H    -2.963188  -3.783485  1.149491
H    -1.786207  -3.331343  -0.117019
H    -3.323001  -2.465938  -0.003231
N    -1.920760  -2.140177  2.807436
C    -1.326877  -1.228298  3.760435
C    -1.178208  -2.001995  5.079362
O    -1.948189  -2.919342  5.364887
H    -2.379377  -2.955410  3.208037
H    -0.341493  -0.921461  3.371759
C    -2.194273  0.045692  3.931018
C    -1.435361  1.238457  4.530650
C    -2.200318  2.549722  4.409593
O    -2.614289  3.188282  5.346034
O    -2.409482  2.997851  3.133680
H    -3.081313  -0.190920  4.535599
H    -2.548580  0.296724  2.922201
H    -0.467978  1.353856  4.011091
H    -1.231957  1.092789  5.597624
N    -0.177480  -1.574550  5.893541
C    0.062366  -2.132736  7.212878
H    0.445141  -0.853851  5.548644
H    -0.722937  -2.869552  7.408651
H    0.022827  -1.350407  7.982508
H    1.039181  -2.633184  7.260834
H    -2.026554  2.375246  2.489392
