28
Energy: -19698.2382641 eV PBE+vdW (tier 2 basis)
C    -1.533635  -0.294197  -0.157306
C    -0.932214  -0.096730  1.220987
O    0.246490  -0.322630  1.471580
H    -0.817722  0.052220  -0.910238
H    -2.492627  0.219330  -0.300018
H    -1.688423  -1.369761  -0.320031
N    -1.806218  0.362317  2.184509
C    -1.481751  0.398229  3.610569
C    -0.476906  1.494298  4.013252
O    -0.012014  1.489758  5.163328
H    -2.782910  0.451975  1.930856
H    -2.416168  0.715155  4.102308
C    -1.058662  -0.972979  4.205680
C    -2.049432  -1.559578  5.212121
C    -2.302015  -0.863771  6.558238
O    -3.185901  -1.266562  7.287221
O    -1.520302  0.162878  6.933065
H    -0.063111  -0.878009  4.655777
H    -0.941427  -1.680930  3.376815
H    -1.724579  -2.576045  5.482178
H    -3.042434  -1.691635  4.756320
N    -0.208646  2.454593  3.111548
C    0.732481  3.531417  3.359826
H    -0.568998  2.315954  2.174562
H    0.325861  4.481694  2.992662
H    1.696582  3.338447  2.867913
H    0.896319  3.599950  4.439630
H    -0.889315  0.502522  6.232103
