28
Energy: -19698.4498798 eV PBE+vdW (tier 2 basis)
C    -1.130564  -2.339813  1.523406
C    -1.317597  -0.925784  2.039517
O    -1.867319  -0.048522  1.373237
H    -0.609538  -3.000434  2.226967
H    -0.567158  -2.298887  0.583122
H    -2.115957  -2.765061  1.295832
N    -0.841799  -0.693943  3.298604
C    -0.881457  0.620849  3.905158
C    0.353041  0.728669  4.815356
O    0.808977  -0.266939  5.382792
H    -0.318506  -1.395571  3.816696
H    -0.836257  1.358552  3.091154
C    -2.200870  0.810179  4.695205
C    -2.437050  2.200322  5.322519
C    -2.607955  3.287866  4.288647
O    -3.652496  3.658436  3.807009
O    -1.400497  3.835849  3.907032
H    -2.228747  0.060671  5.499112
H    -3.023895  0.581240  4.004580
H    -1.618314  2.461871  6.006060
H    -3.368554  2.167756  5.899376
N    0.862860  1.979574  4.947430
C    1.981008  2.285137  5.820073
H    0.401867  2.735568  4.448069
H    1.688903  2.996825  6.605126
H    2.819573  2.710653  5.252065
H    2.306188  1.350281  6.287878
H    -1.613883  4.482656  3.205976
