28
Energy: -19698.6177481 eV PBE+vdW (tier 2 basis)
C    0.861544  -1.502036  1.069463
C    0.284420  -0.793820  2.280141
O    0.993239  -0.432819  3.225477
H    1.320938  -2.442542  1.399177
H    1.658838  -0.881382  0.642677
H    0.118748  -1.719386  0.292743
N    -1.057111  -0.578165  2.249317
C    -1.790699  -0.025652  3.367656
C    -3.273955  -0.385833  3.129396
O    -3.647851  -0.884383  2.063091
H    -1.657904  -0.962649  1.518701
H    -1.462937  -0.538831  4.287048
C    -1.570897  1.506091  3.554634
C    -0.673009  1.857258  4.738990
C    -1.318153  1.644193  6.081672
O    -2.424536  1.167474  6.291381
O    -0.518566  2.048805  7.098407
H    -2.538764  2.016196  3.655404
H    -1.108222  1.886560  2.635636
H    -0.343447  2.906201  4.695507
H    0.247126  1.250180  4.700142
N    -4.083740  -0.110251  4.175671
C    -5.513599  -0.345661  4.146415
H    -3.657152  0.316058  5.002014
H    -6.075082  0.597676  4.210375
H    -5.818971  -0.992499  4.980175
H    -5.759126  -0.840560  3.201214
H    -1.007130  1.860776  7.923475
