28
Energy: -19698.0428772 eV PBE+vdW (tier 2 basis)
C    0.171767  -0.332568  0.368123
C    0.002908  -0.490291  1.864204
O    0.921941  -0.814495  2.613005
H    1.212433  -0.555120  0.119908
H    -0.069537  0.686746  0.035257
H    -0.489451  -1.023013  -0.174806
N    -1.257098  -0.270884  2.375920
C    -2.415464  0.258056  1.681758
C    -2.502341  1.796574  1.526215
O    -2.998950  2.254831  0.497819
H    -1.301669  -0.396712  3.383260
H    -2.370076  -0.084982  0.640762
C    -3.718475  -0.282030  2.295965
C    -3.885614  -1.808897  2.136109
C    -4.014048  -2.199561  0.682360
O    -3.088469  -2.391781  -0.080440
O    -5.316535  -2.274298  0.289633
H    -4.564122  0.239325  1.827301
H    -3.754400  -0.039378  3.370077
H    -4.776517  -2.135224  2.685733
H    -3.007244  -2.327572  2.540455
N    -2.047635  2.622563  2.514417
C    -1.511552  2.321779  3.834312
H    -2.156271  3.601694  2.268648
H    -0.491454  1.915912  3.796068
H    -2.152718  1.622571  4.389221
H    -1.487036  3.254588  4.408392
H    -5.299345  -2.479900  -0.665883
