28
Energy: -19698.1899788 eV PBE+vdW (tier 2 basis)
C    -0.593545  -0.759404  -0.090595
C    -0.440214  -0.459219  1.390265
O    0.604479  -0.041734  1.868410
H    -0.248578  0.110860  -0.660803
H    -1.619081  -1.003509  -0.394427
H    0.064717  -1.599627  -0.347234
N    -1.581560  -0.681783  2.144811
C    -1.568484  -0.691233  3.613196
C    -2.934260  -1.117180  4.155864
O    -3.031874  -1.739230  5.223053
H    -2.257797  -1.304833  1.713087
H    -0.844473  -1.437907  3.975546
C    -1.193156  0.693169  4.203039
C    -1.296837  0.803384  5.736182
C    -0.334196  -0.114887  6.496174
O    0.734839  0.267267  6.919443
O    -0.734111  -1.395294  6.673604
H    -1.849729  1.449848  3.746484
H    -0.169530  0.917083  3.882270
H    -2.328657  0.625841  6.074353
H    -1.026538  1.827422  6.017708
N    -4.016346  -0.731920  3.435152
C    -5.381780  -0.963903  3.876777
H    -3.853349  -0.120532  2.641368
H    -5.367726  -1.766597  4.620304
H    -6.007520  -1.263393  3.027691
H    -5.813031  -0.065432  4.341179
H    -1.608648  -1.563512  6.227378
