28
Energy: -19698.1962508 eV PBE+vdW (tier 2 basis)
C    0.206061  -0.270073  0.421371
C    -0.018940  0.696708  1.571623
O    0.911033  1.259342  2.142621
H    -0.340147  0.029783  -0.483962
H    -0.121384  -1.286848  0.682427
H    1.277300  -0.290667  0.206151
N    -1.322627  0.930446  1.948560
C    -2.521318  0.338788  1.377906
C    -3.106688  1.095835  0.161708
O    -4.036200  0.609805  -0.484595
H    -1.452052  1.557865  2.745445
H    -2.268673  -0.657240  0.989769
C    -3.631700  0.130889  2.441146
C    -4.597616  1.297646  2.671844
C    -4.003439  2.557211  3.276296
O    -2.861058  2.690492  3.656423
O    -4.866762  3.605666  3.400251
H    -3.148633  -0.157892  3.384352
H    -4.241152  -0.721305  2.116483
H    -5.401845  0.963773  3.348680
H    -5.097910  1.560495  1.725113
N    -2.550605  2.308141  -0.082879
C    -2.972626  3.168031  -1.170132
H    -1.780224  2.586190  0.518133
H    -3.289142  4.150216  -0.793392
H    -3.817901  2.683154  -1.670625
H    -2.163359  3.314892  -1.898952
H    -5.739073  3.358619  3.046423
