28
Energy: -19698.4230471 eV PBE+vdW (tier 2 basis)
C    1.151493  -0.473329  0.808310
C    0.449556  -0.084845  2.095260
O    0.911637  0.767295  2.859340
H    2.136235  -0.888295  1.058226
H    1.320544  0.430490  0.210540
H    0.596875  -1.204513  0.208257
N    -0.721764  -0.733007  2.341641
C    -1.452721  -0.602191  3.585231
C    -2.300478  -1.882519  3.725141
O    -2.449454  -2.664878  2.783873
H    -1.036476  -1.512839  1.763687
H    -0.725778  -0.575672  4.412745
C    -2.331714  0.682100  3.653588
C    -1.685187  1.850204  4.406077
C    -1.712376  1.814916  5.912835
O    -1.499113  2.758413  6.639394
O    -1.992718  0.567256  6.440938
H    -3.311295  0.446927  4.092311
H    -2.524733  0.994072  2.618896
H    -2.146491  2.806049  4.123946
H    -0.622870  1.925328  4.114554
N    -2.852808  -2.050354  4.951563
C    -3.729431  -3.158095  5.278682
H    -2.668484  -1.332596  5.648399
H    -3.770840  -3.822251  4.409398
H    -4.746680  -2.809668  5.508296
H    -3.345431  -3.721310  6.140124
H    -1.940498  0.692314  7.408747
