28
Energy: -19698.0540728 eV PBE+vdW (tier 2 basis)
C    -0.693540  1.169903  0.442457
C    0.015324  0.209167  1.373097
O    1.175929  0.395465  1.730448
H    -1.436144  1.762823  0.995625
H    -1.193008  0.642723  -0.377719
H    0.059879  1.852702  0.040511
N    -0.671097  -0.877119  1.889612
C    -1.950341  -1.497587  1.568738
C    -1.958249  -2.186647  0.183093
O    -1.357885  -1.720487  -0.781786
H    -0.050311  -1.439895  2.463729
H    -2.076897  -2.270405  2.337999
C    -3.175932  -0.562157  1.678342
C    -3.319803  0.094568  3.047751
C    -3.748439  -0.861885  4.137059
O    -4.047828  -2.031641  3.988344
O    -3.776326  -0.251786  5.351223
H    -4.074967  -1.154240  1.458119
H    -3.120906  0.211751  0.903979
H    -4.065821  0.903568  3.016494
H    -2.380861  0.572340  3.365075
N    -2.714758  -3.319749  0.072907
C    -3.356157  -4.095821  1.125962
H    -2.672919  -3.729553  -0.855904
H    -3.836929  -3.451647  1.871063
H    -2.649052  -4.761753  1.646363
H    -4.137842  -4.717332  0.674316
H    -4.070918  -0.929267  5.990775
