28
Energy: -19698.2680444 eV PBE+vdW (tier 2 basis)
C    0.427627  0.606516  0.259843
C    0.312048  0.384491  1.751474
O    1.336977  0.372207  2.458996
H    0.949902  1.555415  0.085979
H    -0.533885  0.623481  -0.266060
H    1.052672  -0.189806  -0.163314
N    -0.945859  0.233756  2.230051
C    -1.437951  -0.037794  3.597406
C    -1.088204  0.958907  4.735824
O    -1.811526  0.937879  5.728602
H    -1.677383  0.302218  1.532603
H    -2.522351  0.115021  3.512487
C    -1.280745  -1.512335  4.039568
C    0.126059  -2.132412  4.087693
C    1.004690  -1.629263  5.234936
O    0.907486  -2.053817  6.364777
O    1.919523  -0.683526  4.920132
H    -1.889828  -2.120398  3.354320
H    -1.748508  -1.586863  5.031227
H    0.635341  -2.023571  3.120627
H    -0.001711  -3.207414  4.268665
N    -0.050297  1.811142  4.562953
C    0.399921  2.662799  5.652608
H    0.618425  1.586598  3.828051
H    0.899804  3.547243  5.241498
H    1.096560  2.127577  6.315423
H    -0.468446  2.973162  6.241949
H    1.781203  -0.383925  3.986369
