28
Energy: -19698.4353904 eV PBE+vdW (tier 2 basis)
C    -1.518204  -3.688032  1.964726
C    -0.762073  -2.434283  2.361251
O    0.430507  -2.272926  2.098419
H    -1.015130  -4.556512  2.407602
H    -1.466506  -3.801053  0.874701
H    -2.570042  -3.685073  2.275363
N    -1.493515  -1.494655  3.028025
C    -0.910317  -0.260976  3.512994
C    -1.748684  0.172940  4.724575
O    -2.957866  -0.057012  4.774522
H    -2.468565  -1.641247  3.277730
H    0.130231  -0.474296  3.806230
C    -0.895770  0.815649  2.397569
C    -0.077309  2.077968  2.705085
C    -0.677377  3.078930  3.668672
O    -0.074798  3.653173  4.554857
O    -1.992275  3.314407  3.408352
H    -1.931045  1.078760  2.142128
H    -0.451723  0.331152  1.518082
H    0.072743  2.627586  1.761646
H    0.924531  1.828453  3.078341
N    -1.063844  0.839923  5.688840
C    -1.706672  1.487169  6.816811
H    -0.068006  0.978917  5.562453
H    -2.787270  1.347495  6.710660
H    -1.469359  2.560041  6.824915
H    -1.383587  1.043143  7.768297
H    -2.282075  3.983360  4.058152
