28
Energy: -19697.8148307 eV PBE+vdW (tier 2 basis)
C    0.050249  0.178674  0.106888
C    0.045526  -0.127830  1.590575
O    1.098823  -0.359056  2.183900
H    -0.283954  1.204627  -0.091877
H    -0.593752  -0.495119  -0.470100
H    1.081376  0.069810  -0.238985
N    -1.129730  -0.130753  2.315565
C    -2.569231  -0.022923  2.053811
C    -3.335727  -1.307161  2.463130
O    -4.318658  -1.206850  3.199377
H    -0.917289  -0.323331  3.292590
H    -2.958076  0.712281  2.775483
C    -2.989446  0.459107  0.658340
C    -4.488700  0.745419  0.582745
C    -4.927261  1.098957  -0.818766
O    -4.262430  0.979770  -1.827556
O    -6.205514  1.569744  -0.832450
H    -2.731325  -0.267312  -0.121189
H    -2.440001  1.379098  0.419230
H    -4.786212  1.557418  1.261798
H    -5.086151  -0.122313  0.904843
N    -2.933174  -2.524985  1.996553
C    -1.829684  -2.889026  1.119573
H    -3.508441  -3.278653  2.359917
H    -1.960341  -3.937342  0.830515
H    -0.850496  -2.784163  1.605737
H    -1.829487  -2.296543  0.196257
H    -6.415644  1.749212  -1.769580
