28
Energy: -19697.7137434 eV PBE+vdW (tier 2 basis)
C    0.580235  0.021984  1.034603
C    -0.313628  -0.962319  1.760918
O    -0.007455  -2.145351  1.878454
H    1.501972  -0.499952  0.765634
H    0.829103  0.892680  1.654241
H    0.094970  0.377775  0.115377
N    -1.496515  -0.507206  2.302068
C    -2.173402  0.790488  2.216503
C    -2.655290  1.059805  0.757034
O    -3.519400  0.307660  0.310128
H    -2.064454  -1.277347  2.641503
H    -3.138467  0.602681  2.709332
C    -1.487161  1.897613  3.033517
C    -2.448093  3.043026  3.367970
C    -1.733823  4.280471  3.864216
O    -0.622592  4.636335  3.528981
O    -2.505202  4.993493  4.729592
H    -0.595099  2.301430  2.545616
H    -1.137891  1.434992  3.967382
H    -3.203080  2.737699  4.104346
H    -3.015838  3.356719  2.474344
N    -2.177200  2.077716  -0.027368
C    -1.144944  3.093417  0.146625
H    -2.644667  2.065037  -0.929664
H    -1.035637  3.614358  -0.810473
H    -0.168423  2.663947  0.398296
H    -1.399828  3.846095  0.903475
H    -1.985681  5.787543  4.964625
