28
Energy: -19698.0433975 eV PBE+vdW (tier 2 basis)
C    -0.103074  -0.099257  0.570517
C    -0.223506  -0.095028  2.081466
O    0.697320  0.278456  2.803390
H    0.834401  0.399071  0.310760
H    -0.075985  -1.130858  0.193761
H    -0.933183  0.422261  0.077621
N    -1.397238  -0.542309  2.645600
C    -2.658233  -0.912958  2.015212
C    -2.455226  -2.067609  0.993806
O    -1.834853  -3.073796  1.316687
H    -1.352496  -0.577187  3.659224
H    -3.240199  -1.399351  2.814025
C    -3.478790  0.305174  1.537072
C    -3.792923  1.304368  2.661617
C    -2.596208  2.008610  3.270115
O    -2.356261  2.073486  4.456470
O    -1.825430  2.614126  2.322753
H    -4.441314  -0.049977  1.137039
H    -2.958715  0.834296  0.725146
H    -4.325349  0.815084  3.486738
H    -4.457491  2.086198  2.262425
N    -3.029649  -1.903015  -0.232139
C    -2.922018  -2.903056  -1.278689
H    -3.461577  -1.015321  -0.453900
H    -2.236942  -2.580369  -2.076470
H    -3.906005  -3.112673  -1.717776
H    -2.524561  -3.816724  -0.825077
H    -1.052447  2.978970  2.796918
