28
Energy: -19698.0525954 eV PBE+vdW (tier 2 basis)
C    -0.470518  -0.861631  -0.073362
C    0.130383  -0.440394  1.258848
O    1.280329  -0.731984  1.574110
H    0.274211  -1.464451  -0.599201
H    -0.720225  0.010783  -0.694587
H    -1.386444  -1.455579  0.052912
N    -0.663159  0.303080  2.096096
C    -2.057628  0.667665  1.921034
C    -2.245571  2.023997  2.626819
O    -1.826973  2.180564  3.772018
H    -0.246781  0.563705  2.988776
H    -2.265661  0.753196  0.846805
C    -3.010214  -0.382428  2.538683
C    -4.497545  -0.095677  2.267121
C    -5.383440  -1.154380  2.882015
O    -6.025327  -1.037699  3.902887
O    -5.363115  -2.308813  2.150372
H    -2.824564  -0.416694  3.621682
H    -2.740444  -1.365020  2.128103
H    -4.680390  -0.071013  1.182396
H    -4.796289  0.866220  2.700855
N    -2.898775  3.015693  1.957612
C    -3.364981  3.026825  0.578908
H    -2.983114  3.872479  2.496481
H    -3.753935  4.026366  0.359039
H    -4.179808  2.310102  0.405895
H    -2.553550  2.822979  -0.134233
H    -5.926891  -2.942769  2.634856
