28
Energy: -19698.2371105 eV PBE+vdW (tier 2 basis)
C    0.151784  -0.416483  0.023646
C    0.041306  -0.450601  1.535660
O    0.938522  -0.894378  2.251133
H    1.011638  0.207108  -0.251639
H    -0.744442  -0.028702  -0.475809
H    0.355314  -1.431986  -0.337251
N    -1.121566  0.056308  2.048051
C    -1.399206  0.055304  3.471292
C    -2.867705  -0.359505  3.641984
O    -3.735538  0.140088  2.923168
H    -1.882116  0.351227  1.442970
H    -0.699134  -0.661596  3.919666
C    -1.148876  1.452148  4.081882
C    -1.329512  1.499134  5.609892
C    -1.006627  2.875338  6.142822
O    0.077711  3.242736  6.542310
O    -2.092805  3.701652  6.094417
H    -1.828858  2.169669  3.600836
H    -0.119381  1.737389  3.825226
H    -0.640042  0.795570  6.093310
H    -2.362008  1.239857  5.881301
N    -3.175285  -1.270530  4.606308
C    -2.279892  -2.005391  5.488634
H    -4.171097  -1.459596  4.673962
H    -2.821901  -2.870051  5.886584
H    -1.933663  -1.401135  6.339801
H    -1.404667  -2.384157  4.947131
H    -1.781352  4.570801  6.414333
