28
Energy: -19697.7686679 eV PBE+vdW (tier 2 basis)
C    0.200216  -0.153672  1.447704
C    -0.400282  -0.378861  2.823057
O    0.250134  -0.876960  3.736936
H    0.069118  0.876984  1.093563
H    -0.259525  -0.827494  0.711552
H    1.268527  -0.376100  1.509457
N    -1.711073  -0.009081  3.029700
C    -2.704938  0.485690  2.076653
C    -2.904582  -0.540476  0.922015
O    -3.159348  -1.699389  1.239513
H    -2.060525  -0.347283  3.920507
H    -3.667445  0.384682  2.599012
C    -2.549438  1.991080  1.783001
C    -2.595921  2.842101  3.052625
C    -3.967102  2.919631  3.685578
O    -4.996252  2.472866  3.220263
O    -3.926117  3.581485  4.874534
H    -3.362473  2.307269  1.116455
H    -1.603090  2.201813  1.270153
H    -2.285879  3.875949  2.835588
H    -1.883452  2.475521  3.805969
N    -2.867287  -0.197784  -0.404524
C    -2.422540  0.993111  -1.113646
H    -3.088902  -1.006369  -0.978328
H    -3.117592  1.836664  -1.006867
H    -2.368171  0.742306  -2.178370
H    -1.420878  1.316100  -0.802070
H    -4.845161  3.599723  5.206028
