28
Energy: -19698.1842715 eV PBE+vdW (tier 2 basis)
C    -0.544286  -0.573983  -0.096253
C    -0.259115  -0.417132  1.389483
O    0.837054  -0.693139  1.867707
H    0.351473  -0.993690  -0.561006
H    -0.762075  0.395235  -0.567915
H    -1.394041  -1.241157  -0.291845
N    -1.277397  0.041176  2.189903
C    -2.587581  0.529345  1.809926
C    -2.793975  1.910389  2.466635
O    -2.368768  2.139907  3.595542
H    -1.006366  0.244696  3.151740
H    -2.624653  0.625268  0.715623
C    -3.730759  -0.402786  2.275751
C    -3.655334  -1.802426  1.644635
C    -4.809984  -2.657355  2.111384
O    -5.886744  -2.747161  1.558906
O    -4.520742  -3.307269  3.274545
H    -4.695800  0.062836  2.024642
H    -3.684497  -0.481974  3.371607
H    -2.703738  -2.279237  1.912754
H    -3.728943  -1.731655  0.551685
N    -3.503934  2.804213  1.724204
C    -3.864991  4.123721  2.212132
H    -3.801007  2.529566  0.795636
H    -3.456498  4.909773  1.563021
H    -3.437688  4.231830  3.214236
H    -4.955774  4.240513  2.273256
H    -5.330733  -3.796276  3.519008
