28
Energy: -19698.3277272 eV PBE+vdW (tier 2 basis)
C    0.004864  0.574374  0.312493
C    -0.092954  0.421233  1.817669
O    0.875680  0.603823  2.559610
H    0.518295  1.516552  0.088722
H    -0.968732  0.559443  -0.192155
H    0.623649  -0.239897  -0.087047
N    -1.324232  0.061704  2.282802
C    -1.629921  -0.075453  3.699692
C    -1.756824  -1.575945  4.050921
O    -2.779984  -2.200566  3.770216
H    -2.097628  -0.032620  1.631410
H    -0.783109  0.381563  4.227980
C    -2.930992  0.649156  4.069867
C    -2.940611  2.133325  3.702570
C    -3.323410  2.435448  2.270149
O    -3.730870  1.644720  1.441437
O    -3.183074  3.762251  1.998075
H    -3.070597  0.547680  5.155296
H    -3.777003  0.129673  3.600079
H    -1.972038  2.616825  3.902408
H    -3.666747  2.675397  4.328654
N    -0.690658  -2.176596  4.648633
C    0.583077  -1.599586  5.060944
H    -0.854274  -3.159240  4.848336
H    1.334183  -2.397697  5.084521
H    0.530572  -1.151922  6.066186
H    0.923388  -0.842330  4.343903
H    -3.472972  3.879630  1.072537
