28
Energy: -19698.3881191 eV PBE+vdW (tier 2 basis)
C    -1.724824  2.585651  2.474891
C    -0.996159  1.290870  2.768759
O    0.194750  1.127370  2.533992
H    -2.809456  2.457641  2.363191
H    -1.312181  3.033848  1.565671
H    -1.540250  3.277417  3.309493
N    -1.775159  0.301994  3.343238
C    -1.184664  -0.876313  3.963541
C    -1.499595  -2.205090  3.240431
O    -1.249175  -3.283859  3.774081
H    -2.719518  0.549689  3.622598
H    -0.095609  -0.737664  3.853693
C    -1.539640  -0.987697  5.452426
C    -1.044403  0.197454  6.291080
C    -1.768802  1.511794  6.109682
O    -1.252768  2.607453  6.057909
O    -3.133401  1.355811  6.055458
H    -1.083307  -1.914326  5.820560
H    -2.626326  -1.111484  5.573357
H    0.020151  0.396630  6.116159
H    -1.152311  -0.056121  7.358340
N    -2.030030  -2.074800  1.996010
C    -2.283692  -3.208411  1.130124
H    -2.147151  -1.131088  1.644210
H    -2.111419  -4.117934  1.715689
H    -1.605999  -3.211299  0.264218
H    -3.321046  -3.203868  0.768924
H    -3.493016  2.263334  6.018276
