28
Energy: -19698.1845427 eV PBE+vdW (tier 2 basis)
C    -0.218062  0.606805  0.429342
C    -0.594543  0.680457  1.899798
O    0.209152  1.036427  2.756808
H    0.867653  0.708649  0.354507
H    -0.689000  1.428900  -0.127914
H    -0.527009  -0.337674  -0.040862
N    -1.877871  0.328499  2.239505
C    -2.936283  -0.108444  1.356412
C    -3.331466  0.962060  0.310126
O    -3.469255  2.148373  0.597408
H    -2.096470  0.395259  3.235789
H    -2.616637  -1.017354  0.811377
C    -4.194559  -0.512821  2.160580
C    -4.926587  0.612115  2.908634
C    -4.425882  0.872487  4.306996
O    -3.379664  0.472836  4.784698
O    -5.295606  1.640033  5.012418
H    -3.905803  -1.306256  2.865069
H    -4.897479  -0.963889  1.447010
H    -6.001402  0.395988  2.976539
H    -4.845388  1.563921  2.357737
N    -3.565045  0.457996  -0.936523
C    -3.990424  1.281862  -2.052037
H    -3.353630  -0.518735  -1.102681
H    -4.926477  0.906868  -2.487808
H    -3.222204  1.320117  -2.837298
H    -4.153116  2.294653  -1.668382
H    -4.877181  1.793699  5.882053
