28
Energy: -19698.1710019 eV PBE+vdW (tier 2 basis)
C    -0.496988  -0.490515  -0.069522
C    -0.317087  -0.619738  1.431501
O    0.513882  -1.406685  1.892151
H    0.485005  -0.323550  -0.527327
H    -1.180054  0.311345  -0.374763
H    -0.877022  -1.445363  -0.455315
N    -1.123158  0.200416  2.175596
C    -1.394956  0.208087  3.624126
C    -1.770844  1.623885  4.113097
O    -2.493965  1.759233  5.094063
H    -1.815338  0.706006  1.631912
H    -2.295004  -0.397021  3.816153
C    -0.269933  -0.355943  4.508856
C    1.079610  0.382503  4.403770
C    2.264829  -0.522760  4.731392
O    3.003987  -0.349400  5.674602
O    2.445115  -1.557917  3.878331
H    -0.149888  -1.419083  4.276339
H    -0.640389  -0.298762  5.541121
H    1.116570  1.239968  5.084112
H    1.232636  0.760688  3.380648
N    -1.232716  2.662393  3.411484
C    -1.387134  4.043788  3.831857
H    -0.555739  2.440323  2.689680
H    -1.611747  4.685408  2.970746
H    -0.481355  4.418275  4.330781
H    -2.217938  4.085589  4.543535
H    1.758513  -1.535929  3.165020
