28
Energy: -19698.1554559 eV PBE+vdW (tier 2 basis)
C    0.204128  0.299091  0.090227
C    0.198724  -0.310458  1.479369
O    1.082323  -1.074470  1.867060
H    0.193797  -0.511673  -0.648870
H    1.139904  0.854541  -0.048507
H    -0.643075  0.969167  -0.100053
N    -0.848706  0.057288  2.276541
C    -1.054969  -0.533168  3.583828
C    -2.566596  -0.501737  3.850730
O    -3.301759  0.268855  3.224060
H    -1.648542  0.571207  1.911620
H    -0.681060  -1.567816  3.543147
C    -0.270797  0.196594  4.699853
C    -0.642032  1.670341  4.848591
C    -0.068741  2.291308  6.113448
O    0.374101  1.673857  7.051093
O    -0.109326  3.659308  6.163557
H    0.797971  0.097954  4.468206
H    -0.422993  -0.308527  5.662331
H    -1.737746  1.797946  4.897197
H    -0.313872  2.244042  3.967952
N    -3.060769  -1.316039  4.820865
C    -2.362075  -2.289161  5.645105
H    -4.054850  -1.183730  4.982858
H    -3.049113  -3.107355  5.890509
H    -1.989515  -1.853422  6.584280
H    -1.513775  -2.720911  5.102727
H    -0.480639  4.004968  5.333274
