28
Energy: -19698.1686122 eV PBE+vdW (tier 2 basis)
C    0.913829  0.406163  1.430695
C    0.271993  -0.415959  2.537572
O    0.875271  -0.702539  3.567462
H    1.949210  0.603868  1.719507
H    0.396197  1.367033  1.296016
H    0.906123  -0.116496  0.464135
N    -1.028964  -0.810407  2.349707
C    -1.867674  -0.624923  1.181183
C    -3.321302  -0.553926  1.685099
O    -3.731775  -1.348878  2.526764
H    -1.442810  -1.358835  3.102569
H    -1.595798  0.322556  0.690427
C    -1.708812  -1.782243  0.166261
C    -2.489460  -1.563731  -1.141708
C    -2.227105  -2.677554  -2.128651
O    -2.964007  -3.612209  -2.355434
O    -1.014160  -2.527777  -2.740733
H    -2.036903  -2.712586  0.651445
H    -0.638135  -1.890276  -0.054796
H    -2.191000  -0.607596  -1.598475
H    -3.569237  -1.544068  -0.954719
N    -4.091916  0.411822  1.113358
C    -5.497602  0.589447  1.433149
H    -3.656474  1.043423  0.452328
H    -6.121598  0.495041  0.534195
H    -5.679027  1.570011  1.893879
H    -5.774331  -0.194131  2.145812
H    -0.911774  -3.303362  -3.325968
