28
Energy: -19698.3670323 eV PBE+vdW (tier 2 basis)
C    0.805483  0.155471  -0.006321
C    0.441944  0.373078  1.444908
O    1.321928  0.611423  2.280859
H    1.748642  -0.397143  -0.062860
H    0.963361  1.141668  -0.464784
H    0.033270  -0.374368  -0.576990
N    -0.887939  0.280380  1.730365
C    -1.549476  0.773462  2.941582
C    -1.174747  2.272570  3.173120
O    -0.859608  2.975018  2.217323
H    -1.486073  0.198869  0.917567
H    -2.614014  0.829312  2.663094
C    -1.502168  -0.218180  4.123738
C    -0.139325  -0.585466  4.738506
C    0.509951  0.573974  5.493489
O    0.144175  0.894075  6.612252
O    1.474974  1.246300  4.854823
H    -1.968816  -1.147705  3.766584
H    -2.168968  0.151855  4.918625
H    0.531553  -0.986852  3.970003
H    -0.312955  -1.372408  5.483521
N    -1.335826  2.735996  4.438778
C    -0.928844  4.080250  4.814797
H    -1.429405  2.069377  5.198021
H    -1.661443  4.517991  5.503628
H    -0.870608  4.687095  3.906453
H    0.057539  4.063041  5.300585
H    1.486566  0.976129  3.889548
