28
Energy: -19698.2935943 eV PBE+vdW (tier 2 basis)
C    -0.496237  -0.415062  -0.241002
C    -0.991957  -0.511624  1.189155
O    -1.480159  -1.544885  1.649310
H    0.275662  -1.178348  -0.399524
H    -0.085849  0.568721  -0.498704
H    -1.328189  -0.646750  -0.917651
N    -0.850611  0.622180  1.935702
C    -1.357320  0.718464  3.289073
C    -1.646880  2.206134  3.537968
O    -1.097992  3.074941  2.854517
H    -0.548411  1.506325  1.530307
H    -2.288603  0.133104  3.338998
C    -0.381524  0.094603  4.322413
C    1.037989  0.667836  4.313464
C    1.277814  2.015233  4.959549
O    2.177083  2.773107  4.671872
O    0.399269  2.282849  5.976963
H    -0.327281  -0.972801  4.069452
H    -0.811800  0.157386  5.329915
H    1.435990  0.732336  3.293091
H    1.702774  -0.029280  4.849590
N    -2.529547  2.531703  4.520125
C    -3.160569  1.661742  5.496463
H    -2.598819  3.534311  4.668366
H    -4.090050  2.129201  5.841680
H    -2.515203  1.476107  6.369203
H    -3.424722  0.698261  5.045839
H    0.676413  3.151723  6.327045
