28
Energy: -19698.3627649 eV PBE+vdW (tier 2 basis)
C    0.649683  1.483729  0.403222
C    0.095714  0.579491  1.487014
O    0.675305  0.397977  2.556853
H    0.023819  1.529150  -0.496273
H    1.650779  1.129814  0.127957
H    0.762123  2.495561  0.812108
N    -1.101374  -0.016525  1.199442
C    -1.719161  -0.964691  2.102527
C    -2.611218  -1.875613  1.258411
O    -3.089807  -1.472870  0.183766
H    -1.530644  0.058862  0.280880
H    -0.918044  -1.537503  2.595232
C    -2.545490  -0.266391  3.217757
C    -3.820657  0.457905  2.736515
C    -5.065393  -0.430081  2.743608
O    -5.673267  -0.687982  3.759243
O    -5.490642  -0.930552  1.552912
H    -1.865140  0.455808  3.686411
H    -2.809402  -0.996034  3.997539
H    -3.651935  0.917707  1.752030
H    -4.045141  1.268794  3.439967
N    -2.905699  -3.076378  1.795327
C    -3.903747  -3.975233  1.234884
H    -2.504388  -3.302669  2.698543
H    -3.597638  -5.014010  1.400533
H    -3.976751  -3.784314  0.159889
H    -4.890264  -3.803837  1.688365
H    -4.797622  -0.818114  0.864338
