28
Energy: -19698.3463907 eV PBE+vdW (tier 2 basis)
C    2.197986  -1.207504  2.633791
C    1.164752  -0.219262  3.134378
O    1.287846  0.338472  4.231616
H    3.188351  -0.740071  2.685289
H    2.018143  -1.562542  1.611911
H    2.208192  -2.071157  3.311301
N    0.107222  0.001276  2.302462
C    -1.092717  0.805005  2.582852
C    -0.876360  2.342091  2.619021
O    -1.613430  3.068250  1.951274
H    0.128649  -0.464638  1.404311
H    -1.739921  0.667305  1.707471
C    -1.864360  0.334293  3.831309
C    -2.365626  -1.114928  3.699164
C    -3.074873  -1.566011  4.953863
O    -2.591221  -2.239004  5.839048
O    -4.356291  -1.094904  5.004149
H    -2.718147  1.013665  3.960439
H    -1.227774  0.427447  4.720587
H    -1.522556  -1.798091  3.542969
H    -3.053616  -1.195188  2.845016
N    0.106445  2.777270  3.442696
C    0.413183  4.183755  3.611479
H    0.636726  2.064152  3.956537
H    0.233853  4.506351  4.647144
H    -0.237345  4.758259  2.943703
H    1.462460  4.389917  3.358064
H    -4.720124  -1.401240  5.857551
