28
Energy: -19698.3309201 eV PBE+vdW (tier 2 basis)
C    -0.266862  -0.608274  -0.101071
C    -0.342778  -0.997101  1.361166
O    0.324798  -1.918589  1.831272
H    -0.977951  0.176949  -0.384366
H    -0.443449  -1.499603  -0.714614
H    0.752198  -0.259537  -0.313369
N    -1.173710  -0.223419  2.126465
C    -1.429592  -0.526165  3.517527
C    -2.950570  -0.510482  3.733099
O    -3.681477  0.157142  3.000679
H    -1.828156  0.421923  1.691416
H    -1.001842  -1.525120  3.687074
C    -0.755078  0.483106  4.480241
C    0.719658  0.719032  4.142177
C    0.912879  1.733163  3.034453
O    0.210928  2.701475  2.827244
O    2.029220  1.467570  2.298123
H    -0.840494  0.105102  5.508333
H    -1.289551  1.443263  4.439581
H    1.240179  -0.211950  3.883807
H    1.236077  1.139255  5.020328
N    -3.452199  -1.227016  4.778665
C    -2.743394  -2.056608  5.737435
H    -4.452697  -1.103282  4.903765
H    -3.413197  -2.850103  6.088865
H    -2.394050  -1.487410  6.613252
H    -1.878372  -2.540171  5.269835
H    2.101690  2.200272  1.655608
