28
Energy: -19698.4506433 eV PBE+vdW (tier 2 basis)
C    1.115313  -0.180492  0.852248
C    0.624181  -0.406020  2.267072
O    1.394597  -0.697158  3.187357
H    1.624251  -1.088022  0.504617
H    1.858546  0.626375  0.864369
H    0.319416  0.079212  0.143590
N    -0.718946  -0.256331  2.462520
C    -1.352404  -0.449294  3.768271
C    -1.664720  -1.952289  3.992167
O    -2.795488  -2.418551  3.864020
H    -1.322141  -0.165997  1.651987
H    -0.607436  -0.140400  4.514950
C    -2.611393  0.404972  3.901145
C    -2.346455  1.907596  3.832013
C    -1.634747  2.458089  5.049348
O    -1.458760  1.879160  6.100445
O    -1.211471  3.737473  4.836183
H    -3.087178  0.155098  4.857601
H    -3.332153  0.113959  3.123162
H    -3.296003  2.459639  3.747956
H    -1.766161  2.189068  2.941014
N    -0.560101  -2.673517  4.320620
C    -0.584751  -4.114055  4.477823
H    0.334972  -2.183268  4.282573
H    -0.091208  -4.409265  5.413140
H    -0.083829  -4.622177  3.640008
H    -1.631687  -4.433795  4.506773
H    -0.788885  4.021122  5.670203
