28
Energy: -19697.9161007 eV PBE+vdW (tier 2 basis)
C    0.294400  0.716137  1.230288
C    0.003092  0.386038  2.679501
O    0.827185  0.603538  3.565465
H    -0.572877  1.031084  0.641865
H    0.723724  -0.170131  0.740716
H    1.052203  1.504730  1.221316
N    -1.189083  -0.226314  3.015294
C    -2.408908  -0.521446  2.260527
C    -2.143746  -0.998563  0.819648
O    -2.596208  -0.403617  -0.155490
H    -1.239605  -0.389419  4.018029
H    -2.848120  -1.399238  2.767061
C    -3.482597  0.581992  2.358831
C    -3.109096  1.980429  1.843853
C    -3.505349  2.222850  0.402002
O    -4.617436  2.058430  -0.049878
O    -2.475511  2.732393  -0.332207
H    -3.736040  0.661151  3.425832
H    -4.391520  0.240786  1.843684
H    -2.048057  2.206340  1.997625
H    -3.671388  2.725881  2.425997
N    -1.419669  -2.147877  0.673979
C    -0.807015  -2.984923  1.692121
H    -1.271936  -2.397419  -0.299032
H    -0.620254  -3.975012  1.261411
H    -1.476457  -3.120713  2.551176
H    0.145431  -2.577333  2.061732
H    -2.829811  2.849906  -1.235106
