28
Energy: -19697.9643205 eV PBE+vdW (tier 2 basis)
C    -0.073932  -0.043054  0.125433
C    -0.009193  -0.024190  1.640702
O    1.048739  -0.180809  2.243039
H    0.950224  0.024714  -0.250656
H    -0.668578  0.777530  -0.294626
H    -0.513513  -0.989837  -0.218139
N    -1.177856  0.158274  2.346840
C    -2.551691  0.329293  1.886968
C    -2.967159  -0.821100  0.923353
O    -2.854046  -1.987732  1.285758
H    -1.037231  0.056344  3.346763
H    -3.170974  0.133941  2.776250
C    -2.844770  1.772967  1.429627
C    -4.352984  2.121808  1.427573
C    -4.711673  3.141964  0.376423
O    -5.134436  4.259830  0.559258
O    -4.489502  2.638405  -0.885339
H    -2.404097  1.956187  0.439300
H    -2.319145  2.451830  2.112925
H    -4.665303  2.516120  2.399938
H    -4.950282  1.220042  1.222900
N    -3.471863  -0.463904  -0.290161
C    -3.888246  -1.455419  -1.265163
H    -3.497058  0.511140  -0.566283
H    -4.768830  -1.094785  -1.810009
H    -4.135805  -2.380241  -0.733748
H    -3.088632  -1.678418  -1.988191
H    -4.725104  3.352228  -1.508589
