28
Energy: -19698.0643443 eV PBE+vdW (tier 2 basis)
C    -0.898387  -0.506977  -1.297949
C    -0.078126  -0.572198  -0.019260
O    1.076144  -0.989478  -0.007086
H    -1.163589  0.529455  -1.552558
H    -1.831554  -1.082308  -1.222703
H    -0.289978  -0.921410  -2.105757
N    -0.676253  -0.123592  1.132282
C    -2.045628  0.322711  1.317027
C    -2.014177  1.378365  2.438028
O    -1.446768  1.127582  3.499670
H    -0.114639  -0.193896  1.979365
H    -2.400382  0.761773  0.376048
C    -2.983591  -0.838570  1.716490
C    -4.459214  -0.417378  1.837852
C    -5.330635  -1.623245  2.102596
O    -5.748146  -2.384728  1.255509
O    -5.573811  -1.791445  3.433245
H    -2.627976  -1.252816  2.670391
H    -2.889170  -1.627790  0.957553
H    -4.803288  0.022662  0.891829
H    -4.586328  0.317809  2.643005
N    -2.642755  2.568242  2.221767
C    -3.276088  3.051932  1.003759
H    -2.572552  3.206380  3.008787
H    -2.583011  3.058072  0.150405
H    -3.598749  4.084190  1.174361
H    -4.167040  2.467525  0.735043
H    -6.100021  -2.611578  3.509573
