28
Energy: -19698.1515766 eV PBE+vdW (tier 2 basis)
C    0.493074  0.831646  0.438211
C    0.047553  -0.281799  1.366993
O    0.832044  -1.095541  1.846647
H    1.319475  1.376600  0.909165
H    -0.304483  1.538947  0.178800
H    0.879481  0.380649  -0.484852
N    -1.297119  -0.319616  1.637731
C    -1.891182  -1.403438  2.417063
C    -3.298704  -1.678879  1.850707
O    -3.470774  -2.481776  0.940544
H    -1.912973  0.337148  1.173595
H    -1.307463  -2.307280  2.191918
C    -1.775501  -1.129096  3.929569
C    -2.258299  -2.287464  4.822339
C    -3.746062  -2.375093  5.076376
O    -4.442068  -3.355966  4.940236
O    -4.254976  -1.185380  5.545031
H    -2.275371  -0.188410  4.206588
H    -0.706751  -0.968660  4.123339
H    -1.789047  -2.183797  5.813013
H    -1.942853  -3.255552  4.414887
N    -4.304818  -0.925636  2.390004
C    -5.698185  -1.152737  2.051105
H    -4.104043  -0.385136  3.224164
H    -6.242014  -0.200875  2.019040
H    -6.183610  -1.825085  2.775878
H    -5.734762  -1.628375  1.065881
H    -5.197509  -1.363817  5.729296
