28
Energy: -19698.1350269 eV PBE+vdW (tier 2 basis)
C    0.266799  -0.522498  -0.064900
C    0.305134  -0.599311  1.453148
O    1.223357  -1.146150  2.051593
H    0.113491  -1.534459  -0.462454
H    1.242994  -0.175959  -0.422663
H    -0.516559  0.135818  -0.460928
N    -0.760505  0.008961  2.084854
C    -1.080516  -0.136030  3.512270
C    -2.311601  0.712051  3.878125
O    -3.058806  0.370900  4.788312
H    -1.556697  0.208578  1.487393
H    -1.378824  -1.174201  3.726941
C    0.086485  0.198546  4.469247
C    0.722202  1.567503  4.251212
C    1.857895  1.842513  5.210329
O    2.207807  1.142893  6.135205
O    2.469687  3.029142  4.914154
H    0.851763  -0.576583  4.363621
H    -0.313357  0.124409  5.489385
H    -0.001466  2.389222  4.377369
H    1.119796  1.670865  3.230520
N    -2.492048  1.854575  3.144894
C    -3.546110  2.805960  3.449061
H    -1.748046  2.133325  2.514071
H    -3.981059  3.202500  2.523405
H    -3.178163  3.644699  4.059096
H    -4.318613  2.280055  4.019385
H    3.177843  3.133460  5.578815
