28
Energy: -19698.2251427 eV PBE+vdW (tier 2 basis)
C    -0.927021  -1.546652  0.120177
C    -0.212543  -0.681721  1.144653
O    0.918572  -0.949602  1.539914
H    -0.216326  -2.304255  -0.220021
H    -1.268188  -0.967506  -0.749494
H    -1.799973  -2.055795  0.550549
N    -0.880780  0.412715  1.643461
C    -2.145523  0.985159  1.228716
C    -1.925210  2.475842  0.903678
O    -1.137637  3.156179  1.555938
H    -0.309049  1.021602  2.228685
H    -2.493965  0.459173  0.329341
C    -3.227250  0.883189  2.331324
C    -3.640214  -0.553940  2.650710
C    -4.370586  -1.298614  1.555201
O    -4.313121  -2.493701  1.361018
O    -5.153823  -0.477639  0.787089
H    -4.106408  1.470145  2.031708
H    -2.824867  1.352587  3.240375
H    -4.317340  -0.555013  3.520652
H    -2.776361  -1.167449  2.935610
N    -2.693931  2.962045  -0.110056
C    -2.691125  4.360410  -0.500816
H    -3.317831  2.321494  -0.586462
H    -3.679336  4.817779  -0.352964
H    -2.397294  4.476346  -1.552783
H    -1.961058  4.876588  0.131124
H    -5.604998  -1.070678  0.154837
