28
Energy: -19697.9122877 eV PBE+vdW (tier 2 basis)
C    0.140270  0.704492  0.529260
C    -0.004757  -0.225933  1.712474
O    0.799021  -1.121513  1.941518
H    1.079072  0.462417  0.025126
H    0.161464  1.756886  0.844749
H    -0.686675  0.590208  -0.183318
N    -1.092394  -0.060397  2.566830
C    -1.975928  1.100832  2.703156
C    -2.875020  0.966327  3.932218
O    -3.378329  1.985014  4.425597
H    -0.899652  -0.560170  3.433188
H    -1.387268  2.016572  2.885035
C    -2.917761  1.345982  1.478882
C    -2.812997  2.726943  0.819875
C    -3.492763  3.968174  1.423275
O    -3.757524  4.905986  0.699658
O    -3.751905  4.034491  2.739145
H    -3.960004  1.153498  1.772683
H    -2.685231  0.580827  0.727909
H    -3.217140  2.669533  -0.198649
H    -1.754888  3.006922  0.694426
N    -3.132697  -0.279129  4.389757
C    -4.056405  -0.540063  5.482987
H    -2.797133  -1.062802  3.838719
H    -3.622554  -1.268553  6.178194
H    -5.015687  -0.925290  5.109859
H    -4.237504  0.402613  6.007576
H    -3.521430  3.229076  3.283175
