28
Energy: -19698.2979225 eV PBE+vdW (tier 2 basis)
C    1.409657  0.071415  1.394939
C    0.207697  -0.812751  1.646194
O    0.319093  -2.032060  1.825635
H    1.950080  -0.305181  0.517921
H    2.086785  -0.006837  2.254744
H    1.156584  1.126557  1.236439
N    -1.001942  -0.186783  1.668942
C    -2.253347  -0.882656  1.971888
C    -2.812469  -1.578352  0.697054
O    -3.801702  -1.155201  0.097461
H    -1.051349  0.803190  1.455748
H    -1.995061  -1.668256  2.699939
C    -3.250176  0.097475  2.583436
C    -4.527278  -0.577739  3.077206
C    -5.415185  0.367952  3.871727
O    -5.086311  1.455233  4.278970
O    -6.671872  -0.104705  4.141027
H    -3.519540  0.859066  1.836930
H    -2.769008  0.616784  3.423433
H    -4.286850  -1.430392  3.736474
H    -5.089604  -0.986116  2.223840
N    -2.100514  -2.676423  0.338630
C    -2.373775  -3.422727  -0.874110
H    -1.231815  -2.843056  0.855510
H    -1.624213  -3.218106  -1.653322
H    -3.357505  -3.120835  -1.248388
H    -2.379066  -4.500837  -0.667818
H    -6.791314  -0.971657  3.715551
