28
Energy: -19698.2408406 eV PBE+vdW (tier 2 basis)
C    -0.130514  0.482597  -0.522819
C    0.174505  0.056841  0.898977
O    1.280761  -0.329651  1.256130
H    -0.573008  1.486979  -0.570076
H    -0.841087  -0.210432  -0.995903
H    0.803926  0.469659  -1.089064
N    -0.865255  0.132036  1.810792
C    -2.261400  0.450137  1.544405
C    -2.541826  1.959485  1.424991
O    -3.577402  2.354959  0.863784
H    -0.634245  -0.270877  2.716086
H    -2.567138  0.029828  0.574253
C    -3.127100  -0.211577  2.641268
C    -4.658659  -0.028463  2.520156
C    -5.217358  1.063781  3.437326
O    -5.555710  0.831983  4.578462
O    -5.314459  2.310382  2.926548
H    -2.790334  0.140263  3.629553
H    -2.896201  -1.285116  2.599122
H    -5.143497  -0.953595  2.850587
H    -4.942943  0.147283  1.473927
N    -1.630837  2.777189  1.983740
C    -1.768224  4.221657  2.028038
H    -0.806378  2.333969  2.379191
H    -1.887291  4.571352  3.062197
H    -2.661048  4.494370  1.456658
H    -0.889644  4.707105  1.584101
H    -4.873653  2.351796  2.039207
