28
Energy: -19698.2040256 eV PBE+vdW (tier 2 basis)
C    0.033316  0.535547  0.133105
C    0.020758  0.077652  1.583777
O    1.058518  -0.188069  2.183381
H    1.069800  0.506850  -0.212543
H    -0.339891  1.565347  0.035033
H    -0.577500  -0.106468  -0.515285
N    -1.198704  -0.040276  2.204652
C    -2.509540  0.351689  1.722190
C    -3.154585  1.266157  2.784694
O    -2.963156  1.073011  3.982032
H    -1.150974  -0.219197  3.207758
H    -2.385951  0.905674  0.780613
C    -3.442066  -0.858692  1.487674
C    -2.906529  -1.826626  0.439654
C    -3.788611  -3.039396  0.247949
O    -4.815571  -3.281336  0.845274
O    -3.282705  -3.865041  -0.713227
H    -4.437645  -0.496750  1.191586
H    -3.579652  -1.382965  2.443891
H    -1.901087  -2.183724  0.711207
H    -2.793346  -1.343321  -0.544092
N    -3.962193  2.246175  2.292574
C    -4.723850  3.141702  3.145270
H    -4.051405  2.336220  1.287737
H    -4.459958  4.190134  2.951938
H    -4.475081  2.897348  4.183078
H    -5.804656  3.010652  2.996381
H    -3.900996  -4.619200  -0.771103
