28
Energy: -19698.3247467 eV PBE+vdW (tier 2 basis)
C    -0.358492  -0.068949  -0.292026
C    -0.086462  0.205813  1.179614
O    1.038148  0.490277  1.582592
H    -0.702535  -1.097515  -0.465611
H    0.580137  0.081034  -0.831600
H    -1.117737  0.609886  -0.704731
N    -1.141007  0.108585  2.054886
C    -2.548268  -0.070812  1.762974
C    -3.349237  1.058993  2.436498
O    -2.982463  1.560551  3.496556
H    -0.937099  0.438787  2.998168
H    -2.697953  -0.018344  0.678033
C    -3.085000  -1.431147  2.272550
C    -2.560785  -2.620481  1.476288
C    -3.109449  -2.675882  0.068204
O    -3.957771  -1.939378  -0.398475
O    -2.535934  -3.676252  -0.652838
H    -4.183378  -1.422715  2.234278
H    -2.799442  -1.537944  3.328275
H    -2.826544  -3.570529  1.965509
H    -1.461265  -2.622164  1.426045
N    -4.491275  1.403255  1.779853
C    -5.439305  2.370869  2.300783
H    -4.714149  0.908129  0.923024
H    -5.622607  3.171908  1.572348
H    -5.003934  2.804902  3.206825
H    -6.397316  1.896690  2.557658
H    -2.952622  -3.649795  -1.536373
