28
Energy: -19698.1680448 eV PBE+vdW (tier 2 basis)
C    0.208909  -3.042587  0.975201
C    -0.662976  -2.749654  2.181040
O    -1.070311  -3.633472  2.927418
H    1.145761  -3.497826  1.320610
H    0.444779  -2.157758  0.370936
H    -0.297718  -3.783302  0.344734
N    -0.980264  -1.419901  2.367398
C    -1.669930  -0.941215  3.558734
C    -3.016461  -0.240504  3.266309
O    -3.579040  0.421939  4.133966
H    -0.483724  -0.733252  1.807932
H    -1.933379  -1.856004  4.116228
C    -0.767029  -0.047932  4.417919
C    0.362874  -0.827093  5.087405
C    1.467386  0.071389  5.626042
O    1.690633  1.194745  5.246207
O    2.270114  -0.492114  6.581597
H    -1.396260  0.444329  5.169541
H    -0.336530  0.756451  3.801953
H    0.846152  -1.509739  4.366161
H    -0.033588  -1.470636  5.888661
N    -3.522071  -0.447989  2.020460
C    -4.823814  0.043279  1.613579
H    -2.997023  -1.057666  1.403932
H    -5.193283  0.700242  2.408158
H    -5.538999  -0.780351  1.474905
H    -4.753139  0.614001  0.677975
H    1.948934  -1.386380  6.790998
