28
Energy: -19698.3544385 eV PBE+vdW (tier 2 basis)
C    0.227458  1.131307  0.729122
C    -0.147726  -0.142273  1.462767
O    0.686771  -0.983038  1.789434
H    0.906200  1.713676  1.365284
H    -0.635497  1.753564  0.462885
H    0.781221  0.869184  -0.180788
N    -1.492066  -0.291744  1.711466
C    -1.985930  -1.349697  2.578752
C    -2.755436  -2.467274  1.843286
O    -3.405129  -3.304291  2.474709
H    -2.120079  0.504945  1.584099
H    -1.081063  -1.842592  2.972343
C    -2.797633  -0.812024  3.777254
C    -4.278685  -0.494905  3.536560
C    -4.603608  0.669688  2.621446
O    -3.809450  1.330852  1.983788
O    -5.927428  0.978434  2.526361
H    -2.275561  0.070157  4.172675
H    -2.769043  -1.578724  4.561377
H    -4.761141  -0.293053  4.507358
H    -4.779385  -1.393729  3.138305
N    -2.640423  -2.454138  0.492817
C    -3.213183  -3.475662  -0.358926
H    -2.070709  -1.714763  0.094668
H    -3.798261  -4.149379  0.276518
H    -2.430038  -4.057103  -0.865939
H    -3.872685  -3.032632  -1.117748
H    -6.447492  0.368209  3.078128
