28
Energy: -19698.1059931 eV PBE+vdW (tier 2 basis)
C    -1.027484  2.161761  1.002135
C    -0.283269  1.081705  1.766270
O    0.854733  1.243802  2.191458
H    -0.351666  3.012861  0.887721
H    -1.925184  2.495728  1.541622
H    -1.343415  1.819223  0.007193
N    -0.946089  -0.107761  1.987700
C    -2.240083  -0.528546  1.463523
C    -2.962106  -1.320125  2.574950
O    -3.094212  -2.551902  2.524228
H    -0.364933  -0.818163  2.427928
H    -2.824636  0.380323  1.258208
C    -2.123886  -1.349672  0.173764
C    -3.486597  -1.708231  -0.465936
C    -3.658671  -3.195434  -0.779593
O    -3.920409  -3.610423  -1.887529
O    -3.505903  -4.033443  0.267205
H    -1.545500  -2.257546  0.393229
H    -1.520818  -0.768303  -0.535448
H    -3.637103  -1.165118  -1.404280
H    -4.313612  -1.420342  0.204551
N    -3.422481  -0.622959  3.641570
C    -3.310864  0.804266  3.902079
H    -3.833615  -1.210020  4.361451
H    -3.917122  1.040656  4.782056
H    -3.701931  1.396242  3.063477
H    -2.273675  1.109142  4.097491
H    -3.316592  -3.521319  1.099449
