28
Energy: -19698.2960765 eV PBE+vdW (tier 2 basis)
C    0.332930  1.007839  1.552831
C    -0.292765  0.956331  2.932829
O    0.359707  1.096149  3.962739
H    -0.150518  1.756827  0.910606
H    1.390345  1.257172  1.670435
H    0.252032  0.036279  1.044509
N    -1.656661  0.753982  2.991856
C    -2.589940  0.536268  1.895619
C    -3.208219  1.823535  1.294537
O    -3.918948  1.752298  0.294880
H    -2.014149  0.682220  3.942237
H    -2.047807  0.074543  1.056676
C    -3.714085  -0.415337  2.329896
C    -3.224395  -1.843516  2.560039
C    -4.247693  -2.711553  3.256486
O    -5.186724  -2.317434  3.915076
O    -3.975732  -4.035872  3.080023
H    -4.487341  -0.397946  1.551937
H    -4.187088  -0.032187  3.247375
H    -2.323004  -1.854534  3.196847
H    -2.928799  -2.327590  1.618576
N    -2.903119  2.978052  1.941325
C    -3.396859  4.272195  1.513237
H    -2.291833  2.910962  2.747988
H    -2.569126  4.946996  1.254991
H    -4.018690  4.112866  0.625825
H    -4.005961  4.742532  2.297300
H    -4.656509  -4.519306  3.587735
