28
Energy: -19698.2878524 eV PBE+vdW (tier 2 basis)
C    1.510447  -0.860057  1.806844
C    0.065289  -1.224007  2.082324
O    -0.257776  -2.145901  2.820117
H    1.938645  -0.420755  2.717679
H    1.638820  -0.149801  0.980418
H    2.073038  -1.775032  1.590354
N    -0.873543  -0.443542  1.431604
C    -2.289766  -0.515695  1.759884
C    -3.145359  -1.226995  0.701863
O    -4.382368  -1.195297  0.794827
H    -0.547262  0.381059  0.938626
H    -2.337648  -1.181335  2.639860
C    -2.892872  0.870184  2.105219
C    -3.372890  1.024105  3.550832
C    -4.650831  0.315932  4.029720
O    -5.026943  0.479886  5.171990
O    -5.350817  -0.453350  3.180880
H    -3.711601  1.097973  1.409500
H    -2.119406  1.631748  1.926262
H    -3.555313  2.087935  3.761116
H    -2.581641  0.722408  4.253514
N    -2.489500  -1.882578  -0.273324
C    -3.154642  -2.689745  -1.279760
H    -1.476042  -1.865178  -0.225882
H    -2.841946  -2.387588  -2.287591
H    -4.233555  -2.537552  -1.175965
H    -2.930827  -3.756262  -1.140049
H    -4.936691  -0.598561  2.280139
