28
Energy: -19698.1493991 eV PBE+vdW (tier 2 basis)
C    0.092578  -0.053692  -0.341128
C    0.084533  -0.367652  1.139702
O    1.003625  -0.983378  1.673902
H    0.321669  1.009305  -0.504375
H    -0.867756  -0.291659  -0.811726
H    0.887498  -0.649252  -0.798231
N    -0.952949  0.095759  1.931334
C    -2.252450  0.681946  1.628644
C    -3.245183  -0.313678  0.982564
O    -2.911417  -1.145692  0.144735
H    -0.838332  -0.234021  2.885286
H    -2.663595  0.960399  2.609269
C    -2.205234  1.983249  0.797654
C    -1.421233  3.100093  1.479749
C    -2.130369  3.678337  2.683967
O    -3.224600  3.346138  3.099365
O    -1.391052  4.653274  3.276194
H    -3.240074  2.312806  0.631422
H    -1.779542  1.782966  -0.192113
H    -1.228933  3.930464  0.783593
H    -0.428245  2.752243  1.803824
N    -4.529301  -0.148582  1.416097
C    -5.644573  -0.903870  0.877374
H    -4.713222  0.572014  2.105646
H    -6.351670  -0.251951  0.344692
H    -6.182186  -1.435433  1.674113
H    -5.236097  -1.636230  0.173051
H    -1.917809  4.972613  4.034715
