28
Energy: -19698.1519648 eV PBE+vdW (tier 2 basis)
C    0.354471  1.113486  1.353256
C    0.181762  0.374161  2.671002
O    1.059372  0.374967  3.529941
H    -0.379988  1.924999  1.250735
H    0.244335  0.461556  0.476736
H    1.357810  1.546873  1.348233
N    -0.993657  -0.310048  2.871533
C    -2.184056  -0.322522  2.045854
C    -3.391617  0.122193  2.891958
O    -3.469490  -0.154497  4.086736
H    -1.124172  -0.652682  3.823153
H    -2.046282  0.374385  1.210789
C    -2.476679  -1.730180  1.472998
C    -1.419660  -2.200830  0.479307
C    -1.448120  -1.424157  -0.829740
O    -2.283009  -0.602025  -1.129852
O    -0.439128  -1.706655  -1.705488
H    -3.459159  -1.722216  0.981132
H    -2.536977  -2.437607  2.312119
H    -1.568664  -3.266321  0.238923
H    -0.413724  -2.127977  0.925649
N    -4.351057  0.790335  2.195095
C    -5.609496  1.207418  2.786156
H    -4.194899  0.952841  1.206281
H    -6.460273  0.686208  2.324998
H    -5.754500  2.290660  2.678444
H    -5.573158  0.956335  3.851285
H    0.154727  -2.374796  -1.320060
