28
Energy: -19698.4099104 eV PBE+vdW (tier 2 basis)
C    -0.238451  -0.164057  -0.146024
C    -0.170746  0.015502  1.359057
O    0.885511  0.255000  1.946062
H    0.148041  0.742634  -0.627778
H    -1.249482  -0.365945  -0.520102
H    0.422326  -0.992204  -0.430979
N    -1.361547  -0.096893  2.015739
C    -1.453505  -0.044488  3.461421
C    -2.724128  -0.822503  3.837747
O    -3.627844  -0.974590  3.007665
H    -2.214337  -0.398870  1.547785
H    -0.558682  -0.534570  3.874287
C    -1.455654  1.415623  3.986843
C    -2.643303  2.260304  3.528508
C    -3.887849  2.095239  4.372567
O    -3.937059  1.620721  5.490697
O    -4.984870  2.592472  3.741861
H    -0.522844  1.864923  3.623127
H    -1.406993  1.417920  5.083547
H    -2.899459  2.071757  2.476853
H    -2.384573  3.330260  3.578580
N    -2.818410  -1.336703  5.090167
C    -1.949755  -1.095275  6.229637
H    -3.737949  -1.724141  5.282720
H    -2.052416  -1.927429  6.935743
H    -2.201881  -0.156438  6.745196
H    -0.900651  -1.058398  5.915104
H    -5.730991  2.468997  4.360259
