28
Energy: -19698.0945356 eV PBE+vdW (tier 2 basis)
C    -0.064339  -0.231448  -0.089498
C    -0.032749  -0.033391  1.409368
O    1.041267  0.101491  2.009416
H    0.463642  -1.163611  -0.327688
H    0.486378  0.586874  -0.568222
H    -1.076807  -0.280297  -0.508325
N    -1.242539  -0.020116  2.032944
C    -1.408795  0.025123  3.487643
C    -2.466890  -0.976255  3.998006
O    -2.177081  -1.749973  4.903034
H    -2.061812  -0.113742  1.446422
H    -0.475382  -0.364057  3.911919
C    -1.653126  1.444305  4.044631
C    -0.473992  2.417633  3.855812
C    0.690376  2.126445  4.807213
O    0.773615  2.657942  5.894980
O    1.609336  1.233290  4.395270
H    -1.878624  1.352488  5.117330
H    -2.544980  1.881417  3.572085
H    -0.817601  3.429806  4.099318
H    -0.141259  2.420419  2.807781
N    -3.735322  -0.965727  3.472218
C    -4.320000  -0.169018  2.408951
H    -4.320505  -1.684431  3.888451
H    -5.397884  -0.073842  2.584838
H    -4.189073  -0.621906  1.409805
H    -3.910782  0.847524  2.395358
H    1.385318  0.852393  3.500495
