28
Energy: -19698.1028866 eV PBE+vdW (tier 2 basis)
C    -0.008650  -0.788970  1.545626
C    -0.812101  -0.000377  2.559894
O    -0.401624  0.209533  3.697072
H    0.679057  -1.439945  2.092926
H    0.590915  -0.095370  0.939465
H    -0.619009  -1.387115  0.859259
N    -2.048183  0.488090  2.173446
C    -2.659311  0.501989  0.842857
C    -3.061960  -0.912454  0.344859
O    -3.099971  -1.179433  -0.853049
H    -2.453145  1.097780  2.878251
H    -3.624456  1.013244  0.985768
C    -1.862764  1.282672  -0.230635
C    -2.697438  2.272523  -1.068668
C    -3.680253  1.604454  -2.006053
O    -3.468868  1.320642  -3.163066
O    -4.875536  1.356219  -1.388140
H    -1.360528  0.578488  -0.906005
H    -1.089604  1.867176  0.284896
H    -2.018458  2.863317  -1.694946
H    -3.239379  2.960256  -0.403340
N    -3.414895  -1.779745  1.330665
C    -3.847354  -3.137433  1.064455
H    -3.267611  -1.476547  2.287336
H    -4.832251  -3.330978  1.510715
H    -3.129830  -3.871107  1.458838
H    -3.916213  -3.258283  -0.021817
H    -5.405113  0.850345  -2.034715
