28
Energy: -19698.116264 eV PBE+vdW (tier 2 basis)
C    0.134802  0.300146  0.715667
C    -0.150394  -0.520701  1.956050
O    0.708902  -1.242654  2.453579
H    1.158365  0.677272  0.795797
H    -0.544738  1.139471  0.542927
H    0.083716  -0.365483  -0.157406
N    -1.425111  -0.522034  2.504546
C    -2.554199  0.402020  2.358513
C    -2.959695  0.657177  0.885180
O    -3.328908  1.761632  0.494707
H    -1.433860  -1.078903  3.356441
H    -3.415701  -0.155952  2.764484
C    -2.488723  1.694343  3.195805
C    -1.315981  2.650602  2.956542
C    0.043442  2.243043  3.482584
O    1.102039  2.538545  2.968925
O    -0.029580  1.531992  4.645229
H    -2.511755  1.408902  4.256327
H    -3.418812  2.240269  2.989002
H    -1.547588  3.601029  3.465617
H    -1.199121  2.904479  1.897338
N    -2.950858  -0.459465  0.106832
C    -3.264426  -0.429374  -1.308097
H    -2.546072  -1.298803  0.507939
H    -3.937080  -1.255397  -1.571740
H    -2.356787  -0.498924  -1.926980
H    -3.760716  0.522666  -1.522526
H    0.894224  1.317107  4.879933
