28
Energy: -19698.0039634 eV PBE+vdW (tier 2 basis)
C    -2.846414  0.867227  -0.401746
C    -2.042353  1.347757  0.791744
O    -1.558203  2.473689  0.850323
H    -2.471910  -0.080742  -0.810984
H    -2.790050  1.639623  -1.172771
H    -3.902986  0.715370  -0.137642
N    -1.885827  0.471181  1.843672
C    -2.311393  -0.917727  1.929773
C    -2.890482  -1.219648  3.329175
O    -2.497624  -2.185867  3.998214
H    -1.281345  0.828483  2.579926
H    -3.144627  -1.049567  1.220186
C    -1.164549  -1.864955  1.519480
C    -1.456094  -3.383649  1.488331
C    -2.863979  -3.699763  1.004260
O    -3.183920  -3.779223  -0.160647
O    -3.796017  -3.855375  1.987680
H    -0.308025  -1.688090  2.184713
H    -0.858787  -1.540127  0.515568
H    -1.291302  -3.810102  2.483726
H    -0.760181  -3.859008  0.786933
N    -3.868525  -0.404469  3.801013
C    -4.587530  0.667857  3.125722
H    -4.195590  -0.683268  4.721261
H    -4.853421  0.384696  2.099275
H    -4.014000  1.603116  3.095134
H    -5.521276  0.845218  3.669809
H    -3.377554  -3.649538  2.852204
