28
Energy: -19698.0277441 eV PBE+vdW (tier 2 basis)
C    -0.090225  -0.401958  0.413065
C    -0.086285  -0.140931  1.904459
O    0.838930  0.445242  2.461669
H    0.650829  0.261333  -0.040756
H    -1.066973  -0.247671  -0.058617
H    0.205839  -1.441571  0.212531
N    -1.139270  -0.611643  2.661445
C    -2.375936  -1.291154  2.271845
C    -2.117486  -2.509492  1.350651
O    -2.624899  -2.598368  0.234082
H    -1.039160  -0.363305  3.641302
H    -2.775504  -1.706315  3.213560
C    -3.435365  -0.340487  1.695429
C    -4.834199  -0.949550  1.655982
C    -5.893110  0.040395  1.232364
O    -5.714926  1.203519  0.938869
O    -7.129106  -0.539946  1.214222
H    -3.145635  -0.028579  0.684271
H    -3.440954  0.565886  2.315805
H    -5.132007  -1.348744  2.639896
H    -4.871821  -1.801657  0.962081
N    -1.311196  -3.496263  1.841229
C    -0.630069  -3.576510  3.123610
H    -1.166995  -4.252216  1.179061
H    -0.353637  -4.621494  3.302875
H    -1.288935  -3.267010  3.945743
H    0.279435  -2.960198  3.159298
H    -7.746510  0.160567  0.927350
