28
Energy: -19698.242894 eV PBE+vdW (tier 2 basis)
C    -0.638527  -1.177821  0.867764
C    -0.027985  0.053274  1.517506
O    1.178816  0.146447  1.724491
H    0.174878  -1.863995  0.618901
H    -1.184820  -0.924012  -0.052132
H    -1.340950  -1.688518  1.540492
N    -0.881328  1.070433  1.864796
C    -2.312741  1.163458  1.666649
C    -2.654290  2.667105  1.582704
O    -1.916272  3.520984  2.070379
H    -0.444064  1.924212  2.213477
H    -2.587795  0.689815  0.710541
C    -3.139667  0.479895  2.785873
C    -2.874807  1.050484  4.174981
C    -3.629483  0.316173  5.256811
O    -4.343588  -0.653134  5.101090
O    -3.413822  0.880282  6.478814
H    -2.908311  -0.593664  2.783152
H    -4.210719  0.554926  2.546209
H    -3.134442  2.117878  4.242470
H    -1.802558  1.001315  4.420749
N    -3.838395  2.951919  0.976366
C    -4.365280  4.300816  0.866920
H    -4.370533  2.188115  0.576625
H    -5.335824  4.389734  1.374053
H    -4.483337  4.595180  -0.184725
H    -3.648215  4.975277  1.345666
H    -3.925192  0.343997  7.115402
