28
Energy: -19697.8042456 eV PBE+vdW (tier 2 basis)
C    -0.219898  0.013368  -0.050707
C    -0.125450  -0.078579  1.456987
O    0.948187  -0.199227  2.039780
H    0.771469  -0.196258  -0.460337
H    -0.514517  1.028557  -0.349385
H    -0.939558  -0.704641  -0.464633
N    -1.289792  0.007377  2.191687
C    -2.685443  0.107385  1.766004
C    -3.106497  -1.159156  0.960349
O    -2.966845  -2.246806  1.513653
H    -1.124834  -0.164436  3.178083
H    -3.254700  -0.052599  2.694546
C    -3.069131  1.517475  1.279613
C    -2.684844  2.591960  2.306728
C    -1.212769  2.944047  2.235905
O    -0.606714  3.169480  1.207530
O    -0.638936  3.018978  3.464174
H    -4.155546  1.548537  1.116957
H    -2.589000  1.776058  0.328759
H    -2.954401  2.297848  3.329441
H    -3.231888  3.520056  2.080559
N    -3.661508  -1.102119  -0.291320
C    -3.829958  -0.027392  -1.260161
H    -3.904301  -2.036508  -0.608079
H    -4.150344  -0.481903  -2.203619
H    -2.894293  0.511189  -1.455713
H    -4.600580  0.696107  -0.961915
H    0.304453  3.225982  3.311343
