28
Energy: -19698.0102087 eV PBE+vdW (tier 2 basis)
C    0.275335  0.480767  0.029226
C    0.140008  0.674605  1.525392
O    0.950128  1.327664  2.179782
H    0.615743  1.417976  -0.422754
H    -0.651959  0.154326  -0.457989
H    1.049548  -0.280010  -0.144047
N    -0.914056  0.020328  2.103533
C    -1.185874  0.034209  3.540910
C    -1.581500  1.468718  3.998457
O    -2.663001  1.898290  3.593148
H    -1.623051  -0.373511  1.498891
H    -2.149857  -0.485044  3.644854
C    -0.151757  -0.782795  4.331959
C    -0.223277  -2.279448  3.986966
C    0.353739  -2.612640  2.627256
O    1.468578  -2.329874  2.243657
O    -0.525904  -3.325886  1.859241
H    -0.357666  -0.666765  5.405243
H    0.865466  -0.421049  4.146271
H    -1.251780  -2.657177  4.057597
H    0.383138  -2.841016  4.713493
N    -0.825443  2.198842  4.866082
C    0.578727  2.081977  5.245446
H    -1.278437  3.085017  5.070686
H    0.916926  3.068499  5.581218
H    1.187663  1.786954  4.383845
H    0.730075  1.377020  6.075611
H    -0.047082  -3.528619  1.031542
