28
Energy: -19698.1478645 eV PBE+vdW (tier 2 basis)
C    -0.410457  0.224679  -0.381408
C    -0.110478  0.123041  1.103962
O    1.026758  0.258405  1.545976
H    0.523988  0.481943  -0.886716
H    -1.152926  1.006425  -0.597864
H    -0.787051  -0.720714  -0.794662
N    -1.157073  -0.150705  1.955993
C    -2.576187  -0.189865  1.670646
C    -3.292329  0.801857  2.609215
O    -2.870925  1.000531  3.746518
H    -0.924506  -0.060508  2.944932
H    -2.730353  0.096813  0.622743
C    -3.181465  -1.595324  1.913467
C    -2.658914  -2.658069  0.942664
C    -3.087888  -2.481182  -0.495982
O    -2.371091  -2.589842  -1.467985
O    -4.421858  -2.192371  -0.610153
H    -4.277682  -1.542260  1.858911
H    -2.931195  -1.891438  2.942066
H    -3.024039  -3.647954  1.260167
H    -1.563481  -2.701805  0.953455
N    -4.429926  1.391430  2.143251
C    -4.990761  1.312624  0.802538
H    -4.864548  2.021065  2.810806
H    -5.962091  1.818107  0.806333
H    -5.159517  0.273980  0.488022
H    -4.356445  1.810505  0.052662
H    -4.595413  -2.140908  -1.570339
