28
Energy: -19698.0321461 eV PBE+vdW (tier 2 basis)
C    -1.030296  0.913686  -0.114747
C    -0.672580  0.467739  1.294065
O    0.425723  -0.025081  1.548902
H    -0.277187  1.635520  -0.453833
H    -2.025917  1.364609  -0.208722
H    -0.970277  0.044090  -0.781096
N    -1.662896  0.661076  2.220041
C    -1.708622  0.333124  3.652333
C    -1.631826  1.574848  4.579289
O    -2.529071  1.744687  5.406206
H    -2.509471  1.095429  1.871568
H    -2.737831  -0.008897  3.835589
C    -0.778068  -0.786075  4.144690
C    -1.044896  -2.127388  3.469023
C    -0.296163  -3.266470  4.120248
O    0.424006  -3.192708  5.092974
O    -0.529501  -4.443442  3.467689
H    -0.962312  -0.879045  5.224347
H    0.276493  -0.519969  4.024043
H    -0.751960  -2.104163  2.409545
H    -2.116875  -2.383338  3.485501
N    -0.582735  2.439288  4.492019
C    0.563518  2.454712  3.598741
H    -0.674324  3.210472  5.147353
H    1.436992  2.832325  4.144497
H    0.394575  3.102331  2.723554
H    0.803541  1.451983  3.232451
H    -0.013347  -5.119117  3.948519
