28
Energy: -19698.0637649 eV PBE+vdW (tier 2 basis)
C    1.700566  0.027082  0.493411
C    0.526552  0.536935  1.306154
O    -0.539656  0.866096  0.802233
H    1.701242  0.520360  -0.483294
H    1.567770  -1.052546  0.332101
H    2.669113  0.187020  0.985754
N    0.746248  0.566124  2.668799
C    -0.332975  0.801066  3.612299
C    -0.327508  2.154635  4.355477
O    -1.396938  2.715185  4.581217
H    1.618889  0.180358  3.008757
H    -1.240532  0.855290  2.995098
C    -0.483837  -0.345358  4.631869
C    -0.678470  -1.715980  3.970595
C    0.534759  -2.333604  3.314236
O    0.535416  -2.978999  2.289153
O    1.685558  -2.141140  4.044954
H    -1.363690  -0.117125  5.248347
H    0.377233  -0.378704  5.315687
H    -1.468907  -1.685012  3.210523
H    -1.000958  -2.438714  4.737941
N    0.850343  2.692585  4.800105
C    2.206741  2.175951  4.738620
H    0.709627  3.583079  5.266946
H    2.815956  2.724642  5.465808
H    2.664763  2.302166  3.746251
H    2.254404  1.114926  5.021144
H    2.373446  -2.649179  3.572543
