28
Energy: -19698.4226974 eV PBE+vdW (tier 2 basis)
C    0.982660  0.238654  0.697092
C    0.276050  -0.509334  1.807167
O    -0.040061  -1.696324  1.706420
H    1.209205  1.281864  0.946553
H    0.354397  0.210716  -0.201871
H    1.916938  -0.285034  0.460118
N    0.029760  0.221820  2.939430
C    -0.693939  -0.367228  4.056620
C    -2.198842  -0.084695  3.911811
O    -2.645457  1.079892  3.911352
H    0.166603  1.229101  2.920181
H    -0.518341  -1.444016  3.954656
C    -0.142635  0.051412  5.438792
C    -0.457116  1.459232  5.987466
C    0.055207  2.598333  5.110420
O    1.103260  3.174131  5.309418
O    -0.724182  2.911404  4.046449
H    0.947739  -0.084266  5.392534
H    -0.516641  -0.679093  6.171907
H    0.043272  1.561174  6.957468
H    -1.538358  1.569688  6.148838
N    -3.033959  -1.136158  3.785404
C    -2.692831  -2.550598  3.659041
H    -4.011257  -0.869922  3.700876
H    -1.876379  -2.690145  2.938628
H    -3.575818  -3.079991  3.286606
H    -2.415337  -2.993276  4.626652
H    -1.529938  2.303660  4.019971
