28
Energy: -19698.3830989 eV PBE+vdW (tier 2 basis)
C    -1.736917  2.351125  1.091695
C    -1.267725  1.289771  2.065965
O    -0.266455  0.601799  1.829606
H    -2.026041  1.858190  0.154565
H    -0.896980  3.018364  0.864836
H    -2.583962  2.946419  1.453259
N    -2.017593  1.155424  3.195603
C    -1.868375  0.139242  4.249594
C    -0.613541  0.310670  5.147915
O    -0.749137  0.379517  6.371075
H    -2.788725  1.800780  3.310554
H    -2.694576  0.327373  4.946848
C    -2.016789  -1.290905  3.695784
C    -1.938991  -2.347869  4.794196
C    -2.294291  -3.729698  4.297726
O    -2.792530  -4.002820  3.225740
O    -1.998014  -4.680016  5.231247
H    -1.247028  -1.480954  2.937290
H    -2.985387  -1.362688  3.181834
H    -2.624456  -2.115185  5.626312
H    -0.942281  -2.390642  5.256122
N    0.574990  0.312182  4.498303
C    1.839644  0.456403  5.191767
H    0.543821  0.293945  3.471517
H    2.528261  -0.353442  4.914716
H    1.646981  0.412937  6.268960
H    2.318794  1.417944  4.955612
H    -2.278818  -5.530960  4.842144
