28
Energy: -19698.1713477 eV PBE+vdW (tier 2 basis)
C    0.075468  0.852127  1.270465
C    -0.142167  -0.262106  2.271707
O    0.752153  -0.634761  3.027416
H    1.148944  1.056965  1.236830
H    -0.440811  1.766036  1.596448
H    -0.282250  0.571840  0.273307
N    -1.390688  -0.850336  2.384815
C    -2.599404  -0.804662  1.568180
C    -2.432312  -1.536817  0.209972
O    -1.461759  -1.350453  -0.521101
H    -1.359010  -1.608298  3.060624
H    -3.339453  -1.364837  2.156367
C    -3.162198  0.618300  1.370378
C    -4.578118  0.668110  0.751163
C    -5.602917  -0.062979  1.583113
O    -5.773618  -1.271841  1.597621
O    -6.323163  0.773281  2.370615
H    -2.503084  1.194587  0.710383
H    -3.164073  1.120569  2.348239
H    -4.568734  0.205870  -0.244710
H    -4.879698  1.716084  0.641095
N    -3.456967  -2.384162  -0.084884
C    -3.531615  -3.104013  -1.342151
H    -4.275134  -2.370054  0.523036
H    -3.714906  -4.172188  -1.166694
H    -2.572779  -2.982476  -1.856737
H    -4.332262  -2.710729  -1.986175
H    -6.930378  0.209768  2.890477
