28
Energy: -19698.1274551 eV PBE+vdW (tier 2 basis)
C    0.140502  0.471884  0.284378
C    -0.030962  0.253476  1.774392
O    0.918772  0.311426  2.548159
H    0.920946  1.225608  0.142019
H    -0.766739  0.775037  -0.247604
H    0.495437  -0.465929  -0.165771
N    -1.284464  -0.095577  2.252346
C    -2.589851  0.037954  1.598998
C    -2.721855  -0.862458  0.342069
O    -3.395556  -0.525584  -0.629221
H    -1.289322  -0.152105  3.267732
H    -3.306563  -0.389430  2.320753
C    -3.012299  1.497977  1.340490
C    -4.530935  1.667407  1.204087
C    -4.999169  3.097482  1.083783
O    -5.974765  3.566301  1.631930
O    -4.207362  3.834067  0.249214
H    -2.518232  1.884432  0.440685
H    -2.647930  2.094639  2.189285
H    -5.062458  1.236649  2.062777
H    -4.869548  1.131707  0.303947
N    -2.081863  -2.057733  0.442784
C    -2.090540  -3.045856  -0.617747
H    -1.484550  -2.193045  1.251690
H    -2.388001  -4.029587  -0.231396
H    -1.102705  -3.136042  -1.093084
H    -2.814937  -2.721116  -1.371890
H    -4.611293  4.723104  0.221622
