28
Energy: -19698.3995997 eV PBE+vdW (tier 2 basis)
C    -0.147307  -0.562028  0.512343
C    -0.175197  -0.216726  1.986948
O    0.811629  -0.288751  2.708789
H    0.887411  -0.774896  0.233084
H    -0.533772  0.254577  -0.112961
H    -0.760317  -1.451052  0.305275
N    -1.386560  0.212153  2.506473
C    -2.678395  0.241930  1.836616
C    -2.912943  1.519642  1.004817
O    -3.823504  1.568815  0.160072
H    -1.374540  0.310616  3.519100
H    -2.737436  -0.587251  1.116037
C    -3.788960  0.044144  2.894599
C    -5.240917  0.051955  2.385312
C    -5.517959  -1.043388  1.351479
O    -5.969805  -2.127701  1.653210
O    -5.206182  -0.740852  0.074111
H    -3.683483  0.829935  3.660321
H    -3.589604  -0.917880  3.389093
H    -5.500636  1.037515  1.976397
H    -5.900063  -0.146413  3.238305
N    -2.091997  2.554239  1.266569
C    -2.168894  3.833631  0.585679
H    -1.349184  2.377826  1.937176
H    -2.323226  4.648165  1.305421
H    -3.016476  3.799328  -0.105972
H    -1.249850  4.030906  0.017617
H    -4.774240  0.162543  0.029752
