28
Energy: -19698.0166883 eV PBE+vdW (tier 2 basis)
C    0.769887  -0.073400  0.343861
C    0.060884  -0.380132  1.646220
O    0.578499  -0.253356  2.743611
H    1.499702  0.723314  0.516296
H    0.082728  0.222766  -0.458504
H    1.319615  -0.968159  0.017490
N    -1.263487  -0.813181  1.500609
C    -1.944380  -1.456247  2.645225
C    -3.071299  -2.394339  2.190598
O    -3.348540  -3.389789  2.850247
H    -1.468890  -1.227405  0.592646
H    -1.216749  -2.093844  3.164968
C    -2.461610  -0.422982  3.681976
C    -3.824905  0.241011  3.442505
C    -4.075905  1.183098  2.264756
O    -5.093424  1.830058  2.176178
O    -3.139120  1.259761  1.276975
H    -1.671087  0.325782  3.825651
H    -2.537278  -0.963070  4.635443
H    -4.085113  0.830683  4.332461
H    -4.616991  -0.522059  3.377415
N    -3.734600  -2.050531  1.041879
C    -4.895401  -2.809935  0.598572
H    -3.644505  -1.100996  0.690747
H    -5.063395  -2.622999  -0.467392
H    -5.802416  -2.538531  1.159425
H    -4.703391  -3.875650  0.758123
H    -2.360828  0.674131  1.461019
