28
Energy: -19698.2624934 eV PBE+vdW (tier 2 basis)
C    0.439089  -0.826243  0.301676
C    -0.069143  0.351995  1.110245
O    0.581545  1.390273  1.241115
H    1.406736  -1.142080  0.710577
H    0.611997  -0.497235  -0.730579
H    -0.245560  -1.682976  0.294237
N    -1.298090  0.185191  1.678845
C    -1.902418  1.201948  2.516441
C    -2.750990  0.456532  3.556195
O    -3.335539  -0.580904  3.240429
H    -1.814455  -0.688229  1.611554
H    -1.077427  1.768642  2.969760
C    -2.751164  2.175433  1.658913
C    -3.313591  3.393470  2.395559
C    -4.621412  3.141692  3.114884
O    -5.473306  2.346304  2.786612
O    -4.773310  3.977658  4.188586
H    -3.574012  1.614040  1.195014
H    -2.087505  2.522200  0.856436
H    -3.540728  4.182569  1.659856
H    -2.586964  3.841111  3.086158
N    -2.872460  0.981636  4.809094
C    -2.136955  2.058052  5.453894
H    -3.508789  0.441038  5.389373
H    -1.777520  1.723473  6.436098
H    -1.260467  2.333624  4.860301
H    -2.758070  2.954381  5.593003
H    -5.665184  3.790626  4.541713
