28
Energy: -19698.6120467 eV PBE+vdW (tier 2 basis)
C    -0.694923  0.360793  -1.067010
C    -0.472253  -0.337552  0.257408
O    0.594068  -0.921832  0.513343
H    0.079782  1.127603  -1.193673
H    -1.682613  0.829225  -1.149234
H    -0.569283  -0.366407  -1.878880
N    -1.508449  -0.285066  1.128753
C    -1.424881  -0.773534  2.503727
C    -1.628309  -2.315021  2.606659
O    -2.555780  -2.823784  3.243826
H    -2.362407  0.226339  0.881991
H    -0.390641  -0.584635  2.837354
C    -2.359738  0.010440  3.435258
C    -3.880724  -0.163500  3.270476
C    -4.542500  0.594776  2.155127
O    -4.025736  0.988364  1.117996
O    -5.860664  0.800154  2.401094
H    -2.090343  1.075071  3.371006
H    -2.121439  -0.311102  4.457488
H    -4.391033  0.110918  4.202991
H    -4.101493  -1.234285  3.123861
N    -0.671968  -3.015183  1.953676
C    -0.676662  -4.461455  1.870596
H    0.030858  -2.465187  1.441925
H    0.270228  -4.876692  2.242373
H    -0.823269  -4.800365  0.834600
H    -1.498939  -4.838633  2.487710
H    -6.218502  1.250164  1.610818
