28
Energy: -19698.2000816 eV PBE+vdW (tier 2 basis)
C    -0.075430  0.418503  -0.104773
C    -0.356182  0.975191  1.273980
O    0.067057  2.074292  1.639773
H    0.947438  0.015586  -0.103649
H    -0.113940  1.234742  -0.833549
H    -0.764237  -0.379655  -0.407507
N    -1.098025  0.162012  2.092887
C    -1.330725  0.388116  3.525090
C    -1.794008  1.836088  3.842204
O    -1.431942  2.410998  4.863149
H    -1.299900  -0.769201  1.745727
H    -2.204197  -0.238137  3.771337
C    -0.193655  -0.072999  4.451087
C    1.183873  0.554396  4.200579
C    1.968899  -0.146964  3.098126
O    2.108725  -1.348554  3.034056
O    2.572037  0.655905  2.175901
H    -0.096462  -1.166115  4.380773
H    -0.514548  0.165794  5.472481
H    1.793129  0.422087  5.107772
H    1.095871  1.633822  4.031296
N    -2.720694  2.340529  2.980640
C    -3.176961  3.714965  3.078098
H    -2.834502  1.861868  2.094557
H    -4.196164  3.797089  2.682454
H    -2.518332  4.404456  2.527533
H    -3.174481  4.006153  4.133336
H    2.169002  1.545266  2.221647
