28
Energy: -19698.0685714 eV PBE+vdW (tier 2 basis)
C    -0.028717  -0.377243  0.076460
C    -0.019604  -0.028679  1.554221
O    1.030830  0.102160  2.177057
H    0.912976  -0.887009  -0.146051
H    -0.057341  0.545338  -0.520472
H    -0.869939  -1.005137  -0.236181
N    -1.226921  0.154609  2.189643
C    -2.589840  0.080253  1.669289
C    -3.318575  1.375481  2.096272
O    -4.002312  1.419112  3.116950
H    -1.126441  0.380861  3.177651
H    -2.531225  0.034609  0.576839
C    -3.358710  -1.141826  2.195876
C    -2.737186  -2.497908  1.850378
C    -2.967514  -3.056130  0.463300
O    -2.887137  -4.227230  0.164861
O    -3.266470  -2.093581  -0.467965
H    -4.393273  -1.087897  1.829466
H    -3.426402  -1.048420  3.288078
H    -3.095453  -3.273006  2.539620
H    -1.644111  -2.468766  1.998645
N    -3.144374  2.476410  1.306724
C    -2.247669  2.639112  0.174749
H    -3.570610  3.312407  1.695461
H    -2.484276  3.586163  -0.321866
H    -2.386328  1.839533  -0.564438
H    -1.189071  2.661312  0.475628
H    -3.384883  -2.577357  -1.308775
