28
Energy: -19698.0554043 eV PBE+vdW (tier 2 basis)
C    -0.114355  1.955470  0.168550
C    -0.042087  1.217105  1.490190
O    1.042744  1.083288  2.072460
H    0.527456  1.438150  -0.555484
H    0.301274  2.961016  0.308534
H    -1.125780  2.039882  -0.246262
N    -1.232989  0.748380  1.954573
C    -1.575078  -0.002366  3.174612
C    -2.389618  0.828366  4.199372
O    -3.449840  0.364797  4.617324
H    -2.031215  0.942478  1.360489
H    -2.311015  -0.754433  2.855817
C    -0.422651  -0.751561  3.858400
C    0.228155  -1.828251  2.964491
C    1.693920  -2.070026  3.315378
O    2.117855  -3.116337  3.753195
O    2.514818  -1.013593  3.106786
H    -0.854915  -1.232005  4.746780
H    0.330773  -0.046326  4.223672
H    0.181299  -1.525617  1.907302
H    -0.300820  -2.782835  3.057434
N    -1.917440  2.027717  4.643645
C    -0.715759  2.766451  4.291246
H    -2.556498  2.464359  5.301905
H    -0.880254  3.448377  3.441806
H    0.112284  2.098686  4.034862
H    -0.404468  3.364063  5.155910
H    2.004787  -0.249287  2.735868
