28
Energy: -19698.3242414 eV PBE+vdW (tier 2 basis)
C    -2.397711  2.092424  1.714445
C    -1.498013  1.203641  2.545392
O    -0.317753  1.459513  2.752133
H    -2.725169  2.925543  2.352828
H    -3.287369  1.577860  1.328738
H    -1.824402  2.510735  0.881044
N    -2.108973  0.082641  3.079279
C    -1.486991  -0.683859  4.151049
C    -1.102809  -2.126554  3.760050
O    -0.835897  -2.963228  4.620090
H    -3.109638  -0.015416  2.942179
H    -0.530131  -0.168597  4.337689
C    -2.319268  -0.693201  5.446110
C    -2.866266  0.679522  5.869570
C    -1.880046  1.828213  5.870294
O    -2.093044  2.925759  5.398046
O    -0.707477  1.503007  6.479604
H    -1.688250  -1.123726  6.231365
H    -3.171801  -1.381170  5.334181
H    -3.267086  0.593763  6.891912
H    -3.699448  1.002365  5.234155
N    -1.058124  -2.369242  2.422256
C    -0.605551  -3.630452  1.871155
H    -1.254613  -1.588447  1.806226
H    -0.477182  -4.329068  2.705039
H    0.357258  -3.519459  1.351598
H    -1.342891  -4.040702  1.167849
H    -0.133356  2.289136  6.394725
