28
Energy: -19697.9370396 eV PBE+vdW (tier 2 basis)
C    -0.073361  1.157544  -0.098551
C    0.144738  0.325656  1.153206
O    1.228558  -0.178641  1.426873
H    0.690502  1.943123  -0.136348
H    -1.066392  1.620248  -0.159235
H    0.073986  0.514790  -0.975952
N    -0.957345  0.190515  1.964417
C    -0.968176  -0.739156  3.100227
C    -2.414313  -1.094706  3.483115
O    -2.776843  -2.267221  3.497212
H    -1.854215  0.463953  1.579027
H    -0.535329  -1.692472  2.769287
C    -0.118773  -0.226601  4.288709
C    -0.330392  -0.986262  5.601815
C    0.036683  -2.457960  5.648495
O    -0.373241  -3.237425  6.480892
O    0.923075  -2.812427  4.677418
H    -0.338140  0.835251  4.464013
H    0.931087  -0.282178  3.977218
H    -1.368731  -0.925503  5.956733
H    0.277726  -0.509503  6.387385
N    -3.301619  -0.085640  3.778442
C    -3.042388  1.302920  4.134615
H    -4.207718  -0.460998  4.047889
H    -3.941318  1.896476  3.928881
H    -2.224987  1.714800  3.534298
H    -2.785039  1.423759  5.199240
H    1.095669  -3.764854  4.809516
