28
Energy: -19698.3212987 eV PBE+vdW (tier 2 basis)
C    -1.612656  -0.226976  0.218896
C    -0.677640  -0.096709  1.406012
O    0.405828  0.471054  1.330436
H    -1.962834  0.774679  -0.062324
H    -2.484221  -0.866302  0.407324
H    -1.049956  -0.625398  -0.633388
N    -1.128176  -0.677007  2.574744
C    -0.451652  -0.487163  3.850519
C    0.069815  -1.798812  4.483488
O    0.395670  -1.841187  5.666858
H    -2.086897  -1.010123  2.597603
H    0.448173  0.102741  3.606676
C    -1.317225  0.286279  4.852863
C    -1.565456  1.738149  4.412942
C    -2.471874  2.468384  5.373845
O    -2.135725  3.319934  6.167728
O    -3.767840  2.039108  5.265164
H    -0.804413  0.259360  5.822446
H    -2.276880  -0.237386  4.988876
H    -2.027868  1.758108  3.414801
H    -0.619577  2.289886  4.364210
N    0.165810  -2.854211  3.630355
C    0.742162  -4.125417  4.021489
H    -0.085155  -2.690108  2.662083
H    0.899746  -4.098776  5.105006
H    1.709789  -4.297028  3.528119
H    0.065977  -4.955197  3.775712
H    -4.268924  2.540118  5.937515
