28
Energy: -19698.3052717 eV PBE+vdW (tier 2 basis)
C    1.951798  -1.949953  1.206621
C    1.085053  -1.527188  2.369253
O    1.165222  -2.072626  3.480790
H    2.076463  -1.164535  0.451379
H    1.478041  -2.816913  0.724566
H    2.931576  -2.258685  1.583937
N    0.188176  -0.537117  2.101245
C    -0.903572  -0.068386  2.967276
C    -0.481220  0.763839  4.207629
O    -1.081107  1.809961  4.456805
H    0.192900  -0.164229  1.159368
H    -1.458449  0.657268  2.359718
C    -1.884291  -1.184812  3.381708
C    -2.651520  -1.806150  2.202668
C    -1.819315  -2.559639  1.174619
O    -1.803892  -2.307199  -0.007826
O    -1.078700  -3.610049  1.643039
H    -2.615206  -0.732687  4.066666
H    -1.348216  -1.947436  3.966037
H    -3.198276  -1.030992  1.651683
H    -3.401721  -2.509876  2.598223
N    0.507650  0.234173  4.965530
C    0.990172  0.876732  6.172075
H    0.887150  -0.673403  4.671958
H    2.074311  1.046430  6.117526
H    0.776039  0.265427  7.060732
H    0.479386  1.839920  6.274618
H    -1.096402  -3.634176  2.616693
