28
Energy: -19698.2928607 eV PBE+vdW (tier 2 basis)
C    -0.784948  -1.600926  0.153387
C    -0.581996  -0.551779  1.226934
O    0.522483  -0.080065  1.486814
H    -0.495300  -1.171361  -0.813947
H    -1.814984  -1.971340  0.083735
H    -0.111538  -2.443668  0.350320
N    -1.717699  -0.170250  1.899860
C    -1.721622  0.914389  2.873689
C    -2.301043  0.394849  4.204008
O    -3.435889  0.716374  4.594485
H    -2.611881  -0.549859  1.608234
H    -0.661430  1.177907  3.006038
C    -2.486148  2.136739  2.355957
C    -2.416075  3.366118  3.294511
C    -3.781344  3.961827  3.639618
O    -4.073136  5.118223  3.422651
O    -4.659019  3.111462  4.212474
H    -3.532736  1.851566  2.176654
H    -2.059931  2.394020  1.378179
H    -1.819650  4.167045  2.846927
H    -1.926105  3.096946  4.244519
N    -1.542899  -0.450833  4.940376
C    -0.251465  -1.039908  4.620816
H    -2.021689  -0.788492  5.771547
H    0.320777  -1.170347  5.546625
H    0.323541  -0.395129  3.948558
H    -0.362236  -2.019990  4.132788
H    -4.243055  2.213668  4.334336
