28
Energy: -19698.0335905 eV PBE+vdW (tier 2 basis)
C    0.169887  0.753324  0.264751
C    0.268326  0.522558  1.764744
O    1.333947  0.657691  2.363571
H    0.859935  0.064741  -0.238511
H    0.509619  1.773207  0.046162
H    -0.835908  0.614780  -0.150694
N    -0.912165  0.166451  2.361483
C    -1.201724  -0.194355  3.754681
C    -2.011089  0.887513  4.520874
O    -3.087186  0.550362  5.024845
H    -1.722573  0.142107  1.753861
H    -1.946376  -1.001186  3.688714
C    -0.009543  -0.773030  4.541289
C    -0.445501  -1.419458  5.859436
C    -0.619005  -0.450132  7.009496
O    -0.156916  0.670744  7.077324
O    -1.336703  -1.009913  8.020117
H    0.758164  -0.018171  4.734369
H    0.459621  -1.538321  3.908830
H    0.327485  -2.132957  6.187592
H    -1.369612  -2.005124  5.755197
N    -1.565749  2.169070  4.597502
C    -0.226798  2.699887  4.390190
H    -2.191601  2.737456  5.163112
H    0.380070  2.023544  3.782531
H    0.286597  2.840236  5.352508
H    -0.286266  3.664762  3.868826
H    -1.383714  -0.333349  8.723121
