28
Energy: -19698.1109774 eV PBE+vdW (tier 2 basis)
C    -0.788247  -0.270783  0.386554
C    -0.510071  -1.112516  1.622476
O    -0.143151  -2.282273  1.537774
H    -0.099439  0.583031  0.310562
H    -1.812379  0.127265  0.378304
H    -0.647786  -0.910573  -0.488324
N    -0.665990  -0.511900  2.845714
C    -1.179836  0.818060  3.133126
C    -0.372272  1.504339  4.267431
O    -0.936144  2.023128  5.230204
H    -0.552682  -1.130204  3.651645
H    -1.019356  1.438873  2.238138
C    -2.691291  0.842462  3.446970
C    -3.212639  -0.325077  4.312761
C    -2.455493  -0.518541  5.606742
O    -1.377709  -1.080957  5.702589
O    -3.108822  -0.006895  6.675501
H    -3.242138  0.805618  2.496403
H    -2.922954  1.798003  3.932838
H    -3.124193  -1.265185  3.752124
H    -4.273268  -0.154179  4.530779
N    0.985316  1.537281  4.146570
C    1.836671  1.099634  3.050689
H    1.433032  1.980994  4.941977
H    1.422110  1.393443  2.077532
H    1.996584  0.013136  3.045346
H    2.807757  1.596945  3.154004
H    -2.510195  -0.120317  7.439823
