28
Energy: -19698.6299998 eV PBE+vdW (tier 2 basis)
C    0.142975  1.220474  0.784248
C    -0.138416  0.770680  2.199634
O    0.695933  0.966276  3.100580
H    0.342439  2.299035  0.788326
H    -0.674664  1.006193  0.086843
H    1.055593  0.722058  0.434151
N    -1.331301  0.167382  2.401059
C    -1.756316  -0.474196  3.634190
C    -2.660978  -1.647799  3.208696
O    -3.209551  -1.656300  2.105057
H    -1.936578  -0.058389  1.610073
H    -0.866152  -0.865932  4.150606
C    -2.533120  0.478841  4.573005
C    -1.669222  1.561897  5.242845
C    -0.678925  0.937330  6.227187
O    -0.985261  0.684047  7.375880
O    0.538066  0.629102  5.744302
H    -3.020581  -0.113141  5.361788
H    -3.334706  0.950771  3.986536
H    -2.324796  2.219489  5.826223
H    -1.155975  2.172236  4.488126
N    -2.812538  -2.618738  4.142094
C    -3.685995  -3.764902  3.960857
H    -2.302772  -2.529020  5.014172
H    -4.492751  -3.768919  4.706488
H    -3.121482  -4.703320  4.040520
H    -4.124076  -3.695385  2.960374
H    0.596151  0.815230  4.759141
