28
Energy: -19698.2245758 eV PBE+vdW (tier 2 basis)
C    -0.430937  0.602859  0.356835
C    -0.460155  0.720499  1.867906
O    0.554582  0.835816  2.544990
H    0.604247  0.729421  0.030669
H    -1.061047  1.359135  -0.131319
H    -0.784944  -0.384964  0.028331
N    -1.703007  0.710203  2.477692
C    -3.003659  0.502675  1.866039
C    -3.783756  1.793834  1.557827
O    -4.927566  1.707536  1.084577
H    -1.649676  0.705576  3.493888
H    -2.835235  0.053461  0.875699
C    -3.902018  -0.459375  2.689501
C    -4.153418  -1.811282  2.021885
C    -4.978918  -1.885555  0.726847
O    -5.113570  -2.953112  0.166392
O    -5.565834  -0.778431  0.237998
H    -4.857993  0.033636  2.910038
H    -3.416911  -0.636415  3.660253
H    -4.676246  -2.475324  2.726045
H    -3.202568  -2.319032  1.801495
N    -3.157797  2.957519  1.808479
C    -3.746412  4.257787  1.542015
H    -2.225543  2.892013  2.206686
H    -3.141091  4.819097  0.818038
H    -3.830953  4.844402  2.466247
H    -4.745937  4.097411  1.125672
H    -5.340972  0.082530  0.696894
