28
Energy: -19697.8785834 eV PBE+vdW (tier 2 basis)
C    0.135966  -0.737274  0.411335
C    0.150892  0.036035  1.709345
O    1.136029  0.050750  2.442510
H    1.102046  -1.239230  0.314874
H    -0.005340  -0.072841  -0.451258
H    -0.669529  -1.480955  0.417436
N    -0.955487  0.783921  2.079508
C    -2.335580  0.876382  1.602998
C    -3.158841  -0.375753  1.965229
O    -2.796999  -1.516560  1.647482
H    -0.797183  1.197025  2.994535
H    -2.743029  1.717886  2.181062
C    -2.514130  1.270311  0.102207
C    -2.943625  0.180877  -0.898497
C    -4.434658  -0.151435  -0.822854
O    -5.299985  0.636517  -1.134739
O    -4.762222  -1.403011  -0.405002
H    -1.568241  1.718291  -0.228134
H    -3.266198  2.069677  0.049610
H    -2.328509  -0.720081  -0.807827
H    -2.792049  0.583774  -1.909405
N    -4.325156  -0.122687  2.605608
C    -5.305882  -1.153059  2.908018
H    -4.580626  0.844500  2.767446
H    -5.777970  -0.943092  3.874544
H    -4.786770  -2.115310  2.958880
H    -6.076062  -1.209939  2.125935
H    -3.985244  -1.806527  0.041634
