28
Energy: -19698.1304112 eV PBE+vdW (tier 2 basis)
C    0.052661  -0.879585  0.379447
C    -0.164232  0.221074  1.400085
O    0.717866  1.039384  1.642689
H    0.569917  -0.442161  -0.481117
H    -0.848162  -1.397477  0.039926
H    0.727844  -1.623982  0.823602
N    -1.341955  0.257047  2.129276
C    -2.646929  -0.374335  1.899708
C    -2.570652  -1.913275  1.740665
O    -3.295438  -2.520616  0.956720
H    -1.349255  1.063408  2.750086
H    -3.182958  -0.243257  2.854994
C    -3.533835  0.305702  0.842825
C    -3.001673  0.331041  -0.585312
C    -3.906223  1.100949  -1.520421
O    -4.887098  1.742582  -1.208576
O    -3.474506  1.000743  -2.811227
H    -3.720330  1.336715  1.175426
H    -4.506250  -0.203739  0.855473
H    -2.882571  -0.683676  -0.989906
H    -2.011142  0.808725  -0.647706
N    -1.699263  -2.518515  2.593634
C    -1.473477  -3.950331  2.598827
H    -1.096408  -1.917093  3.144762
H    -2.257070  -4.414752  1.991196
H    -1.526058  -4.348217  3.620558
H    -0.494210  -4.207640  2.167845
H    -4.100058  1.530288  -3.342730
