28
Energy: -19698.1133134 eV PBE+vdW (tier 2 basis)
C    -0.573646  -1.044768  -0.052006
C    -0.389064  -0.577123  1.381087
O    0.706247  -0.259615  1.829222
H    0.055414  -1.928294  -0.216614
H    -0.213413  -0.257547  -0.725734
H    -1.611089  -1.287908  -0.313467
N    -1.547742  -0.514447  2.127083
C    -1.537089  -0.278821  3.574529
C    -2.920747  -0.532117  4.191410
O    -3.028157  -0.953845  5.336966
H    -2.336919  -1.040687  1.766758
H    -0.867373  -1.003377  4.062272
C    -1.019206  1.126716  3.964891
C    -1.797691  2.296337  3.336256
C    -1.174327  3.616249  3.724441
O    -1.496051  4.295026  4.677011
O    -0.158530  3.962967  2.882033
H    0.034109  1.181537  3.666394
H    -1.065243  1.193362  5.060664
H    -2.833948  2.318494  3.696150
H    -1.793357  2.200353  2.241741
N    -3.999725  -0.249504  3.393433
C    -5.360741  -0.334650  3.896929
H    -3.836994  0.280792  2.544086
H    -6.039588  -0.644012  3.093459
H    -5.707039  0.624042  4.311955
H    -5.380082  -1.079336  4.698857
H    0.210970  4.794958  3.236934
