28
Energy: -19698.2645178 eV PBE+vdW (tier 2 basis)
C    0.348126  -1.289154  0.709563
C    -0.070743  -0.657425  2.020721
O    0.293904  -1.094889  3.109515
H    0.117625  -2.360589  0.742830
H    1.436602  -1.192721  0.607265
H    -0.131488  -0.843516  -0.170516
N    -0.902317  0.431225  1.910957
C    -1.273900  1.241640  3.064377
C    -2.805288  1.367876  3.174180
O    -3.390351  2.460075  3.084667
H    -1.115312  0.786384  0.985685
H    -0.914496  0.663092  3.930407
C    -0.567197  2.603260  3.080255
C    -0.763428  3.484921  1.819324
C    -1.248736  4.901040  2.133695
O    -0.621751  5.897287  1.843803
O    -2.438972  4.971024  2.762464
H    0.503378  2.405381  3.218418
H    -0.895912  3.142512  3.979048
H    -1.507198  3.040023  1.138357
H    0.171189  3.583832  1.258822
N    -3.519980  0.237388  3.385886
C    -3.055423  -1.133385  3.533535
H    -4.522441  0.403145  3.412939
H    -3.724652  -1.660831  4.222988
H    -2.042271  -1.167872  3.948218
H    -3.047750  -1.668281  2.572078
H    -2.805076  4.052376  2.897327
