28
Energy: -19698.2233734 eV PBE+vdW (tier 2 basis)
C    -0.288182  -1.134237  0.626795
C    -0.114595  0.073018  1.533146
O    0.995571  0.457023  1.891793
H    0.709956  -1.480813  0.347181
H    -0.848203  -0.890423  -0.287036
H    -0.810508  -1.950466  1.144031
N    -1.247764  0.718329  1.961782
C    -2.636314  0.430158  1.656988
C    -3.286582  1.689084  1.048696
O    -3.104654  2.796257  1.545126
H    -1.076720  1.556247  2.515749
H    -2.657640  -0.393875  0.930865
C    -3.438014  0.014027  2.910638
C    -2.853678  -1.209749  3.626504
C    -1.583910  -0.884565  4.389813
O    -1.459982  0.032980  5.172452
O    -0.586291  -1.770990  4.118662
H    -4.474575  -0.197035  2.609074
H    -3.472550  0.862554  3.608792
H    -2.674789  -2.041575  2.932940
H    -3.579071  -1.561998  4.375332
N    -4.085597  1.462657  -0.033366
C    -4.817683  2.521830  -0.704801
H    -4.150768  0.518859  -0.394475
H    -5.898684  2.326611  -0.692294
H    -4.486599  2.636330  -1.746101
H    -4.615555  3.452433  -0.164356
H    0.196646  -1.460203  4.615169
