28
Energy: -19698.4550972 eV PBE+vdW (tier 2 basis)
C    -2.744989  -0.653160  1.338397
C    -1.381396  -0.536671  1.982772
O    -0.345362  -0.396274  1.322816
H    -3.490007  -1.126544  1.990372
H    -2.658918  -1.220985  0.406608
H    -3.098007  0.357919  1.090358
N    -1.371707  -0.555532  3.345919
C    -0.177384  -0.264386  4.136429
C    0.669716  -1.546448  4.366748
O    0.779950  -2.075810  5.471254
H    -2.232021  -0.750616  3.846751
H    0.425882  0.424687  3.523407
C    -0.552434  0.404865  5.456098
C    -1.192211  1.790983  5.282000
C    -2.564777  1.834411  4.649247
O    -2.923546  2.597137  3.778997
O    -3.426010  0.921308  5.210519
H    0.364393  0.510464  6.049750
H    -1.204567  -0.257850  6.041642
H    -0.552426  2.454323  4.686889
H    -1.301658  2.253811  6.275987
N    1.256535  -1.993683  3.226162
C    2.024176  -3.221551  3.170171
H    1.021204  -1.496750  2.362765
H    2.178085  -3.573291  4.195815
H    3.000674  -3.047809  2.698573
H    1.495206  -4.002763  2.604076
H    -4.289403  1.087210  4.784477
