28
Energy: -19698.2301085 eV PBE+vdW (tier 2 basis)
C    0.009258  0.156990  -0.090291
C    0.120807  0.174055  1.420938
O    1.197390  0.165854  2.009339
H    1.018130  0.215049  -0.506084
H    -0.592075  0.995051  -0.468480
H    -0.467691  -0.770419  -0.438323
N    -1.063325  0.213579  2.131179
C    -2.420729  0.131828  1.606444
C    -2.984338  1.478126  1.100149
O    -3.991150  1.504956  0.391272
H    -0.931306  0.124579  3.135916
H    -2.440329  -0.541748  0.739406
C    -3.337579  -0.460253  2.700667
C    -4.753466  -0.835054  2.254730
C    -4.926207  -2.094505  1.433944
O    -5.997674  -2.576871  1.139549
O    -3.742566  -2.658393  1.040544
H    -3.415650  0.272253  3.520116
H    -2.829421  -1.345316  3.109754
H    -5.198580  -0.022738  1.660352
H    -5.404011  -0.960584  3.131372
N    -2.313517  2.584389  1.514002
C    -2.707045  3.929134  1.142682
H    -1.464966  2.432960  2.049665
H    -2.927725  4.536702  2.031045
H    -3.610795  3.853339  0.528519
H    -1.919211  4.427024  0.560517
H    -3.992049  -3.446671  0.519860
