28
Energy: -19698.0824651 eV PBE+vdW (tier 2 basis)
C    0.982361  -1.672358  -0.114808
C    0.579629  -0.525612  0.786376
O    1.384102  0.338682  1.129944
H    0.382382  -2.581626  -0.003706
H    2.036913  -1.894169  0.075398
H    0.894230  -1.336038  -1.157780
N    -0.728340  -0.436630  1.214299
C    -1.904032  -1.227245  0.841631
C    -1.762497  -2.725387  1.211002
O    -1.911649  -3.615346  0.375235
H    -0.895455  0.417918  1.738883
H    -2.715587  -0.833307  1.476944
C    -2.337457  -1.063312  -0.623076
C    -2.798706  0.362908  -0.967885
C    -1.764401  1.442325  -0.729717
O    -1.868035  2.348684  0.072470
O    -0.675057  1.292226  -1.533498
H    -3.163022  -1.760256  -0.815721
H    -1.523811  -1.373367  -1.289685
H    -3.684228  0.640445  -0.382345
H    -3.077522  0.390269  -2.031460
N    -1.475076  -3.017180  2.512905
C    -1.316952  -2.121385  3.647892
H    -1.371806  -4.013515  2.677580
H    -1.438349  -2.705379  4.567068
H    -2.089202  -1.340672  3.653065
H    -0.332141  -1.634313  3.667044
H    -0.034276  1.975445  -1.253471
