28
Energy: -19698.057749 eV PBE+vdW (tier 2 basis)
C    -0.359357  2.596686  1.972631
C    -0.368737  1.088196  2.109936
O    0.680005  0.443694  2.016884
H    0.352763  2.879401  1.190679
H    -0.004268  3.020786  2.922048
H    -1.343036  3.026082  1.746775
N    -1.603765  0.544255  2.323854
C    -1.934276  -0.798191  2.794814
C    -1.882658  -0.821671  4.347473
O    -1.313482  0.062081  4.980309
H    -2.333229  1.228327  2.490725
H    -2.982257  -0.951671  2.492200
C    -1.098306  -1.926270  2.140986
C    0.146616  -2.383863  2.932420
C    1.243028  -2.885603  1.999649
O    1.547676  -4.053062  1.879493
O    1.854090  -1.918634  1.279797
H    -0.814667  -1.578602  1.140242
H    -1.750743  -2.793459  1.977600
H    -0.102656  -3.200178  3.619652
H    0.545460  -1.548092  3.522957
N    -2.511910  -1.858153  4.975866
C    -3.196020  -3.004720  4.401681
H    -2.382010  -1.842538  5.983154
H    -2.505722  -3.807829  4.100523
H    -3.794872  -2.713773  3.529640
H    -3.887030  -3.410963  5.148656
H    1.474306  -1.036035  1.528056
