28
Energy: -19698.4361612 eV PBE+vdW (tier 2 basis)
C    0.041301  0.587021  0.230584
C    -0.279207  0.276579  1.677233
O    0.605768  0.046418  2.508385
H    0.687044  1.473351  0.197517
H    -0.844957  0.768661  -0.389419
H    0.611391  -0.248879  -0.193192
N    -1.602563  0.276319  2.008994
C    -2.068294  0.015224  3.369959
C    -2.167613  -1.517287  3.613092
O    -3.240603  -2.119068  3.570707
H    -2.296553  0.370766  1.275971
H    -1.289240  0.420946  4.033506
C    -3.401811  0.716800  3.619156
C    -3.830597  0.689070  5.094665
C    -2.858817  1.372247  6.030143
O    -2.340592  0.873331  7.006064
O    -2.611905  2.664615  5.653891
H    -4.183546  0.215349  3.030270
H    -3.320088  1.756622  3.274351
H    -3.960222  -0.340393  5.444495
H    -4.800166  1.200483  5.190793
N    -0.962747  -2.092984  3.852540
C    -0.796973  -3.524235  4.011666
H    -0.141212  -1.498949  3.725340
H    -0.170817  -3.742377  4.886430
H    -0.333884  -3.980127  3.123589
H    -1.787408  -3.967795  4.156998
H    -1.979689  3.014294  6.311273
