28
Energy: -19698.0002956 eV PBE+vdW (tier 2 basis)
C    -0.281126  -0.314399  -0.086287
C    -0.271609  0.114791  1.366723
O    0.764965  0.478172  1.918541
H    -1.227192  -0.154847  -0.611410
H    -0.047670  -1.387508  -0.139798
H    0.522035  0.227340  -0.594470
N    -1.435720  0.045313  2.104523
C    -2.827150  -0.239141  1.744730
C    -2.989739  -1.385410  0.722115
O    -3.594526  -1.230487  -0.337503
H    -1.280606  0.361582  3.058618
H    -3.281180  -0.631899  2.671570
C    -3.648699  1.009700  1.378034
C    -3.132320  1.828079  0.199892
C    -3.903030  3.113251  0.011618
O    -4.768839  3.548595  0.741991
O    -3.497832  3.767967  -1.115121
H    -3.691184  1.653224  2.268588
H    -4.680525  0.690687  1.178540
H    -3.184440  1.256616  -0.736689
H    -2.075886  2.110318  0.333969
N    -2.473856  -2.601428  1.068825
C    -1.768203  -2.994321  2.277725
H    -2.611774  -3.304591  0.349509
H    -1.840631  -4.082625  2.383246
H    -2.225151  -2.545813  3.168892
H    -0.704997  -2.713690  2.260107
H    -4.033346  4.583917  -1.155164
