28
Energy: -19697.8733899 eV PBE+vdW (tier 2 basis)
C    0.306311  1.001754  1.625364
C    -0.497522  0.941986  2.905024
O    -0.163176  1.569809  3.907197
H    0.648275  -0.000418  1.341728
H    -0.281231  1.421921  0.798238
H    1.168442  1.648492  1.807682
N    -1.665845  0.200857  2.948506
C    -2.263877  -0.797452  2.065821
C    -1.466253  -2.122758  2.068605
O    -0.236476  -2.142230  2.076735
H    -2.050558  0.221673  3.888690
H    -3.239169  -0.993042  2.528754
C    -2.572388  -0.296205  0.617903
C    -1.690271  -0.819016  -0.520514
C    -2.232783  -2.062226  -1.190777
O    -3.358081  -2.509114  -1.078953
O    -1.299382  -2.633019  -1.997830
H    -2.533203  0.798852  0.648660
H    -3.610650  -0.561457  0.379604
H    -0.658587  -1.021560  -0.207532
H    -1.611829  -0.061066  -1.316006
N    -2.193978  -3.276180  2.036480
C    -3.640804  -3.446862  2.042282
H    -1.614670  -4.109633  2.006652
H    -3.855179  -4.520294  2.067332
H    -4.105713  -3.035045  1.136447
H    -4.102758  -2.999266  2.934284
H    -1.737433  -3.395986  -2.422542
