28
Energy: -19698.0448364 eV PBE+vdW (tier 2 basis)
C    -1.467819  -0.660192  0.490664
C    -0.580506  -1.085018  1.648678
O    0.146608  -2.071745  1.587698
H    -1.322824  -1.378065  -0.320453
H    -1.211869  0.344709  0.125942
H    -2.529592  -0.649608  0.774067
N    -0.612031  -0.304833  2.781306
C    -1.485438  0.831470  3.065457
C    -0.639963  1.831847  3.887885
O    -0.692583  1.855953  5.115505
H    -0.051578  -0.667972  3.549286
H    -1.753824  1.292377  2.105544
C    -2.769659  0.418945  3.803395
C    -3.953007  1.396606  3.652714
C    -3.755520  2.723099  4.351467
O    -4.139130  3.004024  5.463746
O    -3.068744  3.610186  3.562991
H    -2.535594  0.269975  4.866471
H    -3.087276  -0.550642  3.395857
H    -4.845845  0.939876  4.094879
H    -4.150306  1.579341  2.586018
N    0.205735  2.637308  3.185882
C    0.390554  2.698623  1.745815
H    0.788004  3.225304  3.773136
H    -0.537594  2.979314  1.226362
H    1.136206  3.469694  1.526637
H    0.758429  1.746967  1.335640
H    -2.934270  4.403377  4.117544
