28
Energy: -19698.1813866 eV PBE+vdW (tier 2 basis)
C    -0.959244  -0.697178  -0.491370
C    -0.263540  -0.689620  0.855173
O    0.753785  -1.344268  1.068556
H    -0.251652  -1.069224  -1.237109
H    -1.325833  0.292065  -0.797133
H    -1.816446  -1.383928  -0.450088
N    -0.827879  0.061465  1.857793
C    -2.034637  0.861490  1.840809
C    -1.908709  1.871667  2.994604
O    -1.238909  1.615102  3.994481
H    -0.334983  0.053835  2.751544
H    -2.106057  1.405429  0.887744
C    -3.342819  0.032656  2.020101
C    -3.244992  -1.019808  3.130562
C    -2.494090  -2.253494  2.670220
O    -2.654383  -2.800649  1.596566
O    -1.629969  -2.710727  3.609958
H    -3.578044  -0.473567  1.074070
H    -4.176655  0.716868  2.232059
H    -4.259077  -1.358845  3.392083
H    -2.789707  -0.618046  4.043927
N    -2.613768  3.034047  2.884761
C    -3.330400  3.544959  1.726156
H    -2.504912  3.645573  3.687611
H    -3.752805  4.520493  1.987978
H    -4.164216  2.892820  1.431161
H    -2.670973  3.687528  0.857038
H    -1.174249  -3.478235  3.210829
