28
Energy: -19698.4494178 eV PBE+vdW (tier 2 basis)
C    -1.995999  0.685005  0.085195
C    -1.273797  0.563902  1.411431
O    -0.042166  0.428906  1.460672
H    -1.603536  1.557480  -0.451927
H    -3.083981  0.780359  0.179081
H    -1.764782  -0.200405  -0.520117
N    -2.061148  0.631670  2.517665
C    -1.670089  0.348871  3.906667
C    -0.747743  1.386931  4.596098
O    -1.011587  1.747344  5.744314
H    -3.063235  0.639029  2.362388
H    -2.601615  0.436542  4.477357
C    -1.108365  -1.075253  4.107534
C    -1.993959  -2.193426  3.515847
C    -3.420931  -2.111354  4.001027
O    -4.300421  -1.438775  3.494056
O    -3.627086  -2.852002  5.122730
H    -0.984010  -1.224395  5.189010
H    -0.114942  -1.154924  3.648039
H    -1.565963  -3.166706  3.784596
H    -2.015186  -2.113552  2.422151
N    0.328959  1.792343  3.883158
C    1.299545  2.729600  4.411595
H    0.464099  1.365773  2.957854
H    0.923266  3.111553  5.366542
H    1.446831  3.568601  3.717913
H    2.271640  2.244441  4.584529
H    -4.555799  -2.696559  5.385596
