28
Energy: -19698.1448386 eV PBE+vdW (tier 2 basis)
C    0.860671  -1.012138  -0.349293
C    0.437350  -1.547700  1.003633
O    0.771401  -2.660153  1.409669
H    0.551631  -1.725779  -1.122559
H    1.955992  -0.953854  -0.377154
H    0.445111  -0.024381  -0.582351
N    -0.339661  -0.706423  1.752493
C    -0.844584  -1.094074  3.053029
C    -2.211547  -0.421098  3.214005
O    -2.451847  0.681242  2.738931
H    -0.658751  0.189634  1.395459
H    -0.939147  -2.192052  3.049208
C    0.154442  -0.702840  4.174749
C    -0.115246  -1.305728  5.576477
C    -0.666057  -0.310163  6.593080
O    0.008425  0.193400  7.460605
O    -1.983842  0.013412  6.476207
H    0.219047  0.393524  4.226020
H    1.130598  -1.061319  3.826376
H    0.826548  -1.669426  5.999585
H    -0.784295  -2.178368  5.500422
N    -3.121253  -1.106995  3.995171
C    -4.499433  -0.629067  4.113134
H    -2.973120  -2.109099  4.073620
H    -4.983678  -1.136818  4.953860
H    -5.074235  -0.810372  3.193957
H    -4.485222  0.448945  4.302276
H    -2.374299  -0.457310  5.705392
