28
Energy: -19698.0731195 eV PBE+vdW (tier 2 basis)
C    0.187788  -0.253777  0.054475
C    0.021856  -0.475770  1.547424
O    0.862690  -1.054841  2.228056
H    -0.689371  0.192745  -0.430558
H    0.412460  -1.215308  -0.422443
H    1.053254  0.401063  -0.108653
N    -1.139466  0.007610  2.090077
C    -1.418967  -0.051079  3.517547
C    -1.439257  -1.460361  4.151884
O    -1.021096  -1.589866  5.301131
H    -1.799577  0.489564  1.491217
H    -0.599328  0.444102  4.059928
C    -2.741204  0.686664  3.791653
C    -3.041274  0.873319  5.275748
C    -4.397284  1.491944  5.512617
O    -5.251927  1.689756  4.672648
O    -4.574325  1.807988  6.826392
H    -3.578525  0.153555  3.316776
H    -2.689584  1.674235  3.306950
H    -2.280191  1.495298  5.769010
H    -3.008387  -0.085511  5.816331
N    -2.003015  -2.515753  3.492095
C    -2.545239  -2.625148  2.148420
H    -1.918866  -3.374681  4.027156
H    -3.145094  -3.541425  2.098571
H    -1.762604  -2.684210  1.377026
H    -3.210760  -1.787563  1.909754
H    -5.475118  2.180155  6.892809
