28
Energy: -19698.0958274 eV PBE+vdW (tier 2 basis)
C    -0.198779  0.376076  -0.043314
C    -0.115395  0.221142  1.458781
O    0.979019  0.225243  2.035923
H    -1.224710  0.436899  -0.425650
H    0.304890  -0.480477  -0.509454
H    0.350583  1.277908  -0.337929
N    -1.304279  0.085361  2.108802
C    -1.427801  -0.282168  3.526456
C    -2.561029  -1.312898  3.709262
O    -2.315187  -2.414359  4.185076
H    -2.129870  -0.003245  1.528353
H    -0.525848  -0.850287  3.787121
C    -1.553650  0.920970  4.484839
C    -0.291269  1.796939  4.598081
C    0.839256  1.102891  5.362043
O    0.950470  1.196306  6.566933
O    1.693509  0.358073  4.635624
H    -1.806320  0.531358  5.482820
H    -2.388806  1.561407  4.172467
H    -0.545742  2.692370  5.177510
H    0.041369  2.122841  3.602665
N    -3.833997  -1.003735  3.282923
C    -4.454805  0.290078  3.028781
H    -4.473563  -1.769505  3.481303
H    -5.329406  0.140621  2.384422
H    -3.775315  0.971424  2.505601
H    -4.786074  0.789248  3.953009
H    1.433616  0.346535  3.672290
