28
Energy: -19698.1967276 eV PBE+vdW (tier 2 basis)
C    -0.438905  1.046950  3.006423
C    -0.201071  -0.448693  3.149494
O    0.590174  -0.900678  3.967482
H    0.253831  1.556343  3.681004
H    -1.466666  1.318241  3.288640
H    -0.260788  1.401321  1.981155
N    -0.895458  -1.289472  2.304470
C    -1.980581  -0.917195  1.411846
C    -3.339111  -0.955057  2.140744
O    -3.735563  -1.963304  2.744606
H    -0.774764  -2.277266  2.527728
H    -1.787305  0.116432  1.093646
C    -2.011974  -1.761825  0.111801
C    -2.625282  -3.176314  0.153721
C    -1.875836  -4.172270  1.038197
O    -1.067633  -4.961641  0.600825
O    -2.145821  -4.107857  2.363244
H    -0.975566  -1.822015  -0.251034
H    -2.575320  -1.185410  -0.637016
H    -2.589736  -3.583532  -0.863402
H    -3.680376  -3.124012  0.457869
N    -4.071738  0.181204  2.069070
C    -5.381903  0.330186  2.681332
H    -3.667727  0.975213  1.586584
H    -6.136033  0.595584  1.928979
H    -5.365104  1.103260  3.461120
H    -5.648312  -0.628421  3.136889
H    -2.811149  -3.381983  2.550720
