28
Energy: -19698.2871725 eV PBE+vdW (tier 2 basis)
C    0.135679  0.050696  0.181857
C    0.204663  0.395939  1.655947
O    1.261440  0.612779  2.239754
H    1.145512  0.117259  -0.230249
H    -0.531066  0.727360  -0.369797
H    -0.242506  -0.971128  0.034373
N    -0.996521  0.469209  2.335046
C    -2.328086  0.157834  1.830573
C    -2.956945  1.281229  0.973203
O    -3.895884  1.035715  0.215364
H    -0.885724  0.605560  3.337045
H    -2.282443  -0.719592  1.167408
C    -3.240947  -0.171101  3.029032
C    -4.596202  -0.755909  2.641856
C    -5.525213  -0.880584  3.824608
O    -5.357326  -0.391540  4.923053
O    -6.628598  -1.617344  3.510688
H    -3.393523  0.736333  3.632574
H    -2.705045  -0.886028  3.671475
H    -4.494115  -1.743788  2.169707
H    -5.094541  -0.129318  1.885591
N    -2.424148  2.516486  1.155306
C    -2.909342  3.694930  0.464700
H    -1.619038  2.584419  1.769397
H    -2.120096  4.145129  -0.153067
H    -3.275117  4.448244  1.175970
H    -3.736553  3.384404  -0.182473
H    -7.182817  -1.623737  4.315188
