28
Energy: -19698.2088651 eV PBE+vdW (tier 2 basis)
C    -0.139225  -1.580997  0.516591
C    -0.562149  -0.381773  1.333385
O    0.224588  0.518919  1.645708
H    -0.059384  -1.267728  -0.533594
H    -0.842901  -2.420039  0.576827
H    0.852352  -1.906538  0.848240
N    -1.886111  -0.336841  1.670838
C    -2.482289  0.775113  2.406274
C    -3.319574  0.207947  3.571508
O    -4.548526  0.218288  3.550697
H    -2.506676  -1.055087  1.311869
H    -1.624666  1.337882  2.804042
C    -3.316094  1.708632  1.523193
C    -2.476789  2.421974  0.452662
C    -2.139250  1.538708  -0.744392
O    -2.975276  0.986593  -1.421943
O    -0.817774  1.420017  -1.066155
H    -3.786588  2.456125  2.175830
H    -4.138166  1.156556  1.048427
H    -1.573192  2.861422  0.899453
H    -3.067184  3.252078  0.038086
N    -2.626435  -0.314787  4.627227
C    -1.193480  -0.512634  4.771747
H    -3.233595  -0.731303  5.327295
H    -0.853856  -1.461180  4.326847
H    -0.940903  -0.517736  5.838446
H    -0.629945  0.299487  4.299284
H    -0.269126  1.738007  -0.323562
