28
Energy: -19697.9958462 eV PBE+vdW (tier 2 basis)
C    -1.094725  -0.288974  -0.485539
C    -0.841015  -0.572329  0.984504
O    0.220822  -1.058965  1.371786
H    -0.352120  0.440531  -0.832593
H    -2.099141  0.094160  -0.702391
H    -0.934662  -1.214227  -1.052049
N    -1.881568  -0.263595  1.817679
C    -1.889259  -0.348176  3.282726
C    -1.243981  0.930920  3.895628
O    -1.968380  1.924610  4.000976
H    -2.657497  0.244817  1.411289
H    -2.942441  -0.192760  3.554975
C    -1.497223  -1.731786  3.819248
C    -1.755106  -1.832311  5.335190
C    -1.362845  -3.197350  5.846046
O    -2.082883  -4.171736  5.891973
O    -0.051151  -3.233602  6.229752
H    -0.458724  -1.978986  3.584159
H    -2.120254  -2.473497  3.298710
H    -2.822312  -1.691311  5.549295
H    -1.188242  -1.062927  5.875936
N    0.056812  0.978627  4.294444
C    1.139495  0.002277  4.223490
H    0.284547  1.892143  4.676935
H    1.113164  -0.714311  5.058638
H    2.086965  0.549933  4.279688
H    1.115491  -0.536034  3.269907
H    0.123272  -4.156998  6.497652
