28
Energy: -19697.9956031 eV PBE+vdW (tier 2 basis)
C    0.926891  -0.039866  0.441613
C    0.445046  0.475529  1.781565
O    1.106606  1.223435  2.497140
H    1.645924  0.671783  0.025435
H    0.110714  -0.204084  -0.273642
H    1.438157  -1.000316  0.599289
N    -0.792268  0.020306  2.166241
C    -1.364192  0.282039  3.484089
C    -1.409723  1.788250  3.857443
O    -1.061048  2.169331  4.970121
H    -1.257038  -0.657531  1.573264
H    -2.413546  -0.053985  3.421332
C    -0.675955  -0.500118  4.615019
C    -0.664551  -2.018744  4.394218
C    0.175340  -2.531364  3.232679
O    -0.231573  -3.282173  2.374667
O    1.482242  -2.133843  3.208389
H    -1.200068  -0.274482  5.551572
H    0.335985  -0.090160  4.752930
H    -1.680462  -2.403715  4.236619
H    -0.279999  -2.505054  5.305453
N    -1.929994  2.662083  2.944773
C    -2.455451  2.429984  1.611908
H    -1.883136  3.622662  3.269308
H    -3.123271  3.260875  1.354741
H    -3.051159  1.509622  1.570946
H    -1.667734  2.368617  0.845743
H    1.639631  -1.452045  3.886935
