28
Energy: -19698.112682 eV PBE+vdW (tier 2 basis)
C    0.153835  -0.393751  1.752577
C    -0.190085  0.877584  2.508890
O    0.603883  1.402634  3.285116
H    1.231438  -0.555477  1.840227
H    -0.120154  -0.347463  0.689678
H    -0.365178  -1.253035  2.199520
N    -1.431854  1.421423  2.298125
C    -2.530543  0.883548  1.523575
C    -3.462670  2.062997  1.193813
O    -3.523737  3.047441  1.927488
H    -1.639067  2.286529  2.798959
H    -2.144525  0.454283  0.587270
C    -3.328441  -0.232653  2.259468
C    -3.815111  0.155427  3.661317
C    -2.743254  0.299175  4.723787
O    -2.703851  1.174454  5.559119
O    -1.831133  -0.718823  4.680797
H    -2.697093  -1.128317  2.322641
H    -4.199133  -0.508663  1.646183
H    -4.501233  -0.628305  4.019872
H    -4.377223  1.096872  3.653746
N    -4.254427  1.943013  0.088500
C    -4.192935  0.934366  -0.958050
H    -4.855600  2.747591  -0.059221
H    -4.945877  1.179291  -1.714155
H    -4.420612  -0.072388  -0.580774
H    -3.212805  0.909426  -1.457419
H    -1.171377  -0.509237  5.370443
