28
Energy: -19698.0251843 eV PBE+vdW (tier 2 basis)
C    0.050474  -0.236787  0.094063
C    0.068079  -0.243861  1.608497
O    1.107121  -0.266258  2.263475
H    1.075200  -0.377683  -0.258228
H    -0.334942  0.716189  -0.295379
H    -0.590573  -1.030834  -0.312489
N    -1.152645  -0.229038  2.247471
C    -2.465655  -0.028433  1.655666
C    -2.701456  1.353742  0.998502
O    -3.288712  1.406268  -0.082562
H    -1.072550  -0.217447  3.260709
H    -2.595568  -0.724553  0.813970
C    -3.544500  -0.346957  2.706575
C    -4.977693  -0.261300  2.156911
C    -5.991438  -0.629454  3.214446
O    -6.631510  -1.657430  3.260384
O    -6.102275  0.347812  4.165219
H    -3.441981  0.332163  3.566476
H    -3.353786  -1.365732  3.076719
H    -5.110389  -0.950574  1.315656
H    -5.187544  0.755794  1.798421
N    -2.278111  2.490893  1.624279
C    -1.595626  2.681555  2.897588
H    -2.483452  3.322121  1.078385
H    -1.638295  3.747896  3.144948
H    -0.540447  2.377754  2.863596
H    -2.092864  2.142415  3.714145
H    -6.757388  0.018138  4.810587
