28
Energy: -19698.1357367 eV PBE+vdW (tier 2 basis)
C    0.096808  -0.658663  1.668720
C    -0.179278  0.796723  1.979020
O    0.674027  1.549561  2.440434
H    1.174475  -0.822307  1.747443
H    -0.242060  -0.952758  0.665927
H    -0.412878  -1.297936  2.402980
N    -1.452515  1.266149  1.739788
C    -2.633444  0.537048  1.284110
C    -3.511502  1.518297  0.473154
O    -4.620095  1.878633  0.863318
H    -1.579060  2.231484  2.035809
H    -2.293690  -0.246243  0.589411
C    -3.437768  -0.151013  2.406193
C    -3.571372  0.677216  3.689264
C    -2.289460  0.681918  4.495077
O    -1.606853  -0.296304  4.727824
O    -1.974932  1.921818  4.958972
H    -2.951544  -1.103257  2.658014
H    -4.436916  -0.379315  2.015015
H    -4.336221  0.213323  4.330742
H    -3.907429  1.699594  3.483593
N    -2.985917  1.976157  -0.701920
C    -1.699157  1.670976  -1.307090
H    -3.580173  2.657047  -1.164529
H    -0.869020  2.214439  -0.833588
H    -1.479767  0.596520  -1.255028
H    -1.740223  1.944994  -2.367009
H    -1.124722  1.825041  5.432317
