28
Energy: -19698.3877395 eV PBE+vdW (tier 2 basis)
C    -2.945409  -2.196241  0.306776
C    -1.831447  -1.488409  1.046742
O    -0.812396  -1.087783  0.487860
H    -3.601154  -2.780544  0.964557
H    -2.510499  -2.848713  -0.457106
H    -3.551672  -1.433264  -0.201789
N    -2.074199  -1.263031  2.379944
C    -1.094900  -0.625908  3.233049
C    -0.908398  -1.493267  4.487129
O    -1.840320  -2.146763  4.954789
H    -2.824874  -1.753118  2.858773
H    -0.168732  -0.575958  2.639803
C    -1.510859  0.806550  3.649525
C    -1.976335  1.661874  2.462904
C    -3.362074  1.356306  1.935606
O    -3.685034  1.334120  0.766614
O    -4.267903  1.167626  2.943479
H    -0.648337  1.292103  4.129034
H    -2.307325  0.752582  4.404417
H    -1.287141  1.590019  1.612859
H    -2.000890  2.718202  2.776009
N    0.331118  -1.434355  5.046025
C    0.682417  -2.136252  6.266999
H    1.051985  -0.924137  4.549716
H    1.067670  -1.440764  7.024949
H    1.436922  -2.912659  6.078340
H    -0.227395  -2.612904  6.646176
H    -5.125819  1.027686  2.498820
