28
Energy: -19698.4226127 eV PBE+vdW (tier 2 basis)
C    -0.078445  0.140812  0.015656
C    -0.159197  -0.003831  1.520150
O    0.847724  0.042828  2.236374
H    0.375019  1.112099  -0.218442
H    -1.050161  0.070904  -0.487947
H    0.588572  -0.634987  -0.379884
N    -1.408204  -0.179220  2.038013
C    -1.658938  -0.293791  3.474931
C    -1.423664  -1.757975  3.943413
O    -2.352985  -2.528359  4.183979
H    -2.192732  -0.302399  1.407690
H    -0.909382  0.347668  3.963675
C    -3.067774  0.196554  3.800834
C    -3.315948  0.284786  5.310591
C    -4.642616  0.884495  5.711458
O    -4.827669  1.588341  6.682004
O    -5.655117  0.526236  4.867376
H    -3.803952  -0.484294  3.351529
H    -3.199049  1.187184  3.340632
H    -2.541076  0.875572  5.815838
H    -3.283350  -0.729889  5.739138
N    -0.107264  -2.075003  4.043772
C    0.350013  -3.415651  4.354121
H    0.554487  -1.385114  3.679065
H    1.158936  -3.381406  5.095100
H    0.716098  -3.938153  3.457273
H    -0.494238  -3.978810  4.765303
H    -6.460532  0.936656  5.237794
