28
Energy: -19698.4269688 eV PBE+vdW (tier 2 basis)
C    -1.371549  -0.215339  0.105614
C    -0.515975  -0.212139  1.354390
O    0.701448  -0.000138  1.312875
H    -1.262609  0.754350  -0.395774
H    -2.435202  -0.399827  0.298807
H    -0.992788  -0.982129  -0.581565
N    -1.169693  -0.451474  2.526960
C    -0.500164  -0.463938  3.828526
C    0.136398  -1.853668  4.110608
O    -0.317577  -2.629696  4.948154
H    -2.143150  -0.735998  2.499158
H    0.320030  0.266942  3.749440
C    -1.476627  -0.056703  4.927991
C    -1.875476  1.417126  4.837643
C    -3.097758  1.750500  5.662455
O    -4.009877  0.993777  5.920585
O    -3.084282  3.051266  6.074242
H    -1.015027  -0.270000  5.900426
H    -2.372568  -0.692860  4.888031
H    -2.131489  1.683755  3.797202
H    -1.051443  2.083963  5.124013
N    1.227773  -2.096409  3.336660
C    1.934393  -3.361811  3.358567
H    1.448388  -1.401514  2.619571
H    3.014668  -3.200240  3.471347
H    1.759851  -3.939016  2.438168
H    1.566349  -3.941522  4.211615
H    -3.922041  3.185743  6.559291
