28
Energy: -19697.9190861 eV PBE+vdW (tier 2 basis)
C    -0.037033  -0.606450  0.635070
C    -0.233478  -0.181480  2.078541
O    0.683220  0.250356  2.770187
H    0.405192  0.229221  0.079408
H    -0.961520  -0.919069  0.133605
H    0.682324  -1.434679  0.607912
N    -1.518437  -0.294554  2.556702
C    -1.799356  -0.100163  3.982411
C    -3.088229  -0.823012  4.398513
O    -3.093919  -1.572133  5.371098
H    -2.171371  -0.851242  2.017273
H    -1.002126  -0.593825  4.553801
C    -1.816483  1.395519  4.387696
C    -1.607435  1.618126  5.901397
C    -0.142900  1.547073  6.279340
O    0.609758  2.496700  6.331934
O    0.260530  0.271062  6.535321
H    -2.764933  1.863622  4.092777
H    -1.020979  1.905869  3.829987
H    -2.182377  0.885029  6.483903
H    -1.949546  2.624383  6.167777
N    -4.232505  -0.641973  3.653028
C    -4.583877  0.418190  2.716984
H    -5.010347  -1.160734  4.054143
H    -5.251085  0.017197  1.942839
H    -3.692268  0.812071  2.220820
H    -5.096817  1.256486  3.215156
H    1.224335  0.320676  6.689528
