28
Energy: -19697.9879213 eV PBE+vdW (tier 2 basis)
C    0.148824  0.206853  0.199602
C    0.077313  0.646597  1.644984
O    0.999222  1.252799  2.183540
H    1.201571  0.207991  -0.096391
H    -0.385950  0.922407  -0.440444
H    -0.280634  -0.787810  0.030343
N    -1.051139  0.335964  2.387011
C    -2.361725  -0.211306  2.015235
C    -2.393398  -1.745754  1.813883
O    -3.419458  -2.298061  1.422396
H    -0.991702  0.749241  3.313614
H    -2.957848  -0.086146  2.931500
C    -3.126496  0.580983  0.912238
C    -3.224326  -0.050948  -0.492918
C    -3.722351  0.985604  -1.468873
O    -4.869855  1.358038  -1.589309
O    -2.698856  1.518331  -2.207286
H    -2.647707  1.568054  0.848840
H    -4.151298  0.760515  1.259411
H    -3.937346  -0.881282  -0.468154
H    -2.258767  -0.435608  -0.835311
N    -1.254637  -2.403946  2.154120
C    -1.143498  -3.848796  2.113101
H    -0.491513  -1.846136  2.522321
H    -2.066710  -4.241613  1.673966
H    -1.023412  -4.269576  3.121457
H    -0.289425  -4.158893  1.496191
H    -3.108463  2.197461  -2.778568
