28
Energy: -19697.9836469 eV PBE+vdW (tier 2 basis)
C    0.312794  1.198463  0.669087
C    0.153300  0.283987  1.863713
O    1.048014  -0.484588  2.209526
H    1.372576  1.458135  0.598172
H    -0.280840  2.115983  0.707920
H    0.031941  0.648637  -0.240669
N    -1.037365  0.271022  2.564682
C    -2.241606  1.100348  2.516669
C    -2.674139  1.505808  1.090158
O    -2.841384  2.682047  0.772624
H    -0.976888  -0.363376  3.357483
H    -3.054003  0.439260  2.869146
C    -2.232009  2.295735  3.490650
C    -1.081679  3.298849  3.348210
C    0.295503  2.835480  3.769322
O    1.329746  3.127056  3.206699
O    0.274159  2.076941  4.905879
H    -2.236934  1.893718  4.513413
H    -3.178664  2.835029  3.351717
H    -1.309456  4.166919  3.988526
H    -1.006174  3.683605  2.326271
N    -2.922076  0.493964  0.207492
C    -2.821949  -0.943823  0.397116
H    -3.188761  0.834003  -0.711297
H    -3.452558  -1.437075  -0.351284
H    -3.190760  -1.240175  1.386880
H    -1.793092  -1.317561  0.290308
H    1.205835  1.836012  5.074625
