28
Energy: -19698.0738517 eV PBE+vdW (tier 2 basis)
C    0.284447  1.241491  0.256827
C    0.146547  1.151623  1.765768
O    0.954284  1.666612  2.534511
H    0.360177  2.297613  -0.028322
H    -0.545036  0.778652  -0.292495
H    1.222078  0.755028  -0.041631
N    -0.924035  0.425298  2.214657
C    -1.268984  0.366597  3.627467
C    -0.370672  -0.459205  4.580172
O    -0.506764  -0.247274  5.785893
H    -1.619088  0.117171  1.543327
H    -1.170239  1.382100  4.039674
C    -2.731789  -0.077907  3.820273
C    -3.023531  -1.568347  3.578227
C    -2.910862  -2.096651  2.168026
O    -2.480701  -3.183771  1.851134
O    -3.393453  -1.212868  1.229140
H    -3.381321  0.549859  3.194120
H    -2.985135  0.138610  4.865015
H    -4.063434  -1.770135  3.884228
H    -2.388707  -2.205595  4.205691
N    0.482569  -1.428681  4.142544
C    0.886435  -1.863917  2.811829
H    0.993476  -1.829388  4.923910
H    1.485819  -2.773225  2.932331
H    1.503872  -1.113584  2.298343
H    0.027621  -2.122569  2.184540
H    -3.341972  -1.688500  0.376717
