28
Energy: -19698.0331753 eV PBE+vdW (tier 2 basis)
C    0.230291  -0.197739  0.360257
C    0.058600  -0.505314  1.830465
O    1.019117  -0.796130  2.554302
H    0.751380  0.765132  0.270500
H    -0.714130  -0.139254  -0.194318
H    0.869975  -0.966192  -0.087984
N    -1.209745  -0.378993  2.317386
C    -1.587339  -0.785078  3.675288
C    -2.943826  -1.514825  3.668005
O    -3.036015  -2.647812  4.129680
H    -1.946479  -0.202407  1.645607
H    -0.862732  -1.555110  3.969106
C    -1.554207  0.322408  4.752688
C    -0.185141  0.994328  4.926835
C    0.067505  2.085817  3.888472
O    -0.663108  3.043881  3.754931
O    1.185486  1.960205  3.129561
H    -1.839073  -0.164641  5.696570
H    -2.300297  1.105003  4.561739
H    0.615279  0.244023  4.940457
H    -0.172406  1.513408  5.896153
N    -4.036063  -0.891358  3.114180
C    -4.266035  0.510791  2.789178
H    -4.865280  -1.476432  3.184058
H    -4.820071  1.029042  3.586975
H    -4.845631  0.587216  1.859504
H    -3.325814  1.050515  2.644554
H    1.507238  1.032508  3.182231
