28
Energy: -19698.2431577 eV PBE+vdW (tier 2 basis)
C    0.231517  -0.478361  0.275406
C    0.168303  -0.234096  1.768940
O    1.179628  -0.347893  2.474245
H    1.096815  0.053940  -0.135117
H    -0.672935  -0.176004  -0.266027
H    0.395767  -1.551605  0.110426
N    -1.055437  0.105311  2.253524
C    -1.513290  0.255733  3.646843
C    -0.837429  1.338957  4.528715
O    -1.542230  1.937870  5.344388
H    -1.795140  0.167351  1.564968
H    -2.529987  0.655136  3.544302
C    -1.675916  -1.069016  4.432241
C    -0.416182  -1.796054  4.917976
C    0.295677  -2.752069  3.986086
O    1.390963  -3.222779  4.197336
O    -0.449901  -3.112962  2.894593
H    -2.296211  -1.750691  3.834770
H    -2.268999  -0.797519  5.317013
H    -0.686960  -2.417696  5.787195
H    0.345960  -1.100337  5.291432
N    0.490446  1.532493  4.374729
C    1.221283  2.488987  5.183797
H    0.990031  0.892445  3.741820
H    2.036815  2.922988  4.593299
H    1.649218  2.022142  6.084584
H    0.537109  3.281781  5.505064
H    0.107030  -3.759016  2.418466
