28
Energy: -19697.930188 eV PBE+vdW (tier 2 basis)
C    0.897665  0.190377  0.409403
C    0.419042  -0.237943  1.787318
O    1.089132  -0.991949  2.491929
H    1.036051  -0.708074  -0.204826
H    1.879411  0.668420  0.513860
H    0.219436  0.876253  -0.112968
N    -0.792195  0.283865  2.155172
C    -1.596070  0.050740  3.362481
C    -1.592172  1.261279  4.336256
O    -2.671034  1.801965  4.590854
H    -1.212112  0.932179  1.499381
H    -2.638501  0.070807  3.013096
C    -1.388944  -1.326110  4.022245
C    -2.539183  -1.714676  4.960997
C    -2.608273  -1.080980  6.335113
O    -3.620414  -0.959347  6.988284
O    -1.381125  -0.713334  6.814612
H    -0.429000  -1.394728  4.541362
H    -1.347657  -2.068113  3.213259
H    -2.473300  -2.797889  5.155286
H    -3.520822  -1.550217  4.497328
N    -0.427596  1.737571  4.855641
C    0.888296  1.123975  4.926767
H    -0.599542  2.523476  5.477755
H    1.661923  1.876937  4.724682
H    1.068213  0.690942  5.922761
H    0.996283  0.324911  4.187687
H    -1.554841  -0.353969  7.706211
