28
Energy: -19698.0411224 eV PBE+vdW (tier 2 basis)
C    -0.482016  0.578303  -0.611612
C    -0.081704  0.022466  0.739099
O    1.087982  -0.240947  1.009481
H    -0.442536  1.676351  -0.564539
H    -1.487175  0.298538  -0.944739
H    0.261008  0.249494  -1.343971
N    -1.055721  -0.163383  1.697068
C    -2.499282  0.075087  1.655651
C    -3.206719  -0.692737  0.511945
O    -3.880638  -0.112243  -0.337116
H    -0.662171  -0.442375  2.591235
H    -2.878548  -0.367340  2.591962
C    -2.901104  1.557560  1.642344
C    -2.239241  2.370513  2.769096
C    -2.650022  1.867148  4.133999
O    -3.742175  2.006513  4.641585
O    -1.641995  1.175268  4.753536
H    -3.993610  1.621973  1.726528
H    -2.643637  2.005071  0.674611
H    -2.573749  3.413214  2.695509
H    -1.146932  2.347408  2.676313
N    -3.055541  -2.049094  0.493229
C    -2.336495  -2.907965  1.420565
H    -3.521573  -2.486404  -0.295448
H    -1.250113  -2.892709  1.254454
H    -2.532111  -2.623369  2.463239
H    -2.697061  -3.934367  1.290588
H    -2.006398  0.893788  5.616174
