28
Energy: -19698.2333045 eV PBE+vdW (tier 2 basis)
C    0.110143  0.438931  0.426961
C    0.061661  -0.209035  1.798932
O    1.068885  -0.628544  2.360305
H    -0.304587  1.456565  0.437374
H    1.156965  0.483721  0.116279
H    -0.455220  -0.143945  -0.313789
N    -1.167829  -0.289237  2.419792
C    -2.479995  -0.037728  1.843041
C    -3.391114  0.788247  2.789972
O    -4.614015  0.753251  2.682447
H    -1.145958  -0.821164  3.289040
H    -2.331805  0.627896  0.979739
C    -3.195676  -1.295673  1.308029
C    -3.156009  -2.552178  2.200923
C    -3.868293  -2.405288  3.525290
O    -4.978376  -2.802188  3.792106
O    -3.084538  -1.747062  4.443143
H    -2.730777  -1.569906  0.350411
H    -4.237449  -1.016875  1.103087
H    -2.113475  -2.847697  2.388038
H    -3.648271  -3.372571  1.667088
N    -2.724013  1.581932  3.668227
C    -3.400114  2.460433  4.601293
H    -1.713637  1.495124  3.693889
H    -3.083697  3.503434  4.463508
H    -4.475727  2.385380  4.408813
H    -3.202246  2.166867  5.642153
H    -3.635595  -1.650499  5.243878
