28
Energy: -19698.1622607 eV PBE+vdW (tier 2 basis)
C    0.079736  -0.740404  0.118176
C    -0.007224  -0.142805  1.507556
O    0.999851  0.189563  2.126147
H    -0.686192  -1.496538  -0.078655
H    1.068993  -1.196859  0.020949
H    0.004459  0.061298  -0.631232
N    -1.250242  0.104882  2.066245
C    -2.575584  -0.361015  1.696665
C    -2.749232  -1.905579  1.779985
O    -1.804989  -2.687832  1.806980
H    -1.145756  0.429317  3.022990
H    -3.235783  0.033260  2.482905
C    -3.086245  0.212212  0.347480
C    -3.784439  1.559858  0.502631
C    -5.127338  1.453528  1.188665
O    -5.655458  0.425092  1.577119
O    -5.718601  2.665067  1.330405
H    -3.776322  -0.501522  -0.121070
H    -2.242080  0.324035  -0.340841
H    -3.956487  2.038945  -0.473699
H    -3.163329  2.273224  1.067511
N    -4.058812  -2.277445  1.833384
C    -4.477010  -3.664717  1.881780
H    -4.765794  -1.544202  1.798436
H    -5.109129  -3.854417  2.760130
H    -3.576341  -4.283870  1.950664
H    -5.035657  -3.948564  0.977961
H    -6.575426  2.505484  1.772741
