28
Energy: -19698.0726447 eV PBE+vdW (tier 2 basis)
C    1.220744  -0.152965  0.467963
C    0.276139  -1.166796  1.088641
O    0.365756  -2.372085  0.875300
H    2.214781  -0.280164  0.916599
H    0.905293  0.889230  0.603675
H    1.315183  -0.366190  -0.602945
N    -0.698567  -0.645091  1.898054
C    -1.574201  -1.484588  2.704414
C    -2.403283  -2.539767  1.943867
O    -2.625461  -3.614539  2.500469
H    -0.676673  0.346623  2.106673
H    -0.961924  -2.091530  3.387347
C    -2.508972  -0.578650  3.532318
C    -3.268251  -1.318415  4.631529
C    -2.399666  -1.650273  5.825095
O    -1.274852  -1.239000  6.026017
O    -3.048587  -2.470825  6.694403
H    -3.228782  -0.083044  2.863860
H    -1.893877  0.206042  3.999346
H    -3.717775  -2.251199  4.262742
H    -4.101710  -0.702720  5.003426
N    -2.986524  -2.246838  0.742572
C    -2.836437  -1.100201  -0.137365
H    -3.476603  -3.052943  0.366540
H    -3.661166  -1.116400  -0.859738
H    -1.887988  -1.114853  -0.695747
H    -2.900799  -0.156178  0.414711
H    -2.427268  -2.627296  7.431876
