28
Energy: -19698.3798068 eV PBE+vdW (tier 2 basis)
C    0.535556  0.383078  1.184760
C    -0.047260  0.060579  2.542034
O    0.684361  -0.183160  3.510076
H    1.135455  1.298124  1.267549
H    -0.218212  0.518200  0.399977
H    1.217565  -0.425353  0.894307
N    -1.407908  0.040078  2.619076
C    -2.161490  -0.206458  3.849028
C    -3.385044  -1.118033  3.577082
O    -4.443172  -0.973563  4.177360
H    -1.929332  0.363224  1.810332
H    -1.489818  -0.787218  4.502122
C    -2.574631  1.086074  4.563414
C    -1.401756  1.906534  5.131899
C    -0.765621  1.253593  6.361058
O    -1.122437  1.516675  7.489581
O    0.202318  0.337049  6.139037
H    -3.271740  0.818893  5.367520
H    -3.146235  1.710361  3.859417
H    -1.787692  2.875598  5.468654
H    -0.646286  2.102836  4.356295
N    -3.169588  -2.096236  2.649568
C    -4.157860  -3.116152  2.349930
H    -2.239270  -2.181110  2.256580
H    -3.873749  -4.090331  2.773641
H    -4.289344  -3.223867  1.265424
H    -5.105657  -2.803069  2.799817
H    0.376847  0.201653  5.168464
