28
Energy: -19698.0146637 eV PBE+vdW (tier 2 basis)
C    -0.287804  -0.269056  -0.187011
C    -0.184273  -0.421108  1.319228
O    0.717900  -1.056370  1.854590
H    -1.057683  0.442938  -0.510327
H    -0.510047  -1.252198  -0.622145
H    0.684820  0.050453  -0.578307
N    -1.171525  0.213695  2.038827
C    -1.336521  -0.002161  3.477242
C    -2.791534  -0.366442  3.831071
O    -3.043424  -1.438658  4.371883
H    -1.940138  0.614944  1.516089
H    -0.770890  -0.915684  3.702080
C    -0.783380  1.137235  4.355628
C    0.734778  1.268921  4.263730
C    1.258099  2.459253  5.031000
O    0.596194  3.382861  5.460199
O    2.611833  2.398519  5.181551
H    -1.072486  0.931618  5.397348
H    -1.240077  2.100068  4.094855
H    1.057163  1.394684  3.217658
H    1.248399  0.361076  4.608391
N    -3.808129  0.500973  3.503169
C    -3.767005  1.917276  3.167330
H    -4.706504  0.143203  3.818061
H    -3.746768  2.562683  4.059681
H    -4.656218  2.169692  2.576669
H    -2.889457  2.164801  2.561282
H    2.863337  3.212231  5.660331
