28
Energy: -19698.0557948 eV PBE+vdW (tier 2 basis)
C    0.092976  -0.503414  0.969176
C    -0.128167  0.314481  2.230212
O    0.789288  0.568389  3.005404
H    1.166524  -0.689909  0.883928
H    -0.251972  0.011066  0.062798
H    -0.428754  -1.468225  1.021855
N    -1.401491  0.767165  2.492193
C    -2.639560  0.563763  1.745388
C    -3.333713  1.942325  1.625568
O    -4.195629  2.294005  2.427393
H    -1.475847  1.273621  3.372504
H    -2.366916  0.198497  0.746451
C    -3.595643  -0.437781  2.408910
C    -2.990980  -1.844120  2.545421
C    -3.978488  -2.796121  3.178591
O    -4.695546  -3.570618  2.580666
O    -4.001751  -2.668275  4.536701
H    -4.515894  -0.485282  1.808406
H    -3.888229  -0.046803  3.392204
H    -2.081942  -1.803445  3.161119
H    -2.738514  -2.255927  1.559966
N    -2.920558  2.761780  0.614326
C    -1.828835  2.558014  -0.323108
H    -3.355732  3.678743  0.644541
H    -0.848041  2.529536  0.174456
H    -1.825848  3.390489  -1.034282
H    -1.959360  1.634927  -0.905220
H    -4.689978  -3.285424  4.852985
