28
Energy: -19697.9998224 eV PBE+vdW (tier 2 basis)
C    -1.103055  0.456638  -0.096208
C    -0.816547  0.204458  1.373825
O    0.333034  0.175545  1.809652
H    -0.544003  -0.275511  -0.691258
H    -0.722848  1.451845  -0.359215
H    -2.165209  0.398860  -0.363169
N    -1.925746  -0.002571  2.148906
C    -1.952238  -0.170623  3.606460
C    -1.851822  1.218342  4.306217
O    -2.888802  1.884293  4.376444
H    -2.823529  0.183381  1.718928
H    -2.998105  -0.429620  3.823777
C    -1.088792  -1.335718  4.107296
C    -1.361522  -1.632773  5.582981
C    -0.354132  -2.583112  6.188693
O    0.786911  -2.748382  5.812763
O    -0.874195  -3.238499  7.266807
H    -0.022700  -1.162775  3.945457
H    -1.346201  -2.217582  3.502163
H    -2.373353  -2.028229  5.747229
H    -1.306551  -0.709209  6.185639
N    -0.688080  1.695875  4.828199
C    0.682021  1.191310  4.793093
H    -0.830971  2.608921  5.250770
H    0.871840  0.433894  5.568454
H    1.352757  2.037364  4.979674
H    0.919427  0.777669  3.807226
H    -0.148826  -3.791717  7.617283
