28
Energy: -19698.5143851 eV PBE+vdW (tier 2 basis)
C    0.008184  -1.164668  0.198709
C    -0.046542  -1.283362  1.710541
O    0.443787  -2.236014  2.312130
H    -0.436522  -2.063311  -0.246434
H    1.060404  -1.135975  -0.111611
H    -0.504260  -0.275989  -0.189464
N    -0.705566  -0.258336  2.346963
C    -0.673016  -0.120638  3.794531
C    -2.005778  -0.457137  4.497602
O    -2.166669  -0.204186  5.692833
H    -0.939697  0.589122  1.824635
H    0.031126  -0.894796  4.142528
C    -0.141337  1.251196  4.258220
C    -1.112255  2.438774  4.224033
C    -1.487667  2.993779  2.874483
O    -1.356529  2.454496  1.786324
O    -2.036493  4.230266  2.985139
H    0.767432  1.478497  3.683351
H    0.163697  1.135415  5.305390
H    -0.705473  3.272167  4.813858
H    -2.051290  2.168977  4.735999
N    -2.940914  -1.047732  3.712027
C    -4.209444  -1.525553  4.221567
H    -2.677791  -1.220917  2.747546
H    -4.270137  -2.622563  4.179122
H    -5.048015  -1.102157  3.651897
H    -4.288467  -1.207830  5.267016
H    -2.279550  4.503417  2.078882
