28
Energy: -19698.2603588 eV PBE+vdW (tier 2 basis)
C    -0.380478  -0.573483  -0.163118
C    -0.131049  -0.600912  1.332008
O    0.949837  -0.917535  1.818733
H    0.563976  -0.793205  -0.666934
H    -0.756430  0.402475  -0.499738
H    -1.121814  -1.331300  -0.454664
N    -1.183055  -0.234808  2.147524
C    -2.540157  0.128726  1.768552
C    -2.771432  1.643914  1.535668
O    -3.864776  2.044506  1.144132
H    -0.972901  -0.322891  3.139648
H    -2.773168  -0.339418  0.800583
C    -3.550839  -0.385734  2.804432
C    -3.640496  -1.919310  2.829414
C    -4.586816  -2.434453  3.888472
O    -5.598222  -3.071342  3.689209
O    -4.167766  -2.093908  5.144540
H    -4.527414  0.048760  2.555699
H    -3.273757  -0.005453  3.800003
H    -2.646905  -2.353650  3.020893
H    -3.996859  -2.300588  1.865003
N    -1.703182  2.444000  1.786896
C    -1.741452  3.882669  1.611094
H    -0.847072  1.993098  2.091423
H    -1.529535  4.402261  2.555560
H    -2.749232  4.149156  1.274865
H    -1.013572  4.209814  0.855755
H    -4.836251  -2.458433  5.756404
