28
Energy: -19698.1686266 eV PBE+vdW (tier 2 basis)
C    -0.196725  -0.037046  -0.161815
C    0.011565  -0.252318  1.326490
O    1.132799  -0.422141  1.799691
H    -0.156952  1.038747  -0.383954
H    -1.143650  -0.423262  -0.553557
H    0.639518  -0.512578  -0.682483
N    -1.090137  -0.236422  2.150700
C    -2.503646  -0.049686  1.833573
C    -3.038227  1.063964  2.760614
O    -3.516646  0.802507  3.863086
H    -0.857044  -0.379051  3.131977
H    -2.578472  0.265221  0.788344
C    -3.332613  -1.328416  2.031737
C    -2.876827  -2.515699  1.187514
C    -3.172852  -2.388953  -0.288036
O    -3.550805  -1.386167  -0.863873
O    -2.949438  -3.561463  -0.942378
H    -4.383528  -1.092372  1.811981
H    -3.296114  -1.600294  3.095021
H    -3.340839  -3.447115  1.541721
H    -1.791579  -2.682786  1.290059
N    -2.926845  2.350041  2.316375
C    -2.239233  2.834043  1.130502
H    -3.207786  3.034851  3.011993
H    -2.568425  2.300883  0.229562
H    -1.145103  2.745349  1.213817
H    -2.488372  3.891665  0.992870
H    -3.144851  -3.387612  -1.883818
