28
Energy: -19697.9636703 eV PBE+vdW (tier 2 basis)
C    0.410916  0.865417  0.548503
C    0.017829  -0.050326  1.692621
O    0.826565  -0.772946  2.263728
H    -0.385072  1.552862  0.235464
H    0.701829  0.246018  -0.309977
H    1.290877  1.446547  0.846996
N    -1.313025  -0.002442  2.046878
C    -1.892476  -0.967207  2.980927
C    -3.173354  -1.610170  2.414082
O    -3.240350  -2.826597  2.272807
H    -1.932705  0.520879  1.441065
H    -1.174365  -1.795927  3.031870
C    -2.092880  -0.430037  4.413523
C    -0.762169  -0.063312  5.095567
C    -1.009941  0.413533  6.505357
O    -1.035638  -0.281375  7.498749
O    -1.253242  1.760476  6.549492
H    -2.595606  -1.216114  4.996911
H    -2.753755  0.447546  4.415593
H    -0.107602  -0.941033  5.140434
H    -0.251299  0.722052  4.525070
N    -4.225150  -0.807983  2.033755
C    -4.527597  0.575564  2.369271
H    -5.005631  -1.366995  1.697909
H    -5.112351  1.025866  1.557148
H    -3.616345  1.170014  2.488160
H    -5.105455  0.664260  3.303215
H    -1.433591  1.964439  7.487928
