28
Energy: -19698.2242365 eV PBE+vdW (tier 2 basis)
C    0.032825  -2.970690  0.691602
C    -0.942403  -2.551884  1.770643
O    -1.926636  -3.239009  2.066728
H    0.870702  -2.275717  0.558885
H    -0.508884  -3.065422  -0.257799
H    0.427591  -3.963194  0.941663
N    -0.666884  -1.373649  2.400658
C    -1.502004  -0.827319  3.471323
C    -2.693588  -0.018682  2.887019
O    -2.755330  1.206302  2.954324
H    0.077598  -0.785048  2.041667
H    -1.921057  -1.700666  3.995742
C    -0.656787  0.015625  4.421928
C    0.315611  -0.831333  5.243293
C    1.427138  -0.012909  5.886974
O    1.795647  1.070116  5.505371
O    2.055777  -0.607184  6.949129
H    -1.326539  0.580434  5.082288
H    -0.099006  0.778048  3.859642
H    0.814421  -1.576028  4.597814
H    -0.224110  -1.409621  6.010453
N    -3.632184  -0.814648  2.308125
C    -4.789855  -0.281630  1.617263
H    -3.418851  -1.812631  2.249214
H    -4.840968  0.793143  1.820734
H    -5.710542  -0.760534  1.976304
H    -4.716347  -0.432410  0.529953
H    1.632666  -1.461460  7.143060
