28
Energy: -19698.1521329 eV PBE+vdW (tier 2 basis)
C    -0.678140  0.545195  -0.187236
C    -0.272896  0.054581  1.188697
O    0.798684  0.362311  1.697046
H    0.231239  0.657350  -0.785655
H    -1.388289  -0.102355  -0.713078
H    -1.135569  1.539468  -0.089718
N    -1.145268  -0.777812  1.874743
C    -2.526717  -1.131381  1.552320
C    -2.643931  -2.117400  0.367770
O    -3.722442  -2.255036  -0.227914
H    -0.828594  -0.960016  2.823049
H    -2.867676  -1.728482  2.414412
C    -3.503818  0.066693  1.394605
C    -4.668400  0.090829  2.389565
C    -5.790308  -0.957568  2.340685
O    -6.626034  -0.979961  3.220262
O    -5.860782  -1.810085  1.304713
H    -3.879060  0.103153  0.363263
H    -2.928005  0.987505  1.550565
H    -5.192782  1.053873  2.293967
H    -4.292687  0.075569  3.423497
N    -1.540167  -2.831685  0.077512
C    -1.492927  -3.843807  -0.962032
H    -0.704107  -2.611338  0.609978
H    -1.149532  -4.801896  -0.551222
H    -0.818090  -3.542678  -1.774971
H    -2.503582  -3.965830  -1.363731
H    -5.067502  -1.798880  0.696000
