28
Energy: -19698.1103804 eV PBE+vdW (tier 2 basis)
C    0.268367  0.716638  0.518285
C    -0.126190  -0.225198  1.642290
O    0.705274  -0.800652  2.334430
H    0.900991  0.170517  -0.192123
H    0.875285  1.527438  0.939883
H    -0.582416  1.154170  -0.018789
N    -1.485195  -0.359542  1.838869
C    -2.054009  -1.362317  2.746175
C    -3.578026  -1.460929  2.584320
O    -4.162739  -2.520201  2.780684
H    -2.074180  -0.074166  1.063534
H    -1.669992  -2.359769  2.483497
C    -1.685952  -1.124863  4.230746
C    -2.135599  0.232989  4.788302
C    -1.588849  0.527697  6.166405
O    -0.985161  1.529047  6.487846
O    -1.866719  -0.476203  7.048440
H    -0.596605  -1.218619  4.312726
H    -2.134756  -1.942543  4.809025
H    -3.234666  0.274383  4.861578
H    -1.805620  1.055433  4.142206
N    -4.224762  -0.305446  2.227811
C    -5.674517  -0.238358  2.150083
H    -3.707565  0.565682  2.280145
H    -5.974930  0.479078  1.377498
H    -6.126462  0.056414  3.109494
H    -6.048647  -1.233645  1.890141
H    -1.478991  -0.196350  7.900225
