28
Energy: -19698.2052776 eV PBE+vdW (tier 2 basis)
C    -0.170189  1.396085  0.927019
C    -0.308040  0.438647  2.096386
O    0.560336  0.319949  2.956329
H    0.849653  1.788977  0.938711
H    -0.869090  2.239211  1.026892
H    -0.373159  0.920723  -0.041442
N    -1.472982  -0.292097  2.178633
C    -2.548293  -0.374674  1.196627
C    -3.881151  -0.440391  1.972135
O    -4.462391  -1.506952  2.172825
H    -1.482234  -0.963556  2.943423
H    -2.521268  0.545718  0.601409
C    -2.385841  -1.574660  0.252435
C    -3.403342  -1.624140  -0.886364
C    -3.279253  -0.499387  -1.886527
O    -2.475633  0.413526  -1.853086
O    -4.201982  -0.616082  -2.881201
H    -2.477534  -2.497037  0.841161
H    -1.366460  -1.539719  -0.156204
H    -4.433993  -1.630250  -0.499711
H    -3.308407  -2.566967  -1.445903
N    -4.371454  0.741731  2.445606
C    -3.750834  2.055782  2.384278
H    -5.202932  0.632093  3.017857
H    -4.459432  2.790649  2.780135
H    -3.521164  2.344888  1.349508
H    -2.826964  2.109561  2.978712
H    -4.049054  0.140092  -3.480694
