28
Energy: -19698.4008451 eV PBE+vdW (tier 2 basis)
C    -0.859882  -0.059593  0.274420
C    -0.690497  0.916070  1.420774
O    -0.457298  2.110901  1.249131
H    -1.869538  0.076319  -0.138404
H    -0.744288  -1.108676  0.574560
H    -0.138834  0.181714  -0.513359
N    -0.867835  0.381621  2.667893
C    -0.806568  1.193787  3.861750
C    -0.371916  0.276130  5.014433
O    -0.517042  -0.945971  4.956011
H    -0.929256  -0.621912  2.824508
H    -0.055260  1.982856  3.697684
C    -2.159240  1.890877  4.162828
C    -3.340033  0.919727  4.278303
C    -3.861517  0.454216  2.934053
O    -4.044609  1.156876  1.962504
O    -4.164965  -0.877047  2.943076
H    -2.353478  2.608744  3.354528
H    -2.066203  2.467233  5.094626
H    -4.185107  1.438652  4.757286
H    -3.103374  0.049218  4.903074
N    0.138729  0.920469  6.098469
C    0.550569  0.231273  7.307544
H    0.273706  1.922771  6.038060
H    0.332742  -0.832900  7.171366
H    -0.001112  0.602008  8.182324
H    1.627640  0.352894  7.487464
H    -4.540534  -1.067258  2.061095
