28
Energy: -19698.1163557 eV PBE+vdW (tier 2 basis)
C    0.073502  1.163432  0.470332
C    0.160740  0.504453  1.839039
O    1.209805  0.483922  2.476171
H    -0.276305  0.472006  -0.307557
H    -0.607862  2.026661  0.483736
H    1.075019  1.514912  0.209533
N    -0.976639  -0.081238  2.339164
C    -2.326532  -0.033329  1.812496
C    -3.261059  0.448800  2.940672
O    -3.013013  0.181184  4.113919
H    -0.910917  -0.378518  3.312848
H    -2.349904  0.671444  0.971285
C    -2.825422  -1.417326  1.334584
C    -1.995218  -1.983477  0.189214
C    -2.463877  -3.348034  -0.262643
O    -3.420361  -3.956294  0.167982
O    -1.664850  -3.836508  -1.254368
H    -3.880268  -1.347163  1.031683
H    -2.802287  -2.106556  2.190654
H    -0.934753  -2.065362  0.471719
H    -2.016913  -1.323300  -0.693218
N    -4.383570  1.131669  2.576073
C    -4.779910  1.559041  1.243940
H    -4.980703  1.379323  3.358807
H    -5.721691  2.111034  1.326157
H    -4.951818  0.710513  0.565579
H    -4.040107  2.232611  0.786826
H    -2.032358  -4.710833  -1.488819
