28
Energy: -19698.3231539 eV PBE+vdW (tier 2 basis)
C    0.763937  1.914175  2.806181
C    0.574609  0.436050  2.522540
O    1.413377  -0.233702  1.922872
H    0.825071  2.448392  1.849566
H    1.721089  2.055327  3.322368
H    -0.039003  2.356374  3.408875
N    -0.589015  -0.109809  2.996055
C    -0.991691  -1.477019  2.666457
C    -2.531412  -1.538796  2.608337
O    -3.126026  -1.760413  1.556975
H    -1.273143  0.493529  3.437836
H    -0.645892  -1.664822  1.644443
C    -0.384997  -2.579482  3.599412
C    0.631207  -2.087539  4.624898
C    0.050652  -1.229109  5.717362
O    -1.134295  -1.089693  5.981897
O    1.016538  -0.617852  6.447182
H    0.111321  -3.319399  2.960282
H    -1.193503  -3.110976  4.119937
H    1.461498  -1.547084  4.150087
H    1.094291  -2.952176  5.128600
N    -3.151141  -1.295944  3.799739
C    -4.594964  -1.340854  3.933741
H    -2.578576  -1.269567  4.646989
H    -5.040753  -1.147448  2.952299
H    -4.929624  -0.576663  4.646032
H    -4.945864  -2.325001  4.281425
H    0.555309  -0.120499  7.150610
