28
Energy: -19698.4174512 eV PBE+vdW (tier 2 basis)
C    0.238392  0.651935  0.522252
C    0.206759  0.088043  1.925409
O    1.238451  -0.121060  2.573187
H    0.982681  0.105809  -0.067989
H    0.562210  1.699766  0.579318
H    -0.731914  0.614331  0.011917
N    -1.031794  -0.152667  2.444486
C    -1.229695  -0.582386  3.827695
C    -1.122462  -2.127943  3.942015
O    -2.106575  -2.847625  4.103918
H    -1.843064  -0.067451  1.843052
H    -0.390517  -0.147921  4.392537
C    -2.557556  -0.081540  4.391851
C    -2.749292  1.441239  4.295213
C    -1.620712  2.255566  4.888561
O    -0.991899  3.116446  4.310775
O    -1.374308  1.914398  6.187980
H    -2.614368  -0.401995  5.439627
H    -3.388086  -0.589811  3.881098
H    -3.674638  1.713219  4.825347
H    -2.857672  1.777082  3.257619
N    0.157222  -2.571520  3.834382
C    0.495561  -3.980587  3.803878
H    0.862847  -1.872238  3.589663
H    1.328602  -4.191687  4.487143
H    0.779309  -4.307947  2.792219
H    -0.384567  -4.549256  4.121948
H    -0.634914  2.483799  6.476900
