28
Energy: -19698.2678587 eV PBE+vdW (tier 2 basis)
C    -0.091470  0.842551  0.471973
C    0.050988  -0.134647  1.622020
O    1.137144  -0.566851  1.995006
H    -0.616524  0.377904  -0.375075
H    0.911174  1.132100  0.147989
H    -0.658180  1.739202  0.757501
N    -1.110809  -0.521676  2.261046
C    -2.484332  -0.187913  1.904617
C    -3.002392  1.146847  2.495890
O    -4.095198  1.589401  2.148743
H    -0.954044  -1.242997  2.960383
H    -2.547792  -0.055396  0.815220
C    -3.452180  -1.326200  2.273041
C    -3.620988  -1.541747  3.776509
C    -4.534546  -2.703674  4.099178
O    -5.037614  -3.462543  3.299433
O    -4.731657  -2.810969  5.444725
H    -3.111306  -2.252550  1.791037
H    -4.427636  -1.081706  1.835727
H    -4.032946  -0.645239  4.264205
H    -2.666393  -1.739404  4.291925
N    -2.184364  1.742843  3.402104
C    -2.511895  2.996001  4.052914
H    -1.299251  1.285341  3.594194
H    -2.553945  2.876478  5.144284
H    -3.496158  3.310968  3.689656
H    -1.774867  3.774223  3.810808
H    -5.321873  -3.579568  5.568723
