28
Energy: -19698.0796059 eV PBE+vdW (tier 2 basis)
C    0.682379  0.470909  1.906782
C    0.222398  -0.464533  3.014506
O    1.024183  -1.093215  3.700026
H    1.771788  0.403470  1.850281
H    0.405212  1.512716  2.122619
H    0.259087  0.218261  0.925771
N    -1.130240  -0.594224  3.222332
C    -2.209171  0.155922  2.612526
C    -3.060765  0.791946  3.727907
O    -3.188872  0.224834  4.812428
H    -1.382163  -1.094525  4.074808
H    -1.779963  0.931292  1.969641
C    -3.133130  -0.750457  1.761514
C    -2.426798  -1.370135  0.560367
C    -2.099024  -0.360783  -0.529981
O    -2.480473  0.787114  -0.550822
O    -1.317471  -0.825106  -1.548294
H    -3.999512  -0.169036  1.416983
H    -3.518035  -1.547732  2.413075
H    -3.059592  -2.151487  0.108120
H    -1.501505  -1.876716  0.881631
N    -3.703456  1.955765  3.434427
C    -3.553567  2.793769  2.251770
H    -4.247430  2.320464  4.211205
H    -4.450897  3.413993  2.146264
H    -3.459162  2.192381  1.340360
H    -2.681249  3.462772  2.321885
H    -1.081170  -1.755222  -1.385053
