28
Energy: -19698.0736356 eV PBE+vdW (tier 2 basis)
C    0.284818  0.639826  -0.198036
C    -0.037832  -0.484000  0.768239
O    0.418839  -1.613736  0.619554
H    0.986471  1.351340  0.259041
H    -0.605147  1.199033  -0.512185
H    0.764248  0.195666  -1.074178
N    -0.836340  -0.206693  1.857660
C    -1.603666  0.993002  2.189178
C    -2.678506  1.283280  1.100209
O    -3.490619  0.408944  0.806853
H    -1.071689  -1.049666  2.371549
H    -2.211021  0.693273  3.056817
C    -0.706121  2.159756  2.648978
C    -1.442774  3.248836  3.454684
C    -1.351930  4.627011  2.844581
O    -1.224187  4.866083  1.655688
O    -1.459914  5.606699  3.772580
H    -0.195927  2.619925  1.792507
H    0.084058  1.723399  3.272470
H    -1.093265  3.299567  4.492508
H    -2.522865  3.029296  3.518615
N    -2.676493  2.512970  0.525403
C    -3.659384  2.866085  -0.484602
H    -1.989161  3.219511  0.785860
H    -3.598815  3.943537  -0.669984
H    -4.669848  2.607755  -0.143147
H    -3.479725  2.328346  -1.427057
H    -1.437518  6.454474  3.286031
