28
Energy: -19698.0504666 eV PBE+vdW (tier 2 basis)
C    -0.439835  -0.858396  -0.475857
C    -0.099723  -0.083389  0.788961
O    1.056752  0.218090  1.071490
H    0.499338  -1.112953  -0.973611
H    -1.049373  -0.253430  -1.162965
H    -0.994284  -1.783134  -0.263589
N    -1.144530  0.284070  1.596129
C    -2.553516  -0.027644  1.440286
C    -3.326614  1.161294  2.042055
O    -2.956207  1.659513  3.101678
H    -0.904645  0.813984  2.433103
H    -2.776250  -0.133841  0.370345
C    -2.928544  -1.348890  2.159982
C    -4.328082  -1.887450  1.847901
C    -5.439548  -1.263266  2.666148
O    -5.354666  -0.900234  3.817263
O    -6.607426  -1.196247  1.955517
H    -2.816028  -1.205612  3.243644
H    -2.184954  -2.097624  1.855044
H    -4.361601  -2.961298  2.093718
H    -4.569709  -1.819344  0.778457
N    -4.433051  1.614860  1.384289
C    -4.921398  1.274887  0.055375
H    -4.898899  2.369412  1.879759
H    -5.581100  2.081247  -0.283529
H    -4.100680  1.201079  -0.669672
H    -5.500778  0.340909  0.040566
H    -7.274029  -0.843233  2.577054
