28
Energy: -19698.0882332 eV PBE+vdW (tier 2 basis)
C    -0.664739  -0.079594  -0.237331
C    -0.219769  0.143910  1.192355
O    0.662557  0.951835  1.459215
H    0.234040  -0.077199  -0.864061
H    -1.280603  0.773321  -0.550458
H    -1.226940  -1.001637  -0.413221
N    -0.771031  -0.610188  2.221815
C    -2.003705  -1.400677  2.318140
C    -2.035137  -2.626459  1.379000
O    -3.098390  -3.083896  0.938408
H    -0.401610  -0.288344  3.113856
H    -1.936189  -1.861127  3.318889
C    -3.326730  -0.611861  2.326808
C    -3.861076  -0.068835  0.979599
C    -5.305235  -0.486261  0.703136
O    -6.211708  0.301796  0.545515
O    -5.511698  -1.820396  0.640074
H    -3.198020  0.220251  3.031456
H    -4.080568  -1.269669  2.780957
H    -3.259339  -0.440982  0.140462
H    -3.823657  1.024288  0.946947
N    -0.834911  -3.200044  1.147566
C    -0.657193  -4.384702  0.328189
H    -0.022401  -2.720091  1.522523
H    -0.154180  -5.178117  0.896247
H    -0.063303  -4.157790  -0.567964
H    -1.647060  -4.736261  0.021331
H    -4.653092  -2.306880  0.769110
