28
Energy: -19697.8139719 eV PBE+vdW (tier 2 basis)
C    0.168173  1.507575  0.776243
C    0.309500  0.079383  1.253622
O    1.407033  -0.416839  1.493474
H    -0.321737  1.535492  -0.204702
H    1.174001  1.926701  0.690266
H    -0.408861  2.117896  1.483957
N    -0.825031  -0.683865  1.474489
C    -2.227214  -0.515032  1.118699
C    -2.466041  -0.649929  -0.405605
O    -1.611675  -0.350623  -1.233583
H    -0.558766  -1.631046  1.727472
H    -2.717870  -1.372568  1.598565
C    -2.909457  0.758611  1.708874
C    -3.268451  1.869863  0.718749
C    -3.463316  3.205864  1.398727
O    -3.040081  3.519603  2.491406
O    -4.167339  4.064958  0.608235
H    -2.249226  1.164726  2.484021
H    -3.823554  0.452143  2.235628
H    -4.169372  1.640851  0.133586
H    -2.471427  2.018467  -0.026272
N    -3.695188  -1.113875  -0.792464
C    -4.840947  -1.459488  0.031509
H    -3.815301  -1.123124  -1.800959
H    -5.554439  -2.021138  -0.580860
H    -5.362754  -0.576808  0.434444
H    -4.553995  -2.105521  0.871734
H    -4.204628  4.910109  1.097374
