28
Energy: -19697.993916 eV PBE+vdW (tier 2 basis)
C    -0.200959  -0.614979  0.202333
C    -0.449736  0.178939  1.463871
O    0.089122  1.276311  1.652523
H    -0.777420  -1.546105  0.147415
H    0.868949  -0.850621  0.141645
H    -0.446324  0.011695  -0.663629
N    -1.306686  -0.372235  2.367832
C    -1.512316  0.230401  3.689164
C    -2.202528  -0.755264  4.644575
O    -1.723975  -0.974166  5.751939
H    -1.583547  -1.338244  2.234508
H    -0.524558  0.390109  4.144936
C    -2.252498  1.594763  3.623348
C    -1.866879  2.542326  4.759896
C    -0.493953  3.230665  4.751981
O    -0.189622  3.974539  5.659916
O    0.354894  3.027276  3.726310
H    -3.338683  1.433713  3.656580
H    -2.048138  2.058510  2.649481
H    -1.940695  2.036704  5.734095
H    -2.591822  3.367421  4.807567
N    -3.339463  -1.408455  4.224832
C    -4.279717  -1.057359  3.167409
H    -3.701018  -2.011021  4.960801
H    -3.770619  -0.547807  2.344229
H    -5.084588  -0.399261  3.531496
H    -4.735930  -1.971815  2.767214
H    0.062799  2.368979  3.041321
