28
Energy: -19698.3536823 eV PBE+vdW (tier 2 basis)
C    -2.735608  -1.922660  0.784077
C    -2.048333  -1.145622  1.883066
O    -1.625794  0.008651  1.691356
H    -3.622500  -1.363531  0.460157
H    -3.035088  -2.933457  1.083373
H    -2.058705  -1.985669  -0.076921
N    -1.920766  -1.775121  3.069887
C    -1.257654  -1.211226  4.229271
C    -1.167394  -2.365798  5.249793
O    -1.785950  -3.418100  5.085510
H    -2.266959  -2.724351  3.222648
H    -0.230782  -0.923651  3.944994
C    -1.974414  0.044716  4.809433
C    -1.240547  1.380259  4.527441
C    -2.184720  2.467019  4.020350
O    -2.541816  3.410890  4.692480
O    -2.626851  2.298228  2.755595
H    -2.108080  -0.072177  5.892626
H    -2.987745  0.061272  4.388417
H    -0.462407  1.217508  3.768095
H    -0.760443  1.764521  5.434186
N    -0.366802  -2.120099  6.317269
C    -0.196913  -3.057328  7.413932
H    0.105890  -1.224855  6.367664
H    -0.736164  -3.973858  7.155537
H    -0.607492  -2.653873  8.349925
H    0.864561  -3.295154  7.562201
H    -2.223523  1.484467  2.347636
