28
Energy: -19698.310243 eV PBE+vdW (tier 2 basis)
C    0.186305  -3.204661  2.024916
C    -0.200747  -1.758752  2.264384
O    0.106070  -0.858044  1.483568
H    1.280402  -3.271511  1.976315
H    -0.203736  -3.517835  1.048716
H    -0.182667  -3.891775  2.795706
N    -0.934696  -1.530762  3.398107
C    -1.224494  -0.189777  3.860268
C    -0.946819  -0.158158  5.371898
O    -0.991030  -1.193824  6.038806
H    -1.010318  -2.247457  4.117812
H    -0.553120  0.484864  3.307890
C    -2.689288  0.228820  3.597979
C    -3.030547  0.265297  2.098219
C    -4.473154  0.659901  1.898889
O    -5.422086  -0.095648  1.891504
O    -4.615238  2.013870  1.762290
H    -2.868057  1.220634  4.038596
H    -3.354580  -0.478959  4.114254
H    -2.894276  -0.730583  1.661496
H    -2.368752  0.967241  1.576076
N    -0.683383  1.048418  5.945399
C    -0.596901  2.355635  5.316711
H    -0.585073  0.998223  6.955196
H    0.083229  2.987422  5.899472
H    -1.572911  2.861911  5.256480
H    -0.185925  2.275512  4.304088
H    -5.575675  2.170787  1.673439
