28
Energy: -19698.3060729 eV PBE+vdW (tier 2 basis)
C    0.009068  0.889988  1.151798
C    -0.199362  -0.106019  2.274385
O    0.722946  -0.536315  2.960241
H    1.063269  1.177381  1.142950
H    -0.615419  1.785018  1.273917
H    -0.246895  0.445063  0.179262
N    -1.496297  -0.519539  2.515331
C    -2.677589  -0.240639  1.705850
C    -3.293431  1.164397  1.909967
O    -4.104316  1.600079  1.094000
H    -1.548533  -1.290650  3.177625
H    -2.420490  -0.285504  0.636802
C    -3.773584  -1.300173  1.951496
C    -4.568212  -1.160227  3.264526
C    -3.784900  -1.254484  4.554178
O    -3.836958  -0.468385  5.475022
O    -2.986844  -2.369468  4.592736
H    -3.320000  -2.298541  1.877984
H    -4.493764  -1.211674  1.128792
H    -5.320214  -1.964288  3.293121
H    -5.112457  -0.209476  3.292326
N    -2.910071  1.807918  3.039979
C    -3.487127  3.066619  3.467459
H    -2.266512  1.318343  3.653625
H    -4.173281  3.403790  2.683257
H    -2.708654  3.827124  3.615991
H    -4.044750  2.940953  4.406193
H    -2.548327  -2.356742  5.466398
