28
Energy: -19698.0796819 eV PBE+vdW (tier 2 basis)
C    -0.538474  -0.311421  0.489937
C    0.152128  -0.222778  1.842191
O    1.241181  -0.749587  2.050920
H    0.084640  -0.928432  -0.162412
H    -0.654447  0.681227  0.030980
H    -1.536413  -0.765426  0.564453
N    -0.485984  0.490505  2.825233
C    -1.800638  1.108280  2.777543
C    -1.728630  2.357012  3.676168
O    -1.310460  2.261269  4.828550
H    -0.015900  0.515197  3.728598
H    -2.012396  1.390478  1.738396
C    -2.909874  0.161278  3.283095
C    -4.307772  0.767124  3.196227
C    -5.399043  -0.203120  3.592239
O    -5.264554  -1.391143  3.787577
O    -6.603849  0.430496  3.693689
H    -2.680780  -0.113104  4.321995
H    -2.867959  -0.766746  2.697186
H    -4.538422  1.095991  2.168452
H    -4.408118  1.665182  3.823955
N    -2.156926  3.546187  3.164356
C    -2.595226  3.845078  1.809287
H    -2.073456  4.317430  3.819917
H    -2.777026  4.922529  1.739430
H    -3.533849  3.334574  1.551090
H    -1.832287  3.588411  1.060548
H    -7.250480  -0.261437  3.933916
