28
Energy: -19698.0408633 eV PBE+vdW (tier 2 basis)
C    -1.154454  -0.151798  -0.462500
C    -0.992576  0.564761  0.862685
O    -0.655182  1.744131  0.910972
H    -1.588642  0.557125  -1.175039
H    -1.759518  -1.062032  -0.444742
H    -0.152349  -0.414381  -0.830375
N    -1.138653  -0.142173  2.047710
C    -1.794656  -1.419480  2.347145
C    -1.276161  -2.599667  1.493422
O    -2.022431  -3.493714  1.106197
H    -1.013948  0.480037  2.843456
H    -1.443545  -1.672022  3.362712
C    -3.330417  -1.351484  2.471398
C    -4.153186  -0.970630  1.227772
C    -4.545401  -2.162114  0.377328
O    -5.261415  -3.067130  0.744268
O    -4.040805  -2.085193  -0.888338
H    -3.537998  -0.611034  3.257218
H    -3.686505  -2.319747  2.848982
H    -3.655425  -0.205239  0.622154
H    -5.101957  -0.535883  1.572369
N    0.071372  -2.595546  1.297682
C    0.749840  -3.607104  0.512025
H    0.580469  -1.769422  1.592888
H    1.636117  -3.979684  1.041522
H    1.060010  -3.218111  -0.469709
H    0.050038  -4.434501  0.355368
H    -4.326274  -2.906507  -1.334285
