28
Energy: -19698.2097469 eV PBE+vdW (tier 2 basis)
C    -0.482398  0.253571  -0.295388
C    -0.197188  0.297499  1.187251
O    0.970667  0.379878  1.609326
H    0.014800  -0.627053  -0.721398
H    -0.036658  1.138179  -0.766562
H    -1.550227  0.214104  -0.540032
N    -1.271477  0.247797  2.011341
C    -1.245147  0.231672  3.480436
C    -0.965533  1.597175  4.163171
O    -1.632795  1.901700  5.150733
H    -2.186035  0.245810  1.576523
H    -2.281053  0.039636  3.779611
C    -0.366188  -0.940603  4.028687
C    0.462163  -0.653938  5.284476
C    1.772035  0.134965  5.185472
O    2.301799  0.584526  6.177944
O    2.380155  0.255760  3.981759
H    0.284333  -1.304676  3.223757
H    -1.044824  -1.774388  4.252792
H    0.763316  -1.618139  5.723533
H    -0.138057  -0.154790  6.055945
N    0.025697  2.358830  3.639564
C    0.508508  3.559025  4.302052
H    0.599379  1.948065  2.905322
H    0.706074  4.345497  3.563403
H    1.430990  3.351450  4.864377
H    -0.261277  3.898722  5.001610
H    1.789597  0.053386  3.216147
