28
Energy: -19698.0727683 eV PBE+vdW (tier 2 basis)
C    0.212295  0.143484  1.740155
C    -0.696890  -0.395529  2.827383
O    -0.280496  -0.572277  3.967966
H    -0.282681  0.458613  0.817958
H    0.939205  -0.641261  1.489957
H    0.773868  0.985800  2.158752
N    -1.994836  -0.769080  2.515352
C    -2.845359  -0.467715  1.359141
C    -2.213008  -0.864501  0.001488
O    -2.393472  -0.198504  -1.014744
H    -2.483578  -1.081434  3.351380
H    -3.693263  -1.166715  1.457907
C    -3.482352  0.934414  1.345051
C    -2.520601  2.122733  1.253603
C    -3.195719  3.475267  1.295368
O    -2.783336  4.444694  1.896546
O    -4.335977  3.512287  0.545467
H    -4.087554  1.024667  2.259961
H    -4.177740  0.966435  0.497327
H    -1.970063  2.074208  0.300672
H    -1.787475  2.129084  2.068035
N    -1.523836  -2.037818  0.028807
C    -0.848692  -2.577462  -1.134999
H    -1.373033  -2.466098  0.935833
H    -1.096996  -3.638014  -1.270745
H    0.243880  -2.476598  -1.052139
H    -1.187658  -2.013588  -2.010220
H    -4.667774  4.428211  0.618238
