28
Energy: -19697.978955 eV PBE+vdW (tier 2 basis)
C    -0.107446  0.325618  0.096883
C    -0.068319  0.090519  1.594936
O    0.992877  0.007011  2.211494
H    0.507200  -0.438316  -0.394032
H    0.349168  1.300962  -0.114245
H    -1.116574  0.304652  -0.331880
N    -1.291037  -0.037619  2.197912
C    -1.490906  -0.144068  3.646776
C    -1.181754  1.224862  4.322393
O    -1.994769  2.131116  4.125442
H    -2.105561  0.208032  1.649432
H    -2.582603  -0.188445  3.769641
C    -0.923531  -1.443373  4.238081
C    -1.678446  -2.673329  3.697707
C    -1.099120  -3.952856  4.250318
O    -0.291766  -4.666775  3.694893
O    -1.571644  -4.218147  5.506254
H    -1.030618  -1.403805  5.331352
H    0.141449  -1.545543  4.005722
H    -1.589863  -2.717502  2.606089
H    -2.742427  -2.609691  3.967984
N    -0.101456  1.424321  5.125759
C    1.100086  0.627249  5.347487
H    -0.097683  2.371188  5.494286
H    1.883508  1.299847  5.713772
H    1.446154  0.180975  4.408896
H    0.948064  -0.155357  6.105041
H    -1.119846  -5.035726  5.792583
