28
Energy: -19697.9494504 eV PBE+vdW (tier 2 basis)
C    0.239616  0.301640  -0.044719
C    -0.252956  -0.545114  1.109749
O    0.498076  -1.294262  1.726727
H    1.297830  0.515281  0.131037
H    -0.297278  1.242027  -0.199066
H    0.165640  -0.282157  -0.973577
N    -1.594526  -0.517517  1.447731
C    -2.711105  0.284723  0.959429
C    -2.751490  0.420164  -0.572135
O    -2.841207  1.522113  -1.132848
H    -1.786520  -1.124023  2.240677
H    -3.608127  -0.321529  1.179260
C    -2.929345  1.618806  1.719566
C    -1.713147  2.500770  2.042463
C    -1.264714  3.644265  1.121369
O    -0.515276  4.498730  1.547199
O    -1.710558  3.688124  -0.144388
H    -3.371780  1.331187  2.684241
H    -3.708887  2.191138  1.196725
H    -0.822661  1.880677  2.226294
H    -1.892178  3.000148  3.003281
N    -2.757566  -0.715931  -1.310276
C    -2.736104  -2.103500  -0.871359
H    -2.788794  -0.536038  -2.309601
H    -3.389642  -2.256378  -0.003622
H    -1.725634  -2.445167  -0.608370
H    -3.116999  -2.726448  -1.687784
H    -2.236047  2.879097  -0.409544
