28
Energy: -19697.9591816 eV PBE+vdW (tier 2 basis)
C    0.018929  -0.902844  1.243360
C    -0.849528  -0.852034  2.482262
O    -0.418241  -1.139828  3.596733
H    -0.096195  -0.023979  0.598777
H    -0.231721  -1.782245  0.633936
H    1.058245  -0.989314  1.570574
N    -2.173647  -0.491138  2.344168
C    -2.943418  -0.092306  1.163695
C    -2.826574  -1.127355  0.015212
O    -2.377928  -0.824524  -1.087670
H    -2.656779  -0.477366  3.237346
H    -3.994404  -0.120494  1.492888
C    -2.635568  1.337264  0.676137
C    -3.847257  2.112700  0.119688
C    -4.383378  1.576927  -1.189682
O    -4.091946  1.980142  -2.292352
O    -5.273682  0.554479  -0.989271
H    -1.847599  1.301608  -0.087176
H    -2.249060  1.899643  1.536114
H    -3.544713  3.149480  -0.067762
H    -4.657756  2.119456  0.863450
N    -3.247711  -2.396566  0.286858
C    -3.827924  -2.928036  1.509335
H    -3.120942  -3.031374  -0.494807
H    -4.329661  -3.872501  1.271649
H    -4.588490  -2.249130  1.918303
H    -3.074390  -3.117267  2.287037
H    -5.505929  0.231959  -1.881789
