28
Energy: -19698.1928748 eV PBE+vdW (tier 2 basis)
C    -0.015949  -0.018174  -0.000648
C    0.080403  0.281977  1.481056
O    1.175648  0.375037  2.047577
H    0.640081  0.670700  -0.545188
H    -1.031960  0.049900  -0.407326
H    0.364176  -1.034051  -0.171206
N    -1.109752  0.456786  2.123622
C    -1.385915  0.543813  3.567476
C    -0.710190  1.659609  4.385476
O    -1.160705  1.873917  5.524668
H    -1.937387  0.372973  1.545716
H    -2.449053  0.817716  3.614164
C    -1.239340  -0.807149  4.320339
C    0.152879  -1.120551  4.919180
C    0.187735  -1.227573  6.445353
O    0.685035  -2.174172  7.017234
O    -0.355061  -0.210170  7.152344
H    -1.533358  -1.602856  3.623944
H    -1.992464  -0.811296  5.119003
H    0.889296  -0.362378  4.612841
H    0.534426  -2.074108  4.541752
N    0.326449  2.329210  3.857145
C    1.043857  3.332554  4.628902
H    0.803811  1.870249  3.072101
H    1.587773  3.989245  3.941810
H    1.758423  2.873572  5.328505
H    0.329261  3.922273  5.211792
H    -0.691166  0.523695  6.574378
