28
Energy: -19698.4347402 eV PBE+vdW (tier 2 basis)
C    -0.200568  -0.222724  0.041465
C    -0.044135  -0.014198  1.534288
O    1.064673  0.219863  2.034610
H    0.384844  -1.104221  -0.249700
H    0.226754  0.640792  -0.482331
H    -1.238340  -0.364285  -0.283262
N    -1.190108  -0.096264  2.263570
C    -1.326653  -0.062255  3.727488
C    -1.063606  1.313406  4.390536
O    -1.886418  1.764854  5.190632
H    -2.046373  -0.264713  1.750580
H    -2.390446  -0.241674  3.917653
C    -0.526631  -1.194211  4.409282
C    -0.786137  -1.293861  5.911137
C    -2.182736  -1.760149  6.258354
O    -3.011866  -2.183217  5.477576
O    -2.414033  -1.674517  7.596445
H    0.546141  -1.044278  4.235776
H    -0.809864  -2.138786  3.923978
H    -0.609226  -0.339293  6.427404
H    -0.086491  -2.010828  6.368302
N    0.114437  1.904904  4.078078
C    0.515771  3.181221  4.634718
H    0.716439  1.418409  3.402509
H    1.457253  3.088600  5.194692
H    -0.272115  3.519918  5.315900
H    0.653311  3.932292  3.843751
H    -3.327140  -1.994052  7.732040
