28
Energy: -19697.6513859 eV PBE+vdW (tier 2 basis)
C    0.054320  0.207790  -0.107365
C    0.257998  0.144656  1.391675
O    1.381604  0.066819  1.880994
H    1.020982  0.429226  -0.567194
H    -0.287078  -0.770762  -0.472179
H    -0.675856  0.965891  -0.413458
N    -0.843067  0.178059  2.220601
C    -2.288375  0.096787  1.961746
C    -2.674056  -1.372571  1.606623
O    -2.678177  -2.177992  2.538299
H    -0.575330  -0.015082  3.181770
H    -2.720009  0.172125  2.968874
C    -2.858572  1.294284  1.171671
C    -4.269976  1.708390  1.640263
C    -5.310603  0.629046  1.437880
O    -5.783923  0.301121  0.367468
O    -5.652864  0.031327  2.609557
H    -2.869399  1.133201  0.089826
H    -2.191722  2.147863  1.355639
H    -4.594551  2.578763  1.055130
H    -4.241542  1.994326  2.699273
N    -2.936416  -1.811107  0.336978
C    -3.163635  -1.144434  -0.941651
H    -3.143923  -2.806078  0.357704
H    -3.229355  -1.924882  -1.707784
H    -2.330305  -0.491585  -1.221433
H    -4.100641  -0.571581  -0.954896
H    -6.284801  -0.680574  2.386466
