28
Energy: -19698.0371506 eV PBE+vdW (tier 2 basis)
C    0.233056  -0.485750  0.223472
C    0.022951  -0.121438  1.681392
O    0.751051  -0.535375  2.573406
H    0.146033  -1.574418  0.117700
H    1.256289  -0.212037  -0.060849
H    -0.468982  0.000311  -0.465115
N    -1.038202  0.736009  1.921876
C    -1.513667  1.005094  3.281701
C    -2.736798  1.914275  3.286081
O    -3.473484  1.929736  4.279933
H    -1.755338  0.730511  1.201667
H    -1.842365  0.061897  3.748848
C    -0.439610  1.668367  4.202710
C    -0.033891  0.836189  5.421140
C    -0.959420  0.684610  6.634739
O    -0.507033  0.278125  7.684823
O    -2.274070  0.974416  6.541900
H    -0.794928  2.659780  4.521278
H    0.455915  1.841877  3.594886
H    0.898356  1.240636  5.836744
H    0.219143  -0.182035  5.088790
N    -2.929718  2.716043  2.210090
C    -3.984762  3.716630  2.162871
H    -2.180240  2.765384  1.527502
H    -4.424466  3.752778  1.159237
H    -3.605747  4.714398  2.426752
H    -4.753811  3.434829  2.888283
H    -2.597484  1.298345  5.659013
