28
Energy: -19698.0112133 eV PBE+vdW (tier 2 basis)
C    -0.216157  1.518815  0.846002
C    -0.007877  0.409849  1.856681
O    1.020471  0.296747  2.520094
H    0.719405  2.076047  0.754980
H    -1.013165  2.205175  1.165782
H    -0.508032  1.126171  -0.137573
N    -1.035093  -0.493771  2.010184
C    -2.370531  -0.427778  1.438952
C    -3.256438  0.742777  1.924925
O    -3.964602  1.328989  1.105637
H    -0.841409  -1.204319  2.710759
H    -2.291566  -0.247723  0.358472
C    -3.072078  -1.784746  1.642294
C    -4.483707  -1.885177  1.059931
C    -4.634933  -1.848106  -0.448111
O    -5.690120  -1.710154  -1.024585
O    -3.454489  -2.032527  -1.111704
H    -3.133866  -2.001056  2.720999
H    -2.426910  -2.557370  1.200978
H    -5.145961  -1.100250  1.448621
H    -4.935058  -2.838690  1.376094
N    -3.267730  1.099062  3.243715
C    -2.551644  0.548240  4.386719
H    -3.881612  1.889241  3.416758
H    -3.005297  0.957212  5.296299
H    -1.484409  0.808749  4.386808
H    -2.646909  -0.543967  4.442918
H    -3.682600  -2.006405  -2.061384
