28
Energy: -19698.3097837 eV PBE+vdW (tier 2 basis)
C    -0.160126  0.076175  -0.176276
C    0.015940  0.148331  1.332936
O    1.094112  0.468838  1.827911
H    0.593313  0.726596  -0.629406
H    -1.156289  0.373044  -0.528635
H    0.030783  -0.949643  -0.522286
N    -1.050307  -0.184760  2.126568
C    -2.418196  -0.487015  1.767675
C    -3.324715  0.103624  2.874182
O    -2.876477  0.397635  3.981402
H    -0.917407  -0.017545  3.126352
H    -2.674235  0.024195  0.829514
C    -2.703986  -2.013922  1.613440
C    -2.748816  -2.510463  0.170796
C    -3.899496  -1.947545  -0.630523
O    -4.772385  -1.203085  -0.216394
O    -3.871247  -2.376206  -1.916267
H    -3.655270  -2.266534  2.101962
H    -1.917454  -2.552670  2.156691
H    -2.845250  -3.607305  0.138858
H    -1.819776  -2.291739  -0.375439
N    -4.623288  0.234269  2.505410
C    -5.656108  0.679554  3.421291
H    -4.886553  -0.110131  1.582440
H    -6.251028  1.484485  2.970214
H    -5.167636  1.057404  4.325306
H    -6.330399  -0.143179  3.701896
H    -4.646043  -1.977520  -2.358982
