28
Energy: -19698.0855105 eV PBE+vdW (tier 2 basis)
C    0.065220  -0.410643  1.127426
C    -0.468351  -0.078203  2.504378
O    0.248751  0.391591  3.385842
H    -0.591606  -0.088199  0.311305
H    0.189100  -1.498643  1.027742
H    1.044218  0.064104  1.023893
N    -1.787359  -0.368652  2.788205
C    -2.899704  -0.645123  1.875370
C    -2.642711  -1.866287  0.959549
O    -2.732847  -1.788534  -0.263715
H    -2.039428  -0.090104  3.733728
H    -3.737024  -0.934133  2.534059
C    -3.351289  0.572711  1.051608
C    -3.953980  1.703369  1.905182
C    -3.024800  2.233809  2.975425
O    -3.186612  2.099358  4.173313
O    -1.952082  2.877301  2.444454
H    -4.099956  0.238132  0.322403
H    -2.507531  0.956399  0.464250
H    -4.865879  1.365726  2.413461
H    -4.224347  2.535202  1.239137
N    -2.329121  -3.044733  1.574131
C    -2.231157  -3.349117  2.993163
H    -2.161680  -3.797918  0.914421
H    -2.326686  -4.433314  3.120870
H    -3.044656  -2.878718  3.560597
H    -1.276281  -3.024699  3.429799
H    -1.355831  3.083446  3.191508
