28
Energy: -19698.3647426 eV PBE+vdW (tier 2 basis)
C    0.309987  -0.365120  -0.235182
C    -0.226302  -0.889436  1.081683
O    -0.090296  -2.051621  1.443617
H    0.311418  -1.172613  -0.973388
H    1.349807  -0.042511  -0.078101
H    -0.260591  0.489347  -0.622230
N    -0.870436  0.055350  1.857760
C    -1.141772  -0.187374  3.269939
C    -2.519251  0.354338  3.708114
O    -2.745154  0.662061  4.876599
H    -0.818514  1.022373  1.549373
H    -1.199081  -1.284924  3.359554
C    -0.015875  0.289763  4.201417
C    0.347966  1.778507  4.058927
C    1.151403  2.074328  2.813213
O    2.224410  1.591089  2.524199
O    0.524562  2.984616  1.993556
H    0.876032  -0.323914  4.017057
H    -0.344937  0.109232  5.231592
H    0.991615  2.061047  4.904413
H    -0.545439  2.413329  4.101351
N    -3.449125  0.417411  2.715308
C    -4.828418  0.792135  2.954509
H    -3.161622  0.105149  1.794118
H    -5.136333  1.608174  2.286802
H    -4.904630  1.130112  3.993520
H    -5.507749  -0.060370  2.809698
H    1.141363  3.133274  1.249404
