28
Energy: -19698.2479236 eV PBE+vdW (tier 2 basis)
C    -0.990614  -0.646994  0.551711
C    -1.061442  -0.651604  2.066135
O    -0.468500  -1.490587  2.737293
H    -0.829630  -1.676830  0.218926
H    -0.119457  -0.054124  0.239625
H    -1.876515  -0.232528  0.057671
N    -1.827520  0.316169  2.691102
C    -2.443877  1.518107  2.126473
C    -3.637969  1.212046  1.189758
O    -3.961717  1.983968  0.287171
H    -1.695120  0.309712  3.699172
H    -2.890202  2.023300  2.996296
C    -1.441917  2.511188  1.497908
C    -1.909052  3.967283  1.500741
C    -2.022734  4.577759  2.876032
O    -1.861299  4.004097  3.936927
O    -2.344991  5.899485  2.808285
H    -1.233855  2.224426  0.459346
H    -0.502943  2.426656  2.061669
H    -2.882604  4.062029  0.996964
H    -1.217609  4.594190  0.918245
N    -4.315515  0.072649  1.490069
C    -5.486278  -0.364728  0.756610
H    -3.918607  -0.520364  2.211420
H    -6.343854  -0.501823  1.429293
H    -5.297061  -1.309777  0.227740
H    -5.728262  0.410543  0.021921
H    -2.406649  6.208223  3.733181
