28
Energy: -19698.1023471 eV PBE+vdW (tier 2 basis)
C    0.040600  0.397474  0.267070
C    -0.172294  -0.487421  1.475573
O    0.656041  -1.355675  1.767664
H    0.523372  -0.184756  -0.524028
H    0.726520  1.204588  0.560401
H    -0.883167  0.846681  -0.117906
N    -1.332870  -0.252017  2.160417
C    -1.637201  -0.677559  3.528528
C    -0.557649  -0.083689  4.495407
O    0.342829  0.623096  4.051499
H    -1.829103  0.576647  1.855269
H    -2.560637  -0.131274  3.782898
C    -2.038450  -2.170366  3.634931
C    -0.985682  -3.273325  3.432476
C    0.141648  -3.225017  4.461527
O    0.033041  -3.718744  5.569573
O    1.258153  -2.583631  4.085429
H    -2.830219  -2.319278  2.886430
H    -2.515039  -2.327081  4.610046
H    -0.585273  -3.240090  2.413461
H    -1.491836  -4.236772  3.573748
N    -0.682386  -0.296484  5.834638
C    -1.683449  -1.010699  6.613126
H    0.106752  0.088267  6.345046
H    -1.646652  -0.629649  7.640124
H    -1.498724  -2.094580  6.639253
H    -2.695695  -0.816671  6.235284
H    1.104805  -2.141631  3.201496
