28
Energy: -19698.3344788 eV PBE+vdW (tier 2 basis)
C    0.974101  -0.643904  1.355011
C    0.220236  0.425012  2.122143
O    0.782225  1.184269  2.913313
H    1.445157  -1.328174  2.072093
H    1.780010  -0.166081  0.784615
H    0.340520  -1.221354  0.670904
N    -1.124881  0.465997  1.887378
C    -1.995092  1.463519  2.490250
C    -3.192821  0.794548  3.203875
O    -4.356544  1.030717  2.875316
H    -1.556772  -0.159050  1.205971
H    -1.373514  1.961957  3.250863
C    -2.470869  2.537974  1.491565
C    -2.766727  2.056201  0.052792
C    -3.687127  0.861278  -0.028658
O    -3.334071  -0.298130  0.128417
O    -4.962567  1.198562  -0.315847
H    -1.686603  3.303154  1.414344
H    -3.366908  3.012683  1.908962
H    -1.827321  1.764932  -0.435705
H    -3.200027  2.889567  -0.512755
N    -2.909017  -0.059557  4.227420
C    -1.620419  -0.439971  4.782132
H    -3.739906  -0.495174  4.615917
H    -0.888968  0.369758  4.681670
H    -1.204948  -1.335013  4.293662
H    -1.742787  -0.651477  5.851300
H    -5.483323  0.373126  -0.262912
