28
Energy: -19697.9121295 eV PBE+vdW (tier 2 basis)
C    0.237378  0.300485  0.604864
C    0.008748  0.275093  2.099579
O    0.947235  0.278297  2.893144
H    0.317044  -0.734602  0.246649
H    1.182810  0.818749  0.424071
H    -0.555476  0.791962  0.031257
N    -1.278330  0.220222  2.594519
C    -2.592025  0.294918  1.970346
C    -2.666926  -0.543343  0.666710
O    -2.229451  -1.687472  0.640064
H    -1.273677  0.178289  3.609726
H    -3.256798  -0.285738  2.632434
C    -3.174852  1.730025  1.969000
C    -2.361478  2.829060  1.269289
C    -1.079828  3.272800  1.949260
O    -0.057847  3.560209  1.365128
O    -1.213909  3.376815  3.300640
H    -3.311430  2.023401  3.019146
H    -4.193314  1.701059  1.548588
H    -2.989483  3.732534  1.204046
H    -2.083888  2.570165  0.240003
N    -3.297121  0.038809  -0.394734
C    -3.499589  -0.655231  -1.653261
H    -3.632054  0.988784  -0.307134
H    -4.568426  -0.738990  -1.893562
H    -3.077017  -1.659505  -1.546232
H    -2.988206  -0.138059  -2.476967
H    -0.336070  3.647043  3.634019
