28
Energy: -19698.2395297 eV PBE+vdW (tier 2 basis)
C    0.066607  0.823720  0.253820
C    -0.649827  -0.410273  0.764743
O    -0.835033  -1.399491  0.055198
H    0.199838  1.604026  1.012918
H    -0.502439  1.237100  -0.588423
H    1.049612  0.525397  -0.130322
N    -1.056962  -0.353058  2.071370
C    -1.844581  -1.415032  2.681479
C    -3.325108  -0.975725  2.694201
O    -3.688551  -0.053278  3.426128
H    -1.023840  0.536440  2.558511
H    -1.690246  -2.293336  2.043470
C    -1.360942  -1.713252  4.104574
C    -2.103452  -2.905721  4.719303
C    -1.671620  -3.275122  6.120733
O    -2.414899  -3.599458  7.021684
O    -0.314288  -3.235659  6.271179
H    -1.517990  -0.820861  4.728447
H    -0.282697  -1.913107  4.067112
H    -1.948684  -3.802912  4.095430
H    -3.184573  -2.726823  4.765274
N    -4.185346  -1.623219  1.863893
C    -3.903780  -2.702224  0.923516
H    -5.140214  -1.282706  1.929935
H    -4.721470  -2.745223  0.195738
H    -3.842259  -3.682273  1.421546
H    -2.972799  -2.514037  0.374157
H    -0.144690  -3.509714  7.193384
