28
Energy: -19698.0700981 eV PBE+vdW (tier 2 basis)
C    -1.553144  0.444920  0.143033
C    -0.276597  -0.112002  0.754940
O    0.448658  -0.888621  0.139995
H    -1.500789  1.538108  0.034201
H    -2.441345  0.212329  0.746293
H    -1.670765  -0.000782  -0.847979
N    0.042164  0.294953  2.025688
C    -0.659710  1.237868  2.872976
C    0.409526  1.920597  3.747706
O    1.469313  1.347175  3.998469
H    0.952683  -0.000755  2.379455
H    -1.147029  1.998086  2.245433
C    -1.768357  0.566601  3.731720
C    -1.290219  -0.559982  4.652796
C    -0.646594  -0.189671  5.972341
O    0.078923  -0.914066  6.614305
O    -1.024392  1.048648  6.424482
H    -2.496108  0.142369  3.025797
H    -2.308254  1.328326  4.309440
H    -0.592159  -1.230837  4.135943
H    -2.154114  -1.187253  4.926223
N    0.145704  3.169091  4.224594
C    -1.103413  3.908346  4.188064
H    0.866237  3.501269  4.859525
H    -0.888370  4.974825  4.320510
H    -1.802165  3.590743  4.977979
H    -1.598886  3.793830  3.216743
H    -0.573215  1.149925  7.285044
