28
Energy: -19698.0632406 eV PBE+vdW (tier 2 basis)
C    0.008119  1.055982  1.270427
C    -0.394610  0.232612  2.476276
O    0.326647  0.095536  3.461947
H    1.022934  1.426310  1.434747
H    -0.668166  1.909273  1.119118
H    -0.015290  0.457612  0.348972
N    -1.625159  -0.382201  2.430318
C    -2.676946  -0.192875  1.447257
C    -3.380087  1.188301  1.449160
O    -3.699297  1.690251  0.371845
H    -1.843228  -0.912585  3.269848
H    -2.238396  -0.236849  0.439304
C    -3.730603  -1.309364  1.546008
C    -3.211874  -2.697041  1.143967
C    -2.198014  -3.355496  2.054581
O    -1.246465  -4.006029  1.687323
O    -2.502910  -3.190275  3.383132
H    -4.552751  -1.040376  0.869392
H    -4.155582  -1.342804  2.560255
H    -2.766763  -2.676071  0.141521
H    -4.067404  -3.390242  1.095093
N    -3.644952  1.821952  2.628967
C    -3.442860  1.392921  4.006972
H    -4.095747  2.720037  2.483393
H    -4.029835  2.054211  4.653983
H    -2.391448  1.450074  4.319988
H    -3.806499  0.370942  4.176079
H    -1.809870  -3.676291  3.871767
