28
Energy: -19698.3302935 eV PBE+vdW (tier 2 basis)
C    0.204884  -1.839132  0.511272
C    0.136587  -1.282663  1.920010
O    0.934038  -1.618954  2.794784
H    0.084965  -2.928743  0.557743
H    1.202164  -1.636786  0.101953
H    -0.551292  -1.424157  -0.166266
N    -0.861318  -0.369771  2.140037
C    -1.122206  0.195286  3.456520
C    -2.405135  -0.457423  4.015218
O    -3.502206  -0.172342  3.525830
H    -1.574229  -0.237357  1.430226
H    -0.242801  -0.062178  4.058636
C    -1.287163  1.717608  3.372824
C    -1.495277  2.387396  4.744472
C    -0.335396  2.163954  5.685770
O    -0.336291  1.435036  6.657787
O    0.767597  2.870783  5.306414
H    -2.163278  1.943299  2.748425
H    -0.399643  2.134452  2.878236
H    -2.397792  1.999509  5.230912
H    -1.622321  3.468077  4.593832
N    -2.269493  -1.363397  5.015328
C    -1.053630  -1.786071  5.706175
H    -3.155891  -1.743637  5.334193
H    -1.270775  -2.722407  6.231765
H    -0.721669  -1.038708  6.440510
H    -0.243627  -1.981660  4.992664
H    1.469734  2.637533  5.944464
