28
Energy: -19698.0440714 eV PBE+vdW (tier 2 basis)
C    -1.405208  1.642707  -0.925720
C    -0.464216  0.589802  -0.378967
O    0.329213  -0.012508  -1.095776
H    -2.417065  1.227332  -1.036276
H    -1.041230  1.928713  -1.915944
H    -1.486415  2.532971  -0.291900
N    -0.531466  0.271998  0.964711
C    -1.323059  0.848844  2.050022
C    -2.827513  0.915026  1.703243
O    -3.465112  1.977841  1.715999
H    0.157733  -0.429062  1.220930
H    -1.239881  0.124151  2.878138
C    -0.785135  2.194271  2.560549
C    -1.385683  2.642714  3.915621
C    -1.935485  4.069613  3.906761
O    -1.541547  4.936217  4.656465
O    -2.903512  4.310558  2.997519
H    -0.950190  2.962232  1.793841
H    0.302668  2.089085  2.656384
H    -0.635529  2.594004  4.711264
H    -2.211517  1.975177  4.211029
N    -3.450335  -0.245770  1.383784
C    -2.903019  -1.592608  1.314281
H    -4.430502  -0.119372  1.148481
H    -2.337908  -1.766846  0.388588
H    -3.734888  -2.303464  1.360422
H    -2.244997  -1.798418  2.168052
H    -3.112156  3.478398  2.492137
