28
Energy: -19698.1524137 eV PBE+vdW (tier 2 basis)
C    0.256172  0.575375  0.544541
C    -0.070055  -0.242637  1.777642
O    0.793211  -0.809209  2.440130
H    1.318497  0.441158  0.325067
H    0.056521  1.638470  0.734440
H    -0.332595  0.264262  -0.330042
N    -1.400505  -0.369173  2.126485
C    -2.528854  0.394434  1.628011
C    -2.656456  1.762578  2.370426
O    -1.647303  2.361160  2.736209
H    -1.503393  -0.813974  3.035856
H    -2.295549  0.674737  0.589780
C    -3.792744  -0.478469  1.571598
C    -4.328577  -0.967842  2.933306
C    -5.759358  -0.556563  3.192855
O    -6.304653  0.429843  2.728721
O    -6.386788  -1.399632  4.045936
H    -3.558993  -1.348636  0.945301
H    -4.587208  0.070045  1.047409
H    -3.754714  -0.534262  3.771310
H    -4.243849  -2.054097  3.051476
N    -3.906926  2.270433  2.519358
C    -4.113423  3.563377  3.151629
H    -4.731005  1.707499  2.316777
H    -5.188710  3.766199  3.185409
H    -3.612937  4.359519  2.584822
H    -3.708564  3.577892  4.173326
H    -7.280661  -1.032276  4.193654
