28
Energy: -19698.3919724 eV PBE+vdW (tier 2 basis)
C    1.083497  -1.263446  0.759370
C    0.748980  -0.644567  2.102538
O    1.602892  -0.433278  2.963300
H    1.777524  -0.598949  0.229269
H    0.206083  -1.439645  0.125474
H    1.604996  -2.213096  0.929266
N    -0.565959  -0.317966  2.286701
C    -1.053334  0.188101  3.550099
C    -2.534444  -0.216750  3.655485
O    -3.167428  -0.602559  2.671348
H    -1.291727  -0.628168  1.643237
H    -0.471268  -0.289251  4.355716
C    -0.860748  1.717933  3.692975
C    -1.676970  2.529635  2.672981
C    -1.383946  4.004657  2.793815
O    -0.629791  4.642811  2.091470
O    -2.062756  4.568282  3.840768
H    0.211578  1.920973  3.567940
H    -1.128178  2.025134  4.714825
H    -2.752494  2.361782  2.825370
H    -1.414589  2.222752  1.654112
N    -3.080313  -0.078820  4.892217
C    -4.477743  -0.350350  5.176692
H    -2.477835  0.215659  5.651706
H    -4.980082  0.542026  5.574352
H    -4.583296  -1.171360  5.899050
H    -4.956534  -0.641856  4.236510
H    -1.787499  5.505476  3.859499
