28
Energy: -19698.1147259 eV PBE+vdW (tier 2 basis)
C    -0.940841  1.234333  -0.365285
C    -0.452432  1.343242  1.069855
O    0.617174  1.872614  1.357042
H    -0.185268  1.691204  -1.009281
H    -1.897242  1.755034  -0.514728
H    -1.083517  0.187469  -0.668037
N    -1.267561  0.828587  2.050259
C    -2.510477  0.081516  1.881738
C    -3.417632  0.477322  3.071473
O    -3.384602  -0.154614  4.127599
H    -0.870420  0.870789  2.986329
H    -2.973945  0.410388  0.943248
C    -2.288820  -1.439511  1.829773
C    -3.433286  -2.223364  1.153252
C    -4.772046  -2.009974  1.821281
O    -5.543695  -1.105151  1.561708
O    -5.020220  -2.937739  2.779242
H    -2.128190  -1.804500  2.853295
H    -1.368870  -1.629736  1.260233
H    -3.187420  -3.292315  1.161724
H    -3.540823  -1.897652  0.109736
N    -4.187437  1.585503  2.914727
C    -4.397008  2.351394  1.697479
H    -4.763719  1.797892  3.722517
H    -3.454085  2.767798  1.316584
H    -5.056971  3.193362  1.930537
H    -4.879139  1.749669  0.912406
H    -5.857546  -2.672544  3.207549
