28
Energy: -19698.2557654 eV PBE+vdW (tier 2 basis)
C    -0.327130  -0.256806  0.599944
C    -0.989058  -0.308833  1.963590
O    -0.340563  -0.171369  2.996721
H    -0.239879  0.794322  0.290051
H    -0.859287  -0.801638  -0.187261
H    0.687658  -0.653764  0.702819
N    -2.353393  -0.526595  2.026521
C    -3.350361  -0.471296  0.956633
C    -3.260658  -1.640315  -0.053834
O    -3.688726  -1.528832  -1.200538
H    -2.719340  -0.395641  2.967473
H    -4.305640  -0.637957  1.477196
C    -3.461407  0.880888  0.229187
C    -3.562386  2.098012  1.168470
C    -4.752280  2.035785  2.096913
O    -4.924997  1.201844  2.967399
O    -5.651281  3.027252  1.855222
H    -4.333709  0.832532  -0.434588
H    -2.595375  1.030219  -0.429005
H    -3.609177  3.016683  0.573283
H    -2.666993  2.155046  1.805291
N    -2.739678  -2.787859  0.457627
C    -2.619726  -4.009126  -0.312552
H    -2.379408  -2.747404  1.405254
H    -3.162875  -4.834556  0.167884
H    -1.567407  -4.302561  -0.435313
H    -3.054687  -3.823362  -1.300429
H    -6.376885  2.897338  2.497910
