28
Energy: -19697.945992 eV PBE+vdW (tier 2 basis)
C    0.495456  -0.035537  -0.419514
C    0.424266  0.111942  1.085058
O    1.397097  0.457207  1.752244
H    -0.175509  -0.792174  -0.840351
H    1.531680  -0.262273  -0.686633
H    0.232321  0.928240  -0.878503
N    -0.780573  -0.112843  1.719986
C    -2.056762  -0.610210  1.203955
C    -1.913977  -1.971248  0.479112
O    -2.275808  -2.125808  -0.686608
H    -0.720387  0.072545  2.716497
H    -2.663830  -0.808206  2.103696
C    -2.808875  0.432348  0.361125
C    -4.243786  0.026172  -0.011362
C    -4.397975  -0.335887  -1.474437
O    -3.822361  0.201263  -2.395615
O    -5.337843  -1.304931  -1.654290
H    -2.258144  0.646223  -0.563357
H    -2.815716  1.358396  0.950474
H    -4.928757  0.872275  0.156682
H    -4.622877  -0.798537  0.606326
N    -1.377602  -3.003932  1.192658
C    -0.900704  -3.028336  2.565975
H    -1.283291  -3.852466  0.643309
H    -1.600712  -2.518218  3.241484
H    -0.839724  -4.072775  2.891388
H    0.091035  -2.567298  2.678026
H    -5.386321  -1.448888  -2.619285
