28
Energy: -19698.4085996 eV PBE+vdW (tier 2 basis)
C    1.094458  -1.131070  0.817449
C    0.370124  -0.991908  2.134778
O    0.742077  -1.601845  3.153538
H    2.084472  -0.666495  0.920991
H    0.569727  -0.662548  -0.023092
H    1.248776  -2.195961  0.609115
N    -0.668027  -0.123117  2.155516
C    -1.559443  0.036317  3.289679
C    -2.964027  0.266151  2.695877
O    -3.105744  0.717866  1.559507
H    -1.020703  0.294359  1.294295
H    -1.532172  -0.903893  3.863671
C    -1.189273  1.206101  4.231437
C    0.121115  1.011394  5.016851
C    1.367084  1.496665  4.273561
O    1.573425  2.671942  4.061225
O    2.262791  0.555717  3.894101
H    -2.012391  1.322956  4.951650
H    -1.143649  2.142119  3.655666
H    0.220358  -0.033544  5.339850
H    0.075526  1.636970  5.918553
N    -3.997729  -0.034433  3.524103
C    -5.388202  0.186577  3.167602
H    -3.785326  -0.439207  4.428272
H    -5.407938  0.608780  2.157961
H    -5.867223  0.891833  3.860435
H    -5.950975  -0.756622  3.171135
H    1.844440  -0.339821  3.923183
