28
Energy: -19698.0857584 eV PBE+vdW (tier 2 basis)
C    -0.174931  0.469378  -0.147654
C    0.030002  0.692861  1.337477
O    0.970177  1.364625  1.755297
H    0.424496  -0.400899  -0.447907
H    -1.208536  0.271366  -0.450897
H    0.201880  1.350542  -0.675572
N    -0.842822  0.112103  2.230941
C    -2.021919  -0.719395  2.026925
C    -1.772901  -1.826430  0.962255
O    -0.757482  -2.514746  1.039708
H    -0.544680  0.257736  3.190776
H    -2.090984  -1.337704  2.936211
C    -3.338825  0.110628  2.014232
C    -3.373448  1.400753  1.191285
C    -3.799438  1.269822  -0.248368
O    -4.259446  0.272967  -0.780937
O    -3.651214  2.436498  -0.919131
H    -3.510379  0.405140  3.059250
H    -4.187630  -0.536833  1.751117
H    -2.412025  1.932395  1.229733
H    -4.092792  2.104349  1.640727
N    -2.749195  -2.042664  0.048001
C    -2.596292  -3.078513  -0.958790
H    -3.463782  -1.330960  -0.109885
H    -1.820818  -2.822263  -1.697174
H    -3.552478  -3.211635  -1.475640
H    -2.303474  -4.021906  -0.483437
H    -3.975413  2.278639  -1.827494
