28
Energy: -19698.0263935 eV PBE+vdW (tier 2 basis)
C    -0.421882  -0.423440  0.660644
C    -1.067514  -0.581540  2.020349
O    -0.417491  -0.877998  3.020435
H    -0.188198  0.638943  0.500932
H    -1.045983  -0.751598  -0.178191
H    0.518926  -0.980847  0.668569
N    -2.421981  -0.348464  2.143322
C    -3.445565  -0.067006  1.134023
C    -3.505138  -1.163232  0.038032
O    -3.340200  -0.899768  -1.152990
H    -2.729255  -0.422026  3.108237
H    -4.400212  -0.129631  1.683276
C    -3.343059  1.341660  0.533777
C    -4.614866  1.778281  -0.188097
C    -4.552361  3.207905  -0.671131
O    -3.618376  3.970698  -0.542642
O    -5.711841  3.566383  -1.297044
H    -2.498912  1.388665  -0.164552
H    -3.120384  2.037335  1.353866
H    -5.503517  1.686895  0.458245
H    -4.809431  1.138092  -1.060968
N    -3.755484  -2.440033  0.448942
C    -3.966147  -2.950502  1.793992
H    -3.739228  -3.109304  -0.314369
H    -3.028763  -3.050779  2.359648
H    -4.437313  -3.936785  1.719055
H    -4.649877  -2.306409  2.363229
H    -5.584513  4.492411  -1.580683
