28
Energy: -19698.034511 eV PBE+vdW (tier 2 basis)
C    -0.646241  0.658526  0.216391
C    -0.545079  0.763388  1.728171
O    0.490594  1.090797  2.297210
H    -0.202332  1.555704  -0.229703
H    -1.671519  0.538254  -0.155452
H    -0.049588  -0.201977  -0.113823
N    -1.700928  0.480330  2.411234
C    -1.782066  0.355323  3.866826
C    -0.987321  1.455987  4.619744
O    -0.180507  1.165977  5.497059
H    -2.494120  0.143644  1.878240
H    -2.844822  0.519535  4.121642
C    -1.377343  -1.050905  4.333298
C    -1.805304  -1.373079  5.762365
C    -1.677870  -2.840260  6.094516
O    -1.430260  -3.738091  5.316262
O    -1.894583  -3.066036  7.423797
H    -0.288855  -1.152721  4.235148
H    -1.832803  -1.779453  3.647800
H    -2.860554  -1.099267  5.937612
H    -1.222981  -0.792353  6.489467
N    -1.313690  2.760927  4.369443
C    -2.172017  3.318634  3.341774
H    -0.707917  3.404153  4.869777
H    -3.092454  2.732046  3.234607
H    -1.680612  3.375889  2.357626
H    -2.463008  4.332004  3.643426
H    -1.805202  -4.031139  7.545359
