28
Energy: -19698.0375776 eV PBE+vdW (tier 2 basis)
C    0.204446  -0.020953  0.777941
C    -0.080858  -0.491493  2.194303
O    0.797573  -0.963402  2.911833
H    1.253243  -0.238279  0.560732
H    0.040639  1.060800  0.668304
H    -0.428191  -0.529604  0.037726
N    -1.365477  -0.355564  2.659802
C    -2.543448  0.106565  1.941273
C    -3.419916  1.009257  2.846571
O    -4.616718  0.787309  3.013711
H    -1.517884  -0.747020  3.587770
H    -2.195008  0.755858  1.122971
C    -3.373519  -1.027154  1.299868
C    -3.512985  -2.327719  2.116173
C    -4.281409  -2.197424  3.412099
O    -5.444449  -2.478951  3.582959
O    -3.480553  -1.736660  4.429225
H    -2.890523  -1.302193  0.351179
H    -4.368651  -0.630920  1.061659
H    -2.515980  -2.735216  2.335054
H    -4.053170  -3.059977  1.505554
N    -2.810372  2.078240  3.439724
C    -1.459655  2.590853  3.265083
H    -3.448718  2.617664  4.015630
H    -1.441486  3.631673  3.606879
H    -1.161760  2.589881  2.207939
H    -0.713289  2.021621  3.835394
H    -4.070936  -1.623735  5.199027
