28
Energy: -19698.4544957 eV PBE+vdW (tier 2 basis)
C    0.003850  1.396003  1.353215
C    -0.419120  0.000384  1.757137
O    0.376358  -0.954173  1.732793
H    -0.806617  2.130994  1.420029
H    0.385849  1.369039  0.325109
H    0.831926  1.712038  2.000282
N    -1.713104  -0.133297  2.136237
C    -2.257831  -1.363220  2.708800
C    -2.633960  -2.420846  1.627613
O    -3.785159  -2.847578  1.484740
H    -2.325451  0.688338  2.173993
H    -1.444734  -1.817612  3.299974
C    -3.413839  -1.062004  3.673346
C    -4.745424  -0.562785  3.085450
C    -4.815381  0.885576  2.655509
O    -3.873110  1.638708  2.499185
O    -6.067266  1.360890  2.410224
H    -3.048951  -0.355197  4.432908
H    -3.637440  -2.000191  4.198034
H    -5.541539  -0.731087  3.828556
H    -5.001719  -1.195715  2.218718
N    -1.569712  -2.831028  0.901749
C    -1.679790  -3.778710  -0.188482
H    -0.669055  -2.379072  1.112887
H    -1.013809  -4.637579  -0.027309
H    -1.419496  -3.310933  -1.149040
H    -2.714917  -4.132986  -0.234019
H    -6.720561  0.656042  2.563360
