28
Energy: -19698.0152439 eV PBE+vdW (tier 2 basis)
C    0.248519  0.472608  0.695080
C    0.006869  -0.036441  2.104459
O    0.927295  -0.301827  2.872226
H    1.327744  0.476221  0.523129
H    -0.235012  -0.159905  -0.061311
H    -0.130682  1.496611  0.565793
N    -1.300139  -0.181935  2.508056
C    -2.522141  0.062244  1.749290
C    -3.584214  0.691488  2.682285
O    -4.651411  0.133075  2.925582
H    -1.389911  -0.544539  3.453954
H    -2.286481  0.818704  0.984853
C    -3.056802  -1.179025  1.010766
C    -3.196807  -2.428183  1.887295
C    -3.652187  -3.668745  1.155259
O    -4.399373  -4.512594  1.600927
O    -3.096572  -3.775743  -0.091370
H    -2.374720  -1.394590  0.177372
H    -4.031047  -0.921492  0.572865
H    -3.903113  -2.261542  2.707175
H    -2.219538  -2.680575  2.333227
N    -3.277911  1.906136  3.229039
C    -2.102608  2.737202  3.022039
H    -3.998897  2.249179  3.855995
H    -2.336787  3.755339  3.351482
H    -1.834010  2.792481  1.958500
H    -1.226759  2.380485  3.582181
H    -3.433276  -4.618360  -0.453021
