28
Energy: -19697.9295113 eV PBE+vdW (tier 2 basis)
C    0.572284  0.947746  0.694772
C    0.203574  -0.318549  1.449072
O    0.988234  -1.257767  1.568073
H    0.570183  1.827384  1.355080
H    -0.126655  1.155215  -0.127842
H    1.575936  0.813155  0.283931
N    -1.047818  -0.371705  2.008393
C    -2.028405  0.694204  2.055828
C    -1.867902  1.801241  3.125331
O    -2.564033  2.813758  3.000466
H    -1.251596  -1.209816  2.552880
H    -1.957456  1.258832  1.116305
C    -3.479111  0.136344  2.110982
C    -4.111573  -0.034097  3.494671
C    -3.463473  -1.062300  4.402554
O    -2.543500  -1.790778  4.099802
O    -3.991015  -1.152100  5.656470
H    -3.487517  -0.818082  1.567822
H    -4.122185  0.829760  1.556084
H    -5.167018  -0.328595  3.369329
H    -4.135443  0.936252  4.018120
N    -1.024301  1.672463  4.188846
C    -0.087811  0.628571  4.605657
H    -1.045767  2.512643  4.760334
H    -0.563836  -0.355185  4.665753
H    0.263851  0.892122  5.609359
H    0.786916  0.556007  3.946584
H    -4.708057  -0.502210  5.760232
