28
Energy: -19698.2095732 eV PBE+vdW (tier 2 basis)
C    -0.009591  0.480348  0.252058
C    -0.580431  0.871225  1.601615
O    -0.340299  1.964157  2.102352
H    0.959568  0.978247  0.146008
H    -0.667527  0.868028  -0.537732
H    0.111816  -0.598057  0.101983
N    -1.363249  -0.038173  2.297828
C    -1.962360  -1.313510  1.894545
C    -0.982168  -2.507552  1.942156
O    -1.357650  -3.651256  1.634449
H    -1.727619  0.375968  3.151823
H    -2.681836  -1.546997  2.696155
C    -2.782628  -1.203058  0.582156
C    -3.646738  -2.412704  0.173894
C    -4.564588  -2.907805  1.290026
O    -5.702373  -2.516877  1.439860
O    -4.013104  -3.809614  2.134475
H    -2.114623  -0.973480  -0.256959
H    -3.436533  -0.329821  0.716091
H    -3.008378  -3.230872  -0.181223
H    -4.293342  -2.096841  -0.653549
N    0.264831  -2.241518  2.378711
C    1.283236  -3.260572  2.554064
H    0.448990  -1.287005  2.671150
H    2.174662  -3.025443  1.957717
H    0.867635  -4.216316  2.220032
H    1.573839  -3.345102  3.609779
H    -3.049511  -3.924406  1.900318
