28
Energy: -19698.1937018 eV PBE+vdW (tier 2 basis)
C    -0.345115  -0.924784  0.312440
C    0.009713  0.025393  1.445467
O    1.165252  0.171518  1.833405
H    0.573984  -1.424501  -0.003826
H    -0.766379  -0.384203  -0.547554
H    -1.075843  -1.684578  0.622522
N    -1.018393  0.737444  2.010148
C    -2.441566  0.638698  1.737960
C    -3.040991  2.031579  2.004038
O    -2.790699  2.633726  3.045487
H    -0.758850  1.354192  2.778450
H    -2.581458  0.371026  0.678947
C    -3.133919  -0.419198  2.624071
C    -4.623776  -0.575831  2.332999
C    -5.241219  -1.763607  3.038963
O    -4.640425  -2.675712  3.563638
O    -6.603941  -1.702701  3.000617
H    -2.980527  -0.138978  3.675629
H    -2.626105  -1.382190  2.480436
H    -4.803580  -0.727475  1.253869
H    -5.197043  0.322277  2.603042
N    -3.867176  2.509295  1.032363
C    -4.540922  3.791815  1.132842
H    -3.983757  1.959382  0.190181
H    -5.629953  3.672736  1.053946
H    -4.198875  4.483232  0.350571
H    -4.295700  4.215874  2.112013
H    -6.920683  -2.509592  3.451640
