28
Energy: -19698.3498963 eV PBE+vdW (tier 2 basis)
C    -0.712046  -3.434272  1.823134
C    -0.348412  -2.246624  2.693350
O    0.799534  -2.045155  3.087858
H    -1.777917  -3.485919  1.569711
H    -0.421005  -4.354295  2.344740
H    -0.126046  -3.384069  0.896993
N    -1.384263  -1.411171  3.006716
C    -1.210443  -0.254998  3.862358
C    -2.506108  -0.096512  4.670267
O    -3.604964  -0.288204  4.149010
H    -2.338476  -1.609333  2.718939
H    -0.349541  -0.464342  4.516394
C    -0.905890  1.010723  3.027022
C    -0.603485  2.256271  3.878438
C    -0.186201  3.421470  3.011995
O    0.951612  3.796238  2.825767
O    -1.263545  4.015190  2.417652
H    -1.758483  1.204740  2.361244
H    -0.035060  0.775053  2.399715
H    0.226768  2.055232  4.567901
H    -1.489347  2.545394  4.460663
N    -2.339494  0.289373  5.964092
C    -3.450432  0.539344  6.864496
H    -1.393360  0.372558  6.316372
H    -3.445259  -0.165684  7.707063
H    -4.374677  0.403349  6.293695
H    -3.417226  1.564653  7.257339
H    -0.899233  4.725991  1.855077
