28
Energy: -19698.0735988 eV PBE+vdW (tier 2 basis)
C    -1.266182  0.852714  -0.983617
C    -0.655152  0.935069  0.403163
O    0.482888  1.348792  0.594963
H    -0.502872  1.163156  -1.701442
H    -2.134422  1.519659  -1.085093
H    -1.596876  -0.165406  -1.229879
N    -1.438330  0.540831  1.467063
C    -2.771291  -0.048997  1.438715
C    -3.603505  0.516231  2.609693
O    -4.059657  -0.202868  3.510235
H    -0.943321  0.562531  2.355254
H    -3.260403  0.299272  0.515684
C    -2.772892  -1.585369  1.411303
C    -1.981153  -2.279400  2.548310
C    -2.792615  -3.346776  3.282040
O    -2.482267  -4.517663  3.311003
O    -3.900795  -2.894585  3.907491
H    -2.352242  -1.894610  0.445408
H    -3.819091  -1.922095  1.407435
H    -1.650383  -1.546433  3.300402
H    -1.081783  -2.765712  2.159448
N    -3.827906  1.853446  2.630148
C    -3.431013  2.863390  1.660333
H    -4.355737  2.156505  3.443416
H    -4.029621  3.762798  1.837808
H    -3.632771  2.530470  0.633887
H    -2.367301  3.124323  1.740468
H    -3.980469  -1.910684  3.781254
