28
Energy: -19697.9479045 eV PBE+vdW (tier 2 basis)
C    -0.368988  -0.006373  0.111268
C    -0.070086  0.181408  1.581350
O    1.036752  -0.079455  2.050803
H    -1.411892  -0.273112  -0.082877
H    0.289702  -0.798853  -0.257195
H    -0.110637  0.917864  -0.425239
N    -1.041006  0.684041  2.428210
C    -2.367557  1.243597  2.207401
C    -3.438042  0.173461  1.886449
O    -3.192920  -0.853443  1.263161
H    -0.678599  0.774529  3.372647
H    -2.634003  1.689581  3.177250
C    -2.413339  2.385283  1.162773
C    -1.754920  3.688835  1.651302
C    -0.330357  3.527844  2.141749
O    0.025652  3.640025  3.296551
O    0.526943  3.244937  1.123609
H    -3.462189  2.605459  0.916037
H    -1.949806  2.046003  0.229541
H    -2.326324  4.116394  2.484584
H    -1.757921  4.416183  0.826711
N    -4.708808  0.456159  2.314134
C    -5.161747  1.548328  3.161127
H    -5.378370  -0.267053  2.070825
H    -6.241635  1.443299  3.308718
H    -4.988483  2.533257  2.703609
H    -4.687707  1.534860  4.154366
H    1.393354  3.056626  1.535844
