28
Energy: -19698.3526716 eV PBE+vdW (tier 2 basis)
C    -0.765748  1.113790  -0.262529
C    -0.541834  0.495071  1.103553
O    0.566596  0.472798  1.639677
H    -0.425571  2.156368  -0.238897
H    -1.811159  1.084224  -0.592322
H    -0.142629  0.583781  -0.993864
N    -1.660812  -0.014127  1.704406
C    -1.584480  -0.801552  2.919682
C    -2.519480  -2.007204  2.732041
O    -3.448016  -1.959935  1.921594
H    -2.514790  -0.161648  1.168380
H    -0.534940  -1.116758  3.026317
C    -2.003634  -0.011879  4.178070
C    -1.123922  1.209011  4.434985
C    -1.372996  1.825653  5.790497
O    -1.943253  1.298647  6.724190
O    -0.847758  3.081766  5.870170
H    -1.967271  -0.668330  5.058006
H    -3.054145  0.296050  4.067609
H    -1.253542  1.979451  3.663567
H    -0.055685  0.940298  4.388898
N    -2.305987  -3.106352  3.505625
C    -1.278648  -3.328545  4.509199
H    -3.011244  -3.826460  3.379612
H    -1.066688  -4.402242  4.570647
H    -1.580018  -2.976043  5.507626
H    -0.346620  -2.824106  4.230492
H    -1.021787  3.385456  6.782379
