28
Energy: -19698.0674287 eV PBE+vdW (tier 2 basis)
C    0.101329  0.980013  0.946663
C    -0.043971  -0.193318  1.895281
O    0.928053  -0.680851  2.464874
H    0.967441  1.568269  1.263606
H    -0.780113  1.628250  0.882693
H    0.298158  0.584510  -0.059392
N    -1.298442  -0.726178  2.098991
C    -2.577175  -0.367833  1.503327
C    -2.505808  -0.385825  -0.049317
O    -1.805912  -1.204209  -0.634464
H    -1.260816  -1.590303  2.629577
H    -3.249821  -1.207865  1.734824
C    -3.214969  0.886867  2.148302
C    -3.247817  0.838139  3.675326
C    -4.211158  -0.186320  4.230565
O    -4.976582  -0.872350  3.582637
O    -4.133517  -0.254002  5.587015
H    -4.250805  0.985564  1.789493
H    -2.669093  1.792675  1.847385
H    -3.541847  1.815570  4.087398
H    -2.249234  0.632853  4.087457
N    -3.291541  0.522686  -0.696912
C    -3.397256  0.566737  -2.143808
H    -3.847500  1.167622  -0.151083
H    -4.422972  0.352249  -2.475070
H    -2.725711  -0.198465  -2.546472
H    -3.095595  1.549093  -2.532534
H    -4.787667  -0.925059  5.863778
