28
Energy: -19698.220243 eV PBE+vdW (tier 2 basis)
C    0.349957  -2.737921  1.275392
C    -0.603991  -2.302109  2.367704
O    -1.412691  -3.077829  2.880843
H    0.862754  -3.651762  1.598052
H    1.095760  -1.978776  1.009981
H    -0.233018  -2.991408  0.380339
N    -0.499802  -0.991897  2.762016
C    -1.430934  -0.392075  3.723847
C    -2.733894  0.038862  2.998633
O    -2.924102  1.195036  2.626426
H    0.036220  -0.358694  2.176388
H    -1.679718  -1.192538  4.435424
C    -0.795342  0.793616  4.448089
C    0.524226  0.474843  5.174933
C    0.334903  -0.546837  6.288697
O    -0.055822  -0.271684  7.396954
O    0.602700  -1.850921  5.966808
H    -1.524365  1.175769  5.175256
H    -0.634407  1.610104  3.729471
H    0.895429  1.392452  5.647076
H    1.290729  0.138647  4.460469
N    -3.601502  -0.990338  2.811008
C    -4.835072  -0.845435  2.061913
H    -3.262806  -1.923747  3.043988
H    -5.669123  -1.309716  2.603522
H    -4.760969  -1.306271  1.065481
H    -5.034340  0.224121  1.939415
H    0.863220  -1.909492  5.030877
