28
Energy: -19698.1925965 eV PBE+vdW (tier 2 basis)
C    -1.047799  -1.283588  0.001739
C    -0.771235  -0.951762  1.458059
O    0.334199  -1.104548  1.972969
H    -0.854310  -2.351593  -0.161494
H    -0.341551  -0.726678  -0.626097
H    -2.072331  -1.052455  -0.315298
N    -1.847334  -0.485457  2.160258
C    -1.735753  -0.060561  3.543401
C    -1.448506  -1.154492  4.600394
O    -0.825902  -0.835485  5.611163
H    -2.738884  -0.339364  1.690142
H    -0.852031  0.589648  3.637932
C    -2.982935  0.723216  3.987114
C    -3.242226  2.027987  3.225004
C    -4.033372  1.887614  1.945447
O    -4.328267  0.846504  1.382700
O    -4.408552  3.096792  1.459730
H    -2.833970  0.964892  5.047023
H    -3.873864  0.078966  3.931875
H    -2.296407  2.533934  2.970438
H    -3.786504  2.744506  3.857151
N    -1.934589  -2.421578  4.447910
C    -2.728542  -3.026064  3.390239
H    -1.639478  -3.026582  5.207999
H    -3.163424  -3.952846  3.782982
H    -2.131450  -3.276573  2.501090
H    -3.558374  -2.379533  3.082195
H    -4.897494  2.921740  0.631893
