28
Energy: -19698.223382 eV PBE+vdW (tier 2 basis)
C    -0.102805  -0.647754  0.059009
C    -0.093090  -0.298036  1.533998
O    0.953618  -0.184631  2.171870
H    0.521087  0.076867  -0.477982
H    -1.104778  -0.658988  -0.386911
H    0.357291  -1.635505  -0.070717
N    -1.326751  -0.104833  2.097191
C    -1.504104  0.150338  3.523044
C    -2.065633  -1.147166  4.144429
O    -3.247168  -1.452798  3.972605
H    -2.156214  -0.342764  1.563216
H    -0.500461  0.380448  3.899762
C    -2.429319  1.353516  3.744577
C    -2.407114  1.930168  5.175126
C    -3.200125  1.113853  6.171830
O    -4.400365  1.161862  6.322680
O    -2.398338  0.285735  6.910094
H    -3.458962  1.082927  3.469020
H    -2.096591  2.143617  3.057538
H    -2.873700  2.922729  5.154530
H    -1.371573  2.043245  5.523411
N    -1.195698  -1.958858  4.801636
C    0.175724  -1.674255  5.206058
H    -1.638023  -2.792843  5.176626
H    0.650145  -2.617938  5.497217
H    0.216443  -0.987606  6.066022
H    0.753440  -1.253129  4.374233
H    -3.006019  -0.225067  7.480334
