28
Energy: -19698.28343 eV PBE+vdW (tier 2 basis)
C    -0.559645  -0.778597  -0.145334
C    -0.426045  -0.153415  1.226655
O    0.253783  0.850601  1.436150
H    -1.345823  -0.237243  -0.691143
H    -0.831970  -1.841296  -0.111244
H    0.381598  -0.657091  -0.690142
N    -1.166577  -0.757731  2.209934
C    -1.271440  -0.221295  3.559506
C    -0.569927  -1.190235  4.532973
O    -1.123997  -2.231726  4.888182
H    -1.643113  -1.631219  2.012683
H    -0.757075  0.746646  3.518589
C    -2.732345  -0.011194  3.978009
C    -3.506934  0.895755  3.011331
C    -3.857099  0.298352  1.666305
O    -3.759116  0.857687  0.594353
O    -4.374108  -0.965430  1.779761
H    -2.735639  0.448847  4.976943
H    -3.226881  -0.985240  4.086415
H    -2.967578  1.829695  2.810232
H    -4.466483  1.169868  3.478526
N    0.687789  -0.868030  4.942337
C    1.487366  0.306331  4.614517
H    1.086865  -1.553718  5.576927
H    2.546400  0.048346  4.729757
H    1.269541  1.156746  5.279641
H    1.330427  0.616570  3.574450
H    -4.623571  -1.225695  0.872080
