28
Energy: -19698.3583656 eV PBE+vdW (tier 2 basis)
C    0.521878  -0.239726  -0.252736
C    0.246849  0.216436  1.159835
O    1.169053  0.368728  1.981034
H    1.043796  -1.203923  -0.216442
H    1.197814  0.479268  -0.732286
H    -0.385119  -0.343604  -0.859145
N    -1.045384  0.446451  1.483983
C    -1.417396  0.920925  2.803804
C    -2.945901  0.833365  2.882471
O    -3.619230  0.960551  1.855252
H    -1.802430  0.411295  0.803242
H    -0.948967  0.254853  3.541574
C    -0.912584  2.376581  3.027516
C    -0.593545  2.742262  4.474562
C    0.348374  1.830381  5.269675
O    0.309294  1.818054  6.484082
O    1.245872  1.073432  4.611913
H    -1.657902  3.075591  2.622179
H    -0.012144  2.499804  2.412416
H    -1.500006  2.842828  5.083595
H    -0.122478  3.737976  4.490172
N    -3.525436  0.649893  4.097214
C    -2.925284  0.354011  5.391324
H    -4.540595  0.669015  4.048192
H    -2.851850  1.241776  6.034197
H    -1.919273  -0.059564  5.274586
H    -3.534527  -0.399403  5.905211
H    1.130555  1.004635  3.621089
