28
Energy: -19698.3919987 eV PBE+vdW (tier 2 basis)
C    -0.711723  0.350688  0.336824
C    -0.766656  1.209068  1.586285
O    -0.698554  2.437464  1.557220
H    -1.192909  -0.626311  0.470314
H    0.338015  0.187176  0.055833
H    -1.195131  0.891842  -0.483035
N    -0.891883  0.512845  2.755044
C    -0.923071  1.162891  4.045524
C    -0.389500  0.153394  5.074828
O    -0.407059  -1.058285  4.858130
H    -0.867624  -0.504803  2.780885
H    -0.263985  2.044505  3.999645
C    -2.344515  1.660781  4.417586
C    -3.428619  0.574090  4.335549
C    -3.819505  0.164510  2.930470
O    -3.882147  -0.972882  2.511811
O    -4.155957  1.244786  2.167310
H    -2.594177  2.490603  3.744186
H    -2.322781  2.070051  5.438444
H    -4.343284  0.958421  4.812992
H    -3.136713  -0.339106  4.867960
N    0.057199  0.703122  6.237038
C    0.543338  -0.090531  7.350878
H    0.087937  1.713322  6.307501
H    0.430377  -1.144874  7.078724
H    -0.036417  0.109467  8.262370
H    1.604414  0.112491  7.551259
H    -4.402071  0.888274  1.292423
