28
Energy: -19698.0309704 eV PBE+vdW (tier 2 basis)
C    0.526490  -0.930637  0.618239
C    0.207704  0.064701  1.717447
O    1.074504  0.576147  2.420419
H    1.347154  -0.534072  0.009527
H    -0.326166  -1.164881  -0.031028
H    0.882487  -1.860553  1.080722
N    -1.120143  0.374717  1.867501
C    -1.616195  1.193724  2.971389
C    -0.877038  2.542519  3.117975
O    -0.642121  3.011571  4.241449
H    -1.801708  -0.128262  1.312124
H    -2.653203  1.464868  2.705196
C    -1.645249  0.347782  4.266550
C    -2.267480  0.956366  5.542756
C    -3.523612  1.774250  5.271326
O    -4.643541  1.310845  5.240301
O    -3.310720  3.093992  5.028405
H    -0.615949  0.039546  4.490679
H    -2.208374  -0.559540  4.005058
H    -1.521903  1.572124  6.056784
H    -2.558733  0.133661  6.206662
N    -0.604382  3.282659  2.013685
C    -0.854783  3.029429  0.605552
H    -0.128304  4.147373  2.252521
H    -0.851509  3.992565  0.082389
H    -1.838488  2.572287  0.449702
H    -0.088457  2.385097  0.150089
H    -2.334481  3.248581  4.980169
