28
Energy: -19698.2901672 eV PBE+vdW (tier 2 basis)
C    0.608441  0.801158  0.633996
C    0.030073  0.989089  2.022377
O    0.370174  1.922377  2.750879
H    0.434899  1.716305  0.054874
H    0.185843  -0.052303  0.090108
H    1.694216  0.668978  0.720235
N    -0.904711  0.063166  2.398209
C    -1.506324  0.055147  3.724496
C    -0.797221  -1.019798  4.578224
O    -0.982385  -2.216401  4.347238
H    -1.050195  -0.755998  1.817782
H    -1.336350  1.060805  4.127511
C    -3.008356  -0.230036  3.638484
C    -3.683576  -0.181849  5.005783
C    -5.181078  -0.371188  4.932577
O    -5.840771  -0.498652  3.923486
O    -5.736394  -0.378165  6.179830
H    -3.163367  -1.221638  3.190433
H    -3.464307  0.507732  2.965025
H    -3.499069  0.778785  5.514381
H    -3.283547  -0.955395  5.679254
N    0.040204  -0.596644  5.562877
C    0.384462  0.768323  5.945458
H    0.466922  -1.359962  6.080006
H    1.329010  0.742042  6.500106
H    -0.378556  1.222038  6.597100
H    0.530694  1.400458  5.060698
H    -6.695812  -0.500668  6.042946
