28
Energy: -19698.2101079 eV PBE+vdW (tier 2 basis)
C    -0.981119  -0.986499  0.972419
C    0.131108  -0.411792  1.829769
O    1.250135  -0.914676  1.874007
H    -1.367787  -0.251887  0.251621
H    -1.814305  -1.340504  1.594828
H    -0.568467  -1.836210  0.422767
N    -0.160543  0.690757  2.598906
C    -1.365621  1.500027  2.633207
C    -1.027001  2.920086  2.137934
O    -0.102108  3.556366  2.635470
H    0.642041  1.073825  3.095349
H    -2.106783  1.031363  1.971495
C    -1.950116  1.599650  4.056731
C    -2.517293  0.277713  4.592177
C    -1.524728  -0.857388  4.736755
O    -1.642432  -1.953535  4.229092
O    -0.484861  -0.529440  5.552257
H    -2.757766  2.347325  4.051892
H    -1.170498  1.987688  4.726564
H    -3.327155  -0.093195  3.951484
H    -2.945771  0.461127  5.589540
N    -1.831798  3.397955  1.146283
C    -1.666729  4.720034  0.568739
H    -2.546934  2.786766  0.771603
H    -2.581986  5.317332  0.678693
H    -1.404760  4.659249  -0.496530
H    -0.850138  5.212540  1.106828
H    0.108728  -1.305574  5.555256
