28
Energy: -19697.9952922 eV PBE+vdW (tier 2 basis)
C    -0.205771  0.929718  0.467789
C    -0.123009  0.592765  1.944916
O    0.798424  0.974257  2.655735
H    -0.473897  1.990293  0.368107
H    -0.941328  0.329110  -0.083233
H    0.783105  0.793690  0.016742
N    -1.172184  -0.160154  2.425155
C    -1.343879  -0.422846  3.844185
C    -0.990957  -1.846021  4.332215
O    -0.458129  -1.985735  5.428692
H    -1.933328  -0.358285  1.787619
H    -0.590796  0.201793  4.344704
C    -2.746072  -0.035146  4.354569
C    -3.144193  1.414738  4.031383
C    -2.157256  2.410397  4.606440
O    -1.879550  2.518154  5.781068
O    -1.589712  3.176243  3.633605
H    -2.750397  -0.185885  5.442179
H    -3.510269  -0.709666  3.936047
H    -4.121933  1.622784  4.488517
H    -3.238226  1.575437  2.950847
N    -1.310800  -2.938671  3.568986
C    -2.014871  -3.036829  2.303056
H    -1.018322  -3.805521  4.009042
H    -2.330741  -4.077226  2.166093
H    -1.388015  -2.755666  1.443816
H    -2.929005  -2.425782  2.292584
H    -0.924734  3.736404  4.080671
