28
Energy: -19698.105742 eV PBE+vdW (tier 2 basis)
C    -0.075705  0.496225  0.511713
C    -0.362931  0.550027  1.997954
O    0.463255  0.968395  2.807118
H    0.141448  -0.536739  0.205057
H    0.808697  1.109583  0.320497
H    -0.911173  0.843374  -0.107081
N    -1.579545  0.085242  2.446176
C    -2.743912  -0.417091  1.716856
C    -2.396558  -1.540792  0.714293
O    -2.667454  -1.455017  -0.481918
H    -1.674296  0.160301  3.455145
H    -3.374900  -0.872462  2.493142
C    -3.590243  0.671764  1.030588
C    -3.817210  1.932393  1.865206
C    -4.553377  1.727077  3.168038
O    -4.673113  0.678989  3.774944
O    -5.072307  2.895960  3.634470
H    -4.553597  0.222042  0.753071
H    -3.117196  0.957776  0.082501
H    -4.359687  2.686768  1.279909
H    -2.854910  2.403377  2.127181
N    -1.785501  -2.651001  1.224875
C    -1.439008  -2.954177  2.604293
H    -1.572747  -3.345913  0.516327
H    -0.511592  -2.459131  2.926051
H    -1.307638  -4.037982  2.698276
H    -2.243864  -2.660708  3.291050
H    -5.490514  2.682837  4.491646
