28
Energy: -19697.932456 eV PBE+vdW (tier 2 basis)
C    0.577890  0.759098  0.187053
C    -0.001628  -0.152189  1.251079
O    0.176902  -1.373981  1.198368
H    0.417508  1.827627  0.374544
H    0.126859  0.495810  -0.778197
H    1.653888  0.563685  0.106037
N    -0.695700  0.483083  2.240229
C    -1.537466  -0.115478  3.287160
C    -1.900286  0.899583  4.392608
O    -3.034298  0.855133  4.862255
H    -0.842837  1.476854  2.098311
H    -2.523827  -0.340841  2.852483
C    -1.025002  -1.446996  3.876811
C    0.437364  -1.475827  4.358883
C    1.071151  -2.856947  4.207948
O    1.474864  -3.517057  5.139440
O    1.164698  -3.307796  2.935431
H    -1.182619  -2.218988  3.116750
H    -1.698704  -1.693478  4.708703
H    0.522316  -1.184887  5.411354
H    1.048989  -0.777922  3.768581
N    -1.014335  1.864392  4.808106
C    0.442592  1.909995  4.761958
H    -1.443666  2.433959  5.534666
H    0.766346  2.958164  4.772404
H    0.818412  1.447006  3.846761
H    0.899834  1.395469  5.620434
H    0.800812  -2.639342  2.300651
