28
Energy: -19698.0198203 eV PBE+vdW (tier 2 basis)
C    0.821322  -0.523275  0.169740
C    0.320839  -0.946937  1.539346
O    0.817103  -1.898903  2.140964
H    0.223913  0.267152  -0.300478
H    0.835805  -1.401821  -0.485967
H    1.856524  -0.172697  0.271313
N    -0.721033  -0.205476  2.027823
C    -1.300004  -0.315626  3.374589
C    -0.394234  0.435411  4.392838
O    -0.476604  1.667097  4.406895
H    -0.952439  0.642327  1.524406
H    -2.171173  0.354511  3.346228
C    -1.826707  -1.714646  3.717768
C    -2.958571  -2.133812  2.783536
C    -3.589391  -3.449200  3.177424
O    -3.356232  -4.085266  4.183210
O    -4.499210  -3.857949  2.244884
H    -2.196612  -1.695419  4.752690
H    -1.033398  -2.464739  3.672813
H    -2.610306  -2.221250  1.743999
H    -3.764803  -1.381237  2.759871
N    0.454143  -0.211584  5.236470
C    0.831658  -1.616392  5.351526
H    0.943686  0.447542  5.834993
H    1.789855  -1.661104  5.881025
H    0.969555  -2.064502  4.361402
H    0.098388  -2.199613  5.927443
H    -4.865348  -4.698803  2.581482
