28
Energy: -19698.1295405 eV PBE+vdW (tier 2 basis)
C    -0.403424  1.420119  0.130048
C    -0.284966  1.144004  1.620029
O    0.678850  1.534193  2.273479
H    -0.375943  0.490526  -0.454133
H    -1.329999  1.956440  -0.119762
H    0.450557  2.038587  -0.157694
N    -1.286471  0.419635  2.217503
C    -2.505978  -0.096001  1.632325
C    -3.709952  0.432809  2.438174
O    -3.628962  0.594179  3.652249
H    -1.211015  0.340866  3.230679
H    -2.555483  0.251498  0.593420
C    -2.556198  -1.643109  1.643917
C    -1.369038  -2.292727  0.923396
C    -0.085997  -2.206159  1.728187
O    0.025604  -2.526902  2.891894
O    0.955353  -1.752162  0.977746
H    -3.494788  -1.973869  1.175189
H    -2.580703  -1.990038  2.687074
H    -1.217560  -1.868697  -0.077562
H    -1.576398  -3.365730  0.793640
N    -4.869229  0.658661  1.753003
C    -5.092134  0.576474  0.318523
H    -5.633485  0.975573  2.341447
H    -6.140603  0.820090  0.118579
H    -4.908833  -0.433923  -0.074945
H    -4.472290  1.291534  -0.243086
H    1.720921  -1.690520  1.582859
