28
Energy: -19698.3711088 eV PBE+vdW (tier 2 basis)
C    0.955763  0.450333  0.450759
C    0.766986  0.282360  1.945250
O    1.735533  0.152769  2.704025
H    1.603637  1.317322  0.272928
H    0.020308  0.580022  -0.106680
H    1.480033  -0.432752  0.064142
N    -0.524424  0.284548  2.380050
C    -1.002371  0.064497  3.755803
C    -0.730779  1.233789  4.739309
O    -1.661480  1.701781  5.395675
H    -1.239271  0.462578  1.686051
H    -2.097029  0.054583  3.676734
C    -0.547526  -1.276563  4.360780
C    -1.000684  -2.477632  3.537817
C    -0.615816  -3.802216  4.156257
O    -0.055922  -3.965061  5.218464
O    -0.989125  -4.843662  3.354166
H    -0.969727  -1.336247  5.373245
H    0.543004  -1.292457  4.473656
H    -0.580899  -2.452915  2.520690
H    -2.095029  -2.485187  3.402826
N    0.561460  1.630967  4.829754
C    0.990495  2.685551  5.726584
H    1.243396  1.147721  4.235447
H    1.686035  2.300524  6.485984
H    0.104535  3.087497  6.229227
H    1.488872  3.493778  5.173288
H    -0.713754  -5.653565  3.825908
