28
Energy: -19698.4031367 eV PBE+vdW (tier 2 basis)
C    -1.371742  -3.584190  2.401290
C    -0.820986  -2.225487  2.780353
O    0.321417  -2.084681  3.228047
H    -2.389503  -3.550952  1.993800
H    -1.361343  -4.229991  3.288195
H    -0.704260  -4.038158  1.658530
N    -1.660782  -1.166781  2.585853
C    -1.274695  0.206128  2.914615
C    -1.544954  0.470311  4.422634
O    -2.551310  1.065698  4.808852
H    -2.627204  -1.344188  2.335350
H    -0.190543  0.263220  2.738627
C    -2.015790  1.197366  2.015305
C    -1.325410  2.569777  1.878295
C    -1.219072  3.328572  3.183262
O    -0.258298  3.312226  3.925559
O    -2.345922  4.043018  3.443448
H    -3.037348  1.334058  2.398879
H    -2.082321  0.761916  1.007939
H    -1.893691  3.175846  1.160889
H    -0.305457  2.439372  1.494723
N    -0.588581  -0.045243  5.231253
C    -0.657774  0.026434  6.676481
H    0.135309  -0.608962  4.784928
H    -1.524721  0.639687  6.943064
H    0.249489  0.490872  7.085841
H    -0.776814  -0.971762  7.122583
H    -2.229695  4.411895  4.340404
