28
Energy: -19698.3991213 eV PBE+vdW (tier 2 basis)
C    -0.237359  -1.099740  -0.020957
C    -0.144981  -0.764044  1.451313
O    0.946634  -0.618108  2.013106
H    0.514415  -0.523510  -0.570157
H    -1.228778  -0.915147  -0.453154
H    0.004122  -2.166077  -0.135230
N    -1.339311  -0.667455  2.105492
C    -1.557531  -0.617609  3.560037
C    -1.132862  0.687618  4.283989
O    -1.910797  1.195101  5.094317
H    -2.173653  -0.778413  1.542909
H    -2.647967  -0.616438  3.683294
C    -0.992824  -1.854310  4.288148
C    -1.753061  -3.152864  3.967117
C    -1.549282  -3.648964  2.552842
O    -0.493264  -3.992310  2.065577
O    -2.724305  -3.692424  1.848756
H    -1.075532  -1.667519  5.367597
H    0.073777  -1.973037  4.056836
H    -2.825384  -3.034316  4.168512
H    -1.374990  -3.950099  4.623427
N    0.106451  1.148985  4.001527
C    0.655334  2.333742  4.629928
H    0.667404  0.600916  3.336135
H    0.975974  3.063704  3.873814
H    1.519830  2.083774  5.262087
H    -0.122769  2.781993  5.256796
H    -2.492109  -4.062098  0.974056
