28
Energy: -19698.3031102 eV PBE+vdW (tier 2 basis)
C    0.463780  1.097642  0.637162
C    -0.061338  0.072995  1.623566
O    0.647604  -0.425860  2.497754
H    1.350108  0.685851  0.139691
H    0.784016  1.988386  1.192539
H    -0.271609  1.396320  -0.119646
N    -1.383602  -0.246244  1.489398
C    -2.000186  -1.273368  2.299666
C    -3.137427  -1.877826  1.462920
O    -3.595670  -1.271821  0.490530
H    -1.932108  0.051876  0.685098
H    -1.228174  -2.026502  2.523051
C    -2.510276  -0.728052  3.657298
C    -3.638525  0.307844  3.514604
C    -4.040417  0.858222  4.860570
O    -3.700873  1.923969  5.327669
O    -4.840365  -0.018628  5.543696
H    -1.645938  -0.276112  4.162828
H    -2.848271  -1.562335  4.286782
H    -4.517142  -0.147252  3.035981
H    -3.302841  1.150333  2.899572
N    -3.644561  -3.080747  1.847664
C    -3.220687  -3.951146  2.931532
H    -4.434875  -3.376973  1.282431
H    -3.399240  -4.994007  2.644011
H    -3.763771  -3.751630  3.867894
H    -2.147323  -3.840875  3.121866
H    -5.021312  0.405740  6.404835
