28
Energy: -19698.1045966 eV PBE+vdW (tier 2 basis)
C    -0.114689  -0.140721  -0.465387
C    -0.462637  0.298670  0.941670
O    0.393861  0.690355  1.732205
H    -0.710861  -0.983337  -0.833713
H    0.948526  -0.395467  -0.485088
H    -0.275981  0.700952  -1.154819
N    -1.786581  0.290087  1.323338
C    -2.988100  -0.158911  0.617226
C    -2.906546  -1.638960  0.174676
O    -3.016592  -1.975346  -1.003990
H    -1.916440  0.656228  2.261791
H    -3.786416  -0.094023  1.369621
C    -3.411966  0.731762  -0.563970
C    -3.340586  2.231955  -0.286374
C    -4.240925  2.728391  0.820481
O    -4.829228  2.045671  1.637587
O    -4.316472  4.087962  0.823561
H    -4.435094  0.447107  -0.845332
H    -2.791374  0.499989  -1.438433
H    -3.577930  2.802270  -1.195327
H    -2.316172  2.535025  -0.014343
N    -2.713806  -2.565155  1.158861
C    -2.593843  -2.367103  2.594130
H    -2.637468  -3.512007  0.801173
H    -2.790966  -3.322313  3.093414
H    -1.594373  -2.016760  2.889942
H    -3.338387  -1.647800  2.960548
H    -4.888704  4.324916  1.579291
