28
Energy: -19698.4337234 eV PBE+vdW (tier 2 basis)
C    -0.410566  0.281538  -0.018448
C    -0.346005  0.191577  1.493645
O    0.646041  0.499788  2.140193
H    0.531694  -0.087365  -0.437628
H    -0.505096  1.338784  -0.301345
H    -1.248758  -0.273222  -0.458465
N    -1.493147  -0.276884  2.108563
C    -1.675873  -0.170374  3.552231
C    -0.969020  -1.282325  4.346857
O    -0.802013  -1.167894  5.572667
H    -2.329538  -0.375366  1.542453
H    -1.196230  0.761306  3.889864
C    -3.191129  -0.125737  3.849681
C    -3.608352  -0.047813  5.328234
C    -3.083686  1.203591  6.039573
O    -3.745295  2.215816  6.145365
O    -1.832982  1.122691  6.530498
H    -3.660057  -1.019824  3.406334
H    -3.599042  0.750153  3.322375
H    -3.290712  -0.952252  5.863933
H    -4.702489  0.005219  5.368795
N    -0.591520  -2.371072  3.651485
C    0.139702  -3.477890  4.239530
H    -0.694836  -2.314288  2.643389
H    -0.298565  -4.434175  3.927721
H    0.076013  -3.387804  5.328353
H    1.198455  -3.454875  3.945171
H    -1.417243  0.245518  6.274812
