28
Energy: -19698.2492812 eV PBE+vdW (tier 2 basis)
C    -0.130745  0.489737  0.313324
C    -0.026979  -0.130774  1.698687
O    1.055754  -0.261154  2.263457
H    0.870201  0.824752  0.029488
H    -0.813842  1.350091  0.291631
H    -0.482852  -0.232566  -0.435525
N    -1.185658  -0.563523  2.296596
C    -2.555168  -0.372858  1.863984
C    -3.350118  0.242210  3.032039
O    -3.051174  -0.022201  4.196021
H    -1.081943  -0.838893  3.273471
H    -2.564042  0.300830  1.000518
C    -3.236664  -1.708108  1.470798
C    -2.623421  -2.367534  0.241006
C    -2.913310  -1.630349  -1.045986
O    -3.668131  -0.685516  -1.177048
O    -2.219115  -2.157333  -2.090083
H    -4.308445  -1.533057  1.300904
H    -3.156630  -2.390354  2.328726
H    -3.006622  -3.392586  0.116284
H    -1.533852  -2.480024  0.345261
N    -4.419802  1.024339  2.717628
C    -4.816439  1.523445  1.407898
H    -4.897545  1.395719  3.533776
H    -4.679989  0.764196  0.629410
H    -4.256612  2.426979  1.117957
H    -5.882055  1.777924  1.437730
H    -2.476537  -1.640103  -2.878235
