28
Energy: -19698.0140326 eV PBE+vdW (tier 2 basis)
C    -0.108980  0.410363  0.570287
C    -0.477538  0.196875  2.022628
O    0.368606  0.160199  2.913282
H    -0.100664  -0.553991  0.042349
H    0.900853  0.828151  0.541094
H    -0.800287  1.066940  0.030515
N    -1.805457  0.005558  2.346234
C    -3.003870  -0.017830  1.504128
C    -2.864348  -0.951120  0.275079
O    -3.048799  -0.546535  -0.869000
H    -1.929591  -0.156462  3.340997
H    -3.781667  -0.474970  2.140218
C    -3.501855  1.370842  1.081593
C    -3.790893  2.265986  2.281894
C    -4.164418  3.677714  1.892038
O    -3.993632  4.191571  0.807733
O    -4.719588  4.348036  2.944616
H    -4.403564  1.244720  0.468314
H    -2.769570  1.853673  0.423358
H    -2.903447  2.346176  2.932099
H    -4.590842  1.860515  2.920112
N    -2.541184  -2.256582  0.522656
C    -2.332117  -2.932912  1.792818
H    -2.451864  -2.805004  -0.326867
H    -1.336209  -2.741569  2.217329
H    -2.441032  -4.011339  1.631911
H    -3.087056  -2.636727  2.533576
H    -4.897853  5.251914  2.619372
