28
Energy: -19698.3105849 eV PBE+vdW (tier 2 basis)
C    1.271084  0.376189  1.612616
C    0.029185  -0.439188  1.903090
O    0.092468  -1.569996  2.399101
H    1.064581  1.341945  1.135589
H    1.938543  -0.209120  0.968705
H    1.799757  0.553429  2.557787
N    -1.158959  0.151341  1.591925
C    -2.455842  -0.458989  1.886523
C    -2.842118  -1.483119  0.781819
O    -3.721264  -1.254363  -0.052230
H    -1.153027  1.048514  1.120022
H    -2.329971  -1.001062  2.835432
C    -3.509974  0.636285  2.047656
C    -4.874512  0.118323  2.501692
C    -4.890800  -0.400433  3.931786
O    -4.021275  -0.216872  4.749484
O    -6.012231  -1.102582  4.283361
H    -3.643441  1.148937  1.083712
H    -3.136802  1.363515  2.782026
H    -5.233656  -0.655634  1.806296
H    -5.611222  0.936930  2.451422
N    -2.118525  -2.627704  0.848624
C    -2.235130  -3.686430  -0.134468
H    -1.340725  -2.633105  1.516109
H    -1.364390  -3.711563  -0.806824
H    -3.133725  -3.501985  -0.732433
H    -2.322873  -4.662241  0.360841
H    -6.597157  -1.188021  3.510336
