28
Energy: -19698.4235297 eV PBE+vdW (tier 2 basis)
C    -1.595412  -1.035294  -0.510139
C    -0.917382  -0.865611  0.832746
O    0.313029  -0.762154  0.933700
H    -1.378449  -0.153662  -1.126646
H    -2.682523  -1.160968  -0.437773
H    -1.163910  -1.905136  -1.020057
N    -1.745173  -0.829789  1.910886
C    -1.264317  -0.604996  3.272927
C    -0.750822  -1.920193  3.932219
O    -1.291137  -2.422141  4.918789
H    -2.735625  -1.017812  1.775422
H    -0.387293  0.054132  3.173432
C    -2.294381  0.113381  4.149841
C    -3.680979  -0.563606  4.324885
C    -4.695873  -0.122785  3.300653
O    -5.412512  0.849573  3.375934
O    -4.732133  -0.953205  2.197254
H    -2.429207  1.138539  3.776277
H    -1.847177  0.196278  5.147895
H    -4.088721  -0.260376  5.295781
H    -3.569829  -1.653702  4.332083
N    0.348386  -2.421138  3.315199
C    0.975517  -3.664405  3.716255
H    0.683398  -1.917763  2.487528
H    0.868856  -4.436008  2.939667
H    0.486438  -4.013576  4.631723
H    2.045315  -3.514427  3.915491
H    -5.406751  -0.568613  1.603275
