28
Energy: -19698.0799266 eV PBE+vdW (tier 2 basis)
C    -0.356331  1.445774  0.378947
C    0.070996  0.570756  1.543310
O    1.207436  0.605208  2.006699
H    0.521935  2.000762  0.039888
H    -1.131383  2.165232  0.680114
H    -0.755397  0.856373  -0.457295
N    -0.875996  -0.268105  2.083513
C    -2.258002  -0.477113  1.659514
C    -3.138924  -0.662312  2.916617
O    -3.692023  -1.728917  3.178442
H    -0.518265  -0.841750  2.843231
H    -2.591080  0.450512  1.170275
C    -2.436694  -1.615670  0.641026
C    -1.824076  -2.951504  1.051643
C    -1.917706  -3.988300  -0.040691
O    -2.354219  -3.817674  -1.160433
O    -1.432184  -5.192462  0.379574
H    -1.990375  -1.293543  -0.310510
H    -3.510709  -1.744698  0.450583
H    -2.311424  -3.349727  1.952178
H    -0.756040  -2.844515  1.300783
N    -3.269251  0.423423  3.735890
C    -2.708269  1.756215  3.583524
H    -3.824102  0.231060  4.563926
H    -3.218573  2.427701  4.282159
H    -2.876721  2.149387  2.571492
H    -1.629744  1.787075  3.793445
H    -1.524419  -5.796194  -0.382716
