28
Energy: -19697.9393834 eV PBE+vdW (tier 2 basis)
C    -0.102021  -0.072286  0.175410
C    -0.171338  -0.119729  1.687912
O    0.846930  -0.098937  2.375726
H    -0.974751  0.366061  -0.316775
H    0.015939  -1.096993  -0.205190
H    0.797240  0.488895  -0.095340
N    -1.397748  -0.244386  2.309831
C    -2.772799  -0.203717  1.810716
C    -2.983157  -0.948606  0.473305
O    -3.484439  -0.396780  -0.503935
H    -1.291807  -0.264124  3.321108
H    -3.355750  -0.788800  2.543996
C    -3.398943  1.205001  1.813925
C    -2.650246  2.267655  1.002274
C    -3.229285  3.657932  1.128515
O    -3.420454  4.427959  0.212268
O    -3.501354  3.991063  2.427822
H    -3.462545  1.531510  2.861141
H    -4.428427  1.114772  1.440194
H    -2.641840  2.021752  -0.063909
H    -1.605688  2.335295  1.349083
N    -2.636151  -2.269313  0.438716
C    -2.080683  -3.107802  1.488581
H    -2.797610  -2.691560  -0.470411
H    -2.287521  -4.155139  1.241182
H    -2.552496  -2.898737  2.457008
H    -0.993990  -2.983174  1.603308
H    -3.841432  4.906106  2.396161
