28
Energy: -19698.0098823 eV PBE+vdW (tier 2 basis)
C    0.056254  -0.515566  0.321906
C    -0.073858  -0.191913  1.796642
O    0.892029  -0.151242  2.555749
H    1.102184  -0.757391  0.118242
H    -0.244577  0.337925  -0.302643
H    -0.576470  -1.366297  0.033349
N    -1.339635  0.071347  2.265942
C    -2.571103  0.166407  1.501458
C    -2.741972  1.388609  0.562803
O    -3.510413  1.273784  -0.391414
H    -1.357863  0.286702  3.258529
H    -2.612991  -0.677439  0.798150
C    -3.806421  0.024243  2.410012
C    -4.037377  1.187010  3.374202
C    -5.256282  0.984636  4.248617
O    -5.965829  0.002992  4.271194
O    -5.471264  2.072215  5.043560
H    -3.718321  -0.917086  2.969916
H    -4.682367  -0.080767  1.758280
H    -4.169770  2.137751  2.835150
H    -3.187460  1.351037  4.056995
N    -2.072694  2.561568  0.778049
C    -1.175749  3.002635  1.840850
H    -2.295869  3.242588  0.058192
H    -0.185719  2.531296  1.789220
H    -1.594035  2.825698  2.838998
H    -1.043550  4.084901  1.732393
H    -6.264044  1.864006  5.575248
