28
Energy: -19698.2397778 eV PBE+vdW (tier 2 basis)
C    -0.488304  1.852840  0.054667
C    -0.594601  0.880148  1.214049
O    0.102097  0.978982  2.223266
H    -0.671246  2.868293  0.427203
H    -1.185739  1.639766  -0.764578
H    0.538218  1.827491  -0.331742
N    -1.529081  -0.107164  1.066179
C    -1.660615  -1.185406  2.024563
C    -2.217306  -2.397626  1.256125
O    -2.732625  -2.272279  0.142472
H    -1.988494  -0.278765  0.173291
H    -0.657513  -1.416564  2.418829
C    -2.554762  -0.811796  3.229199
C    -3.988260  -0.462756  2.838331
C    -4.897620  -0.278785  4.043750
O    -4.634580  -0.620321  5.170668
O    -6.112598  0.295086  3.776716
H    -2.083695  0.038123  3.740209
H    -2.568246  -1.636358  3.955545
H    -4.433198  -1.260859  2.218355
H    -4.006268  0.445398  2.215541
N    -2.129067  -3.582952  1.912413
C    -2.652104  -4.827761  1.378740
H    -1.668895  -3.596723  2.815183
H    -1.849378  -5.563131  1.231785
H    -3.112131  -4.606662  0.410487
H    -3.410231  -5.256434  2.048230
H    -6.164756  0.524217  2.832524
