28
Energy: -19698.0735606 eV PBE+vdW (tier 2 basis)
C    0.038265  0.237611  0.749527
C    -0.071095  -0.446105  2.100285
O    0.672082  -1.366255  2.430132
H    0.715487  -0.350337  0.124860
H    0.453524  1.248721  0.867036
H    -0.933635  0.330337  0.244479
N    -1.055627  -0.002544  2.949876
C    -1.942834  1.124086  2.761438
C    -1.186047  2.476075  2.728251
O    -0.190187  2.684063  3.411536
H    -1.031911  -0.428871  3.873222
H    -2.472981  1.000423  1.800331
C    -3.034524  1.161173  3.860869
C    -2.660078  1.767781  5.221596
C    -1.712297  1.032267  6.146521
O    -1.134753  1.540176  7.078711
O    -1.614228  -0.308186  5.869901
H    -3.421083  0.139862  3.986458
H    -3.868823  1.759282  3.467915
H    -3.586350  1.886211  5.807544
H    -2.246485  2.778553  5.114837
N    -1.760039  3.414057  1.918232
C    -1.240744  4.763005  1.786759
H    -2.540717  3.132758  1.336863
H    -2.012762  5.508883  2.019347
H    -0.858951  4.949330  0.773018
H    -0.415000  4.866554  2.498705
H    -0.998531  -0.672375  6.536173
