28
Energy: -19698.0651049 eV PBE+vdW (tier 2 basis)
C    -0.101618  0.467617  -0.302440
C    0.079839  0.225878  1.186785
O    1.194098  0.140734  1.695948
H    0.891094  0.624752  -0.731846
H    -0.724965  1.345451  -0.516836
H    -0.565420  -0.397256  -0.795300
N    -1.048944  0.093938  1.962055
C    -2.460088  0.130464  1.580832
C    -3.173268  1.074842  2.578261
O    -3.713228  0.640780  3.592267
H    -0.846124  -0.099514  2.941101
H    -2.515809  0.551995  0.568354
C    -3.130587  -1.249633  1.600961
C    -2.495425  -2.234262  0.626601
C    -3.110790  -3.614299  0.689295
O    -3.959549  -3.989549  1.468225
O    -2.577733  -4.429223  -0.268680
H    -4.197728  -1.122846  1.368941
H    -3.099790  -1.646774  2.623674
H    -1.418161  -2.353463  0.824699
H    -2.567433  -1.888763  -0.416950
N    -3.143946  2.412789  2.301632
C    -2.423445  3.099213  1.242712
H    -3.552162  2.977591  3.040242
H    -1.332152  3.002921  1.345547
H    -2.676594  4.163567  1.287657
H    -2.719945  2.737615  0.248091
H    -3.013551  -5.295849  -0.153329
