28
Energy: -19698.2191053 eV PBE+vdW (tier 2 basis)
C    -0.459754  0.358030  -0.563029
C    -0.047382  -0.126634  0.811317
O    1.115627  -0.380847  1.108271
H    0.442650  0.479786  -1.166981
H    -1.002290  1.311963  -0.516195
H    -1.125051  -0.366737  -1.053806
N    -1.052290  -0.268280  1.750292
C    -2.489813  -0.139734  1.539808
C    -2.985459  1.316826  1.379373
O    -4.009317  1.558239  0.749685
H    -0.725465  -0.701494  2.609984
H    -2.782317  -0.633816  0.601550
C    -3.263028  -0.843976  2.674100
C    -3.013256  -0.307617  4.091455
C    -3.816662  0.930872  4.437339
O    -4.948341  1.162211  4.076238
O    -3.124067  1.758786  5.275583
H    -3.000942  -1.911318  2.643525
H    -4.334637  -0.765850  2.448495
H    -1.952573  -0.119911  4.305526
H    -3.331603  -1.072103  4.818282
N    -2.234917  2.252296  2.023488
C    -2.600620  3.652391  2.076267
H    -1.369132  1.940295  2.450542
H    -1.889608  4.279420  1.519527
H    -2.639310  4.001649  3.117410
H    -3.593374  3.753477  1.624884
H    -3.739569  2.485266  5.496083
