28
Energy: -19698.322325 eV PBE+vdW (tier 2 basis)
C    -0.175389  -0.268731  -0.191608
C    -0.116804  0.308315  1.208644
O    0.808693  1.060779  1.544624
H    -0.167785  0.557772  -0.912747
H    -1.049641  -0.902912  -0.380653
H    0.734353  -0.858100  -0.361763
N    -1.140196  -0.048593  2.030348
C    -1.368236  0.245463  3.460980
C    -1.527682  1.730605  3.873945
O    -2.316044  2.001062  4.781605
H    -1.841970  -0.648283  1.614391
H    -2.370469  -0.157392  3.651214
C    -0.421575  -0.511360  4.420330
C    0.979053  0.073827  4.599626
C    1.875636  -0.829215  5.410565
O    1.674441  -1.997971  5.670894
O    3.000477  -0.173383  5.820124
H    -0.345454  -1.552469  4.078128
H    -0.924006  -0.543603  5.397283
H    0.950111  1.060290  5.083409
H    1.474434  0.240908  3.630779
N    -0.762851  2.642527  3.232726
C    -0.797269  4.046532  3.597033
H    -0.040975  2.291217  2.592150
H    -0.434555  4.645590  2.754404
H    -0.173015  4.259673  4.478998
H    -1.825988  4.338125  3.837417
H    3.530970  -0.835353  6.304685
