28
Energy: -19698.3376749 eV PBE+vdW (tier 2 basis)
C    -0.060914  -1.131229  0.418573
C    -0.072128  -0.900908  1.916765
O    0.924126  -1.098152  2.616709
H    0.791691  -0.593765  -0.013305
H    -0.984486  -0.809188  -0.076980
H    0.095138  -2.200510  0.224155
N    -1.276415  -0.501789  2.429079
C    -1.401950  -0.045068  3.805432
C    -2.462941  -0.844696  4.595229
O    -3.418738  -0.293548  5.151104
H    -1.989286  -0.150168  1.784145
H    -0.420605  -0.260290  4.261163
C    -1.610021  1.479372  3.905143
C    -2.961143  2.095595  3.495701
C    -3.341476  2.103171  2.041354
O    -3.094077  1.252966  1.197845
O    -4.083846  3.197487  1.728243
H    -0.790430  1.951475  3.344034
H    -1.465256  1.755082  4.958833
H    -3.010696  3.130120  3.857737
H    -3.759705  1.546469  4.022854
N    -2.298100  -2.193563  4.684849
C    -1.239496  -3.041649  4.161551
H    -3.057280  -2.641295  5.189708
H    -1.088713  -3.883475  4.848308
H    -0.293198  -2.494932  4.081698
H    -1.484939  -3.440807  3.165360
H    -4.341876  3.089729  0.791671
