28
Energy: -19698.2702451 eV PBE+vdW (tier 2 basis)
C    -0.281738  -0.180893  0.135595
C    -0.050422  0.129877  1.598906
O    1.080797  0.365199  2.040713
H    0.212581  0.585364  -0.472565
H    -1.339734  -0.241726  -0.145776
H    0.198901  -1.141036  -0.094177
N    -1.163732  0.138305  2.386110
C    -1.222291  0.212440  3.850008
C    -0.694889  1.465033  4.564557
O    -1.151924  1.682651  5.701738
H    -2.048340  -0.032651  1.923951
H    -2.298924  0.254091  4.064319
C    -0.633197  -1.037780  4.570006
C    -1.695889  -2.012109  5.074368
C    -2.636563  -1.606247  6.223505
O    -3.418638  -2.424635  6.662225
O    -2.592402  -0.366245  6.741845
H    -0.000128  -0.711210  5.406226
H    0.037508  -1.552616  3.870286
H    -1.214927  -2.936828  5.423170
H    -2.354454  -2.329075  4.250064
N    0.238835  2.219796  3.968583
C    0.842064  3.361336  4.636545
H    0.717794  1.783753  3.170514
H    1.155978  4.096340  3.886983
H    1.717092  3.065256  5.234364
H    0.105912  3.814607  5.307754
H    -1.983658  0.299561  6.304128
