28
Energy: -19698.3208169 eV PBE+vdW (tier 2 basis)
C    -0.094426  -1.100704  0.071409
C    -0.185800  -1.101455  1.585390
O    0.473836  -1.875441  2.277789
H    -0.701586  -0.323842  -0.409157
H    -0.410934  -2.083458  -0.300185
H    0.955112  -0.964191  -0.216203
N    -1.035297  -0.168282  2.119713
C    -1.323042  -0.105219  3.545492
C    -2.615097  -0.897176  3.831346
O    -3.701257  -0.496175  3.402976
H    -1.680118  0.310444  1.499258
H    -0.460572  -0.550812  4.049516
C    -1.482627  1.358309  3.986611
C    -1.973532  1.548456  5.421633
C    -1.047086  1.026668  6.494365
O    0.031346  0.494221  6.325932
O    -1.574049  1.227381  7.736857
H    -2.213405  1.844818  3.323973
H    -0.515648  1.859244  3.842415
H    -2.959588  1.081074  5.567850
H    -2.135638  2.617365  5.627528
N    -2.502367  -2.033559  4.567354
C    -1.288923  -2.670353  5.074925
H    -3.389771  -2.504610  4.718103
H    -1.533853  -3.704740  5.339516
H    -0.901541  -2.166869  5.972442
H    -0.504759  -2.688945  4.307546
H    -0.915398  0.874608  8.366162
