28
Energy: -19698.1656354 eV PBE+vdW (tier 2 basis)
C    0.224798  -2.984424  0.192377
C    -0.478858  -2.824855  1.525698
O    -0.929457  -3.777845  2.151094
H    -0.373625  -3.641194  -0.449113
H    1.188031  -3.483089  0.363590
H    0.407732  -2.036050  -0.328192
N    -0.590279  -1.525388  1.979778
C    -1.035505  -1.221838  3.335282
C    -2.343133  -0.400021  3.373839
O    -2.708426  0.172133  4.401686
H    -0.065071  -0.809008  1.488242
H    -1.284494  -2.205618  3.769187
C    0.097742  -0.569028  4.148440
C    -0.100259  -0.630325  5.661842
C    1.087576  -0.068328  6.423114
O    2.134231  0.278581  5.930641
O    0.914114  0.026147  7.778954
H    0.224510  0.480128  3.841141
H    1.033693  -1.084929  3.894239
H    -0.244819  -1.675642  5.985476
H    -1.017042  -0.091338  5.942710
N    -3.054565  -0.389424  2.216323
C    -4.351236  0.246755  2.097039
H    -2.675951  -0.919212  1.439153
H    -4.546998  0.780701  3.032989
H    -5.147095  -0.494895  1.938269
H    -4.362924  0.963633  1.264938
H    0.013310  -0.260625  8.010263
