28
Energy: -19698.2421684 eV PBE+vdW (tier 2 basis)
C    -0.060843  -0.485050  0.261139
C    -0.486155  -1.073725  1.590476
O    -0.469991  -2.289048  1.802039
H    0.961099  -0.817743  0.041482
H    -0.094402  0.610945  0.231055
H    -0.710373  -0.885396  -0.527331
N    -0.876195  -0.172841  2.542813
C    -1.358138  -0.586600  3.862401
C    -2.870620  -0.920529  3.792150
O    -3.737640  -0.131756  4.164988
H    -1.041145  0.787919  2.260995
H    -0.811358  -1.506548  4.110941
C    -1.077650  0.487136  4.911415
C    0.410875  0.749587  5.135784
C    1.120144  -0.370905  5.888808
O    0.574369  -1.311230  6.410938
O    2.481470  -0.246644  5.971762
H    -1.537679  0.166707  5.854370
H    -1.588567  1.418197  4.626011
H    0.544585  1.671781  5.724889
H    0.931657  0.920172  4.178658
N    -3.113852  -2.147596  3.260521
C    -4.453362  -2.635832  2.998826
H    -2.309995  -2.652647  2.886147
H    -5.161673  -1.959314  3.488412
H    -4.581904  -3.648036  3.404280
H    -4.672977  -2.657570  1.920831
H    2.767318  0.552566  5.496200
