28
Energy: -19698.3447518 eV PBE+vdW (tier 2 basis)
C    0.095067  -0.278273  0.039602
C    0.056034  -0.125965  1.546268
O    1.090914  -0.167104  2.222903
H    0.809623  0.445303  -0.370269
H    -0.877487  -0.142139  -0.448515
H    0.472620  -1.281282  -0.197777
N    -1.181504  0.052980  2.089685
C    -1.524970  0.109198  3.519016
C    -1.061700  1.385580  4.270816
O    -1.867799  2.009460  4.962312
H    -1.957259  0.124601  1.443712
H    -2.619176  0.187963  3.548256
C    -1.111523  -1.156995  4.294865
C    -1.802951  -2.424191  3.761263
C    -1.338163  -3.656024  4.501094
O    -0.503981  -4.445037  4.111203
O    -1.956618  -3.777969  5.713118
H    -1.385521  -0.997779  5.346848
H    -0.021808  -1.281206  4.250158
H    -1.561046  -2.574721  2.702641
H    -2.893161  -2.327123  3.868292
N    0.244624  1.709392  4.143812
C    0.812438  2.857413  4.825469
H    0.832630  1.096764  3.568090
H    1.801086  3.065788  4.403136
H    0.916890  2.678552  5.906181
H    0.168810  3.736540  4.694332
H    -1.570586  -4.572112  6.131197
