28
Energy: -19698.2798652 eV PBE+vdW (tier 2 basis)
C    -0.442394  0.420602  -0.220854
C    -0.259920  0.137576  1.257482
O    0.865695  -0.062698  1.730589
H    -0.014908  -0.414197  -0.789758
H    0.132501  1.318688  -0.479010
H    -1.485822  0.562994  -0.526571
N    -1.403797  0.133402  1.995840
C    -1.602707  -0.134003  3.435439
C    -0.964530  0.879320  4.421523
O    -1.635389  1.280745  5.373094
H    -2.251043  0.364738  1.492339
H    -2.674921  0.039607  3.584091
C    -1.360729  -1.608448  3.850132
C    0.082304  -2.086678  4.081524
C    0.749658  -1.634494  5.364145
O    1.927787  -1.368308  5.486434
O    -0.118075  -1.607940  6.414875
H    -1.816322  -2.235536  3.069786
H    -1.941199  -1.774947  4.767248
H    0.749178  -1.815239  3.257423
H    0.066868  -3.188215  4.134644
N    0.326051  1.212215  4.185830
C    1.095205  2.038965  5.094327
H    0.791458  0.770345  3.384638
H    1.564835  2.873673  4.556832
H    1.882635  1.445559  5.582274
H    0.417063  2.436139  5.856695
H    0.400557  -1.306844  7.185293
