28
Energy: -19698.2508876 eV PBE+vdW (tier 2 basis)
C    -0.259803  -0.297264  0.073319
C    -0.055717  0.282465  1.460560
O    0.726119  1.200750  1.679338
H    -1.008896  0.317287  -0.445668
H    -0.611006  -1.337227  0.082434
H    0.679729  -0.231629  -0.484138
N    -0.808328  -0.323694  2.449267
C    -1.061517  0.303087  3.737286
C    -1.964366  1.564956  3.573659
O    -2.404109  1.909717  2.481183
H    -1.557097  -0.915291  2.107198
H    -1.690720  -0.412219  4.292078
C    0.237922  0.532884  4.551163
C    0.518547  -0.561902  5.575036
C    -0.420663  -0.536673  6.757553
O    -1.263159  0.314942  6.987118
O    -0.222012  -1.590686  7.589138
H    0.191246  1.504322  5.058199
H    1.069270  0.607494  3.844543
H    1.538795  -0.468268  5.980986
H    0.482749  -1.565956  5.124183
N    -2.257696  2.179448  4.750964
C    -3.147830  3.320509  4.831162
H    -1.922801  1.749387  5.612856
H    -2.670840  4.152538  5.367049
H    -4.087154  3.064203  5.343459
H    -3.379805  3.638597  3.809329
H    -0.851793  -1.480202  8.328315
