28
Energy: -19698.4505762 eV PBE+vdW (tier 2 basis)
C    1.356446  -1.248749  1.202379
C    0.803297  -1.086864  2.606027
O    1.319099  -1.627132  3.581034
H    2.378474  -0.849871  1.179444
H    0.758683  -0.745525  0.432432
H    1.420666  -2.318377  0.968157
N    -0.324938  -0.308924  2.699718
C    -0.909206  0.053994  3.980981
C    -2.444910  -0.142768  3.999676
O    -3.172698  0.548817  4.710866
H    -0.651646  0.217622  1.890164
H    -0.497933  -0.674587  4.698914
C    -0.512764  1.457696  4.475618
C    -0.510513  2.578107  3.410684
C    -1.784129  2.638553  2.604221
O    -2.046380  1.897622  1.668600
O    -2.633917  3.599404  3.029426
H    0.500843  1.404486  4.894232
H    -1.202400  1.719962  5.287528
H    0.309374  2.411695  2.698894
H    -0.340327  3.539966  3.908056
N    -2.894328  -1.163610  3.224858
C    -4.295186  -1.516738  3.123657
H    -2.214227  -1.630298  2.635543
H    -4.696570  -1.288860  2.125259
H    -4.841519  -0.925618  3.866275
H    -4.446650  -2.584410  3.332458
H    -3.447641  3.505408  2.495901
