28
Energy: -19697.9413852 eV PBE+vdW (tier 2 basis)
C    -0.329959  0.660447  -0.001112
C    0.004098  0.044845  1.341024
O    1.161517  -0.035654  1.743231
H    0.608387  0.777252  -0.550037
H    -0.774705  1.656882  0.134622
H    -1.020307  0.033070  -0.575255
N    -1.016895  -0.389234  2.170338
C    -2.444687  -0.597678  1.974078
C    -2.757591  -1.783565  1.028597
O    -2.073414  -2.030643  0.040397
H    -0.632162  -0.784827  3.022901
H    -2.819558  -0.853044  2.976090
C    -3.232133  0.646519  1.505521
C    -3.052641  1.859028  2.424825
C    -3.563294  1.680717  3.837511
O    -3.002574  2.049695  4.845104
O    -4.785733  1.057687  3.873635
H    -4.295391  0.378319  1.443061
H    -2.925993  0.915850  0.487576
H    -3.596940  2.716868  1.998307
H    -1.999475  2.150552  2.506083
N    -3.871172  -2.519974  1.326769
C    -4.716528  -2.448913  2.509581
H    -4.029250  -3.281710  0.674057
H    -5.091186  -1.432611  2.688384
H    -4.200656  -2.798527  3.417929
H    -5.585897  -3.095620  2.349743
H    -5.034981  1.033385  4.818001
