28
Energy: -19698.2108257 eV PBE+vdW (tier 2 basis)
C    0.169789  -0.655218  0.130482
C    -0.411909  -1.136290  1.441139
O    -0.575549  -2.336104  1.686118
H    1.212556  -0.993362  0.070795
H    0.146893  0.434855  0.011176
H    -0.376171  -1.123271  -0.696731
N    -0.730281  -0.165699  2.346707
C    -1.201518  -0.466985  3.697007
C    -2.734505  -0.729336  3.725432
O    -3.521124  0.051499  4.260809
H    -0.681994  0.806061  2.062090
H    -0.699490  -1.404626  3.985827
C    -0.827713  0.657213  4.662755
C    0.683927  0.856469  4.839779
C    1.457189  -0.353465  5.351174
O    2.492279  -0.746957  4.873011
O    0.925327  -0.994977  6.438400
H    -1.329681  0.454646  5.621582
H    -1.286093  1.598331  4.323786
H    0.859942  1.683674  5.546434
H    1.164543  1.142551  3.896786
N    -3.081131  -1.889809  3.115540
C    -4.459190  -2.310032  2.955183
H    -2.328618  -2.406780  2.651073
H    -4.778390  -2.250886  1.904092
H    -5.090999  -1.644932  3.553084
H    -4.591027  -3.342925  3.303634
H    0.087940  -0.569644  6.695837
