28
Energy: -19698.5649558 eV PBE+vdW (tier 2 basis)
C    -0.226777  0.986468  -0.040764
C    -0.589713  0.985380  1.432269
O    -0.181387  1.848462  2.211389
H    -0.677658  0.161475  -0.605489
H    0.865032  0.929975  -0.133092
H    -0.543379  1.939467  -0.482230
N    -1.402780  -0.032956  1.834281
C    -1.776577  -0.223278  3.220089
C    -2.072720  -1.725190  3.392296
O    -2.438222  -2.414843  2.434520
H    -1.687624  -0.785370  1.209981
H    -0.920260  0.071305  3.844779
C    -2.989860  0.672920  3.575273
C    -3.459033  0.638651  5.046508
C    -2.338676  0.945652  6.009164
O    -1.556061  0.124571  6.464568
O    -2.253849  2.261822  6.307041
H    -3.836699  0.383051  2.937173
H    -2.709971  1.700340  3.306894
H    -3.852956  -0.352785  5.302292
H    -4.261202  1.375079  5.176695
N    -1.914101  -2.208755  4.644322
C    -2.206246  -3.593559  4.970132
H    -1.637480  -1.563729  5.387838
H    -1.612427  -4.274321  4.346006
H    -3.267314  -3.830502  4.806445
H    -1.959226  -3.764853  6.022672
H    -1.465835  2.369523  6.875949
