28
Energy: -19697.733874 eV PBE+vdW (tier 2 basis)
C    0.044605  -0.100815  0.250248
C    -0.095926  0.110363  1.747265
O    0.874564  0.061545  2.498096
H    1.111011  -0.091476  0.010569
H    -0.460537  0.675157  -0.339903
H    -0.374213  -1.074719  -0.038198
N    -1.352051  0.345927  2.250964
C    -2.637182  0.447120  1.568670
C    -2.932101  -0.843364  0.748567
O    -2.864849  -1.916612  1.340289
H    -1.375182  0.391676  3.265461
H    -3.375255  0.339855  2.377145
C    -2.869961  1.840576  0.951156
C    -2.690381  2.992039  1.966763
C    -3.661605  2.903967  3.118768
O    -3.572212  2.137143  4.057929
O    -4.702517  3.773332  2.983040
H    -3.884004  1.888828  0.529234
H    -2.168449  2.033522  0.129478
H    -2.816100  3.950743  1.450718
H    -1.676914  2.948102  2.385838
N    -3.331276  -0.822944  -0.564321
C    -3.295665  0.198722  -1.600949
H    -3.528367  -1.769281  -0.877184
H    -3.503483  -0.293656  -2.556877
H    -2.310769  0.676816  -1.686989
H    -4.056910  0.977191  -1.458898
H    -5.280444  3.624441  3.757637
