28
Energy: -19697.9403807 eV PBE+vdW (tier 2 basis)
C    -0.697327  1.609794  1.062120
C    -0.331410  0.345633  1.814219
O    0.786506  0.151110  2.282058
H    0.195934  2.236031  1.000168
H    -1.493440  2.170002  1.573951
H    -1.053027  1.391106  0.045396
N    -1.322238  -0.599184  1.969760
C    -2.715844  -0.498415  1.595044
C    -3.696460  0.255019  2.515381
O    -4.836456  0.440089  2.054498
H    -1.018819  -1.422834  2.482121
H    -2.762854  0.105167  0.675656
C    -3.317191  -1.894147  1.273583
C    -3.436471  -2.183073  -0.221754
C    -4.462837  -1.404237  -1.061462
O    -4.574426  -1.648800  -2.244092
O    -5.239226  -0.468741  -0.482641
H    -4.300534  -1.990945  1.751626
H    -2.677499  -2.660717  1.735810
H    -3.689838  -3.241499  -0.377194
H    -2.465976  -2.043136  -0.721694
N    -3.377984  0.720294  3.744155
C    -2.181344  0.561764  4.567838
H    -4.162264  1.207933  4.169085
H    -2.420690  0.941017  5.566782
H    -1.324719  1.129258  4.184800
H    -1.888385  -0.489000  4.671447
H    -5.052373  -0.265085  0.478592
