28
Energy: -19698.269839 eV PBE+vdW (tier 2 basis)
C    -0.051555  -0.106071  -0.042420
C    -0.034563  -0.097920  1.473347
O    1.016770  -0.302333  2.095040
H    0.674029  0.632106  -0.405427
H    -1.032682  0.107585  -0.482951
H    0.285655  -1.091553  -0.387448
N    -1.232530  0.156721  2.067586
C    -1.614970  0.170123  3.494718
C    -0.894074  1.171187  4.433835
O    -1.549115  1.688387  5.340516
H    -2.001053  0.334525  1.432800
H    -2.639400  0.562530  3.485783
C    -1.713774  -1.234713  4.133474
C    -0.383726  -1.913298  4.498403
C    -0.571876  -3.288667  5.091809
O    -0.156315  -3.664463  6.166996
O    -1.275995  -4.113333  4.255613
H    -2.284739  -1.876522  3.448657
H    -2.318488  -1.117599  5.044694
H    0.172122  -1.322748  5.234978
H    0.252530  -2.011614  3.607508
N    0.421911  1.391469  4.224371
C    1.188055  2.261782  5.097208
H    0.895487  0.813166  3.519289
H    2.115077  2.549042  4.589332
H    1.440756  1.769922  6.049241
H    0.605782  3.160890  5.330618
H    -1.334349  -4.969658  4.721723
