28
Energy: -19698.3482496 eV PBE+vdW (tier 2 basis)
C    -1.241034  2.520155  0.758396
C    -0.300350  1.456841  1.280431
O    0.893848  1.660512  1.478656
H    -0.732482  3.485250  0.826478
H    -1.472583  2.322708  -0.298322
H    -2.186086  2.560370  1.316146
N    -0.836591  0.209729  1.544117
C    -2.141876  -0.321077  1.170164
C    -3.131358  -0.469248  2.354206
O    -4.238511  -0.973403  2.177383
H    -0.119316  -0.473698  1.780347
H    -2.626298  0.397940  0.492810
C    -2.001714  -1.663624  0.433079
C    -1.554952  -1.533526  -1.034048
C    -0.301832  -0.711879  -1.243256
O    -0.254390  0.357819  -1.814822
O    0.800989  -1.304643  -0.701789
H    -2.980300  -2.159044  0.459291
H    -1.301527  -2.305858  0.990041
H    -2.344696  -1.059375  -1.628836
H    -1.381210  -2.540113  -1.441221
N    -2.686513  0.015067  3.541230
C    -3.489465  0.001028  4.747513
H    -1.751272  0.409332  3.552050
H    -2.999488  -0.577572  5.542621
H    -4.448408  -0.468550  4.503079
H    -3.673431  1.020522  5.113947
H    1.534020  -0.668251  -0.819858
