28
Energy: -19698.2886462 eV PBE+vdW (tier 2 basis)
C    0.294820  -0.933551  0.703442
C    0.023003  0.171715  1.712408
O    0.790000  1.118587  1.863247
H    1.294673  -0.772335  0.292445
H    -0.431677  -0.894490  -0.121774
H    0.243219  -1.939674  1.141791
N    -1.137937  0.081697  2.438364
C    -2.129322  -0.973365  2.408537
C    -3.487116  -0.330320  2.755785
O    -3.558084  0.578313  3.581441
H    -1.333256  0.847071  3.082675
H    -2.174375  -1.390574  1.391396
C    -1.790683  -2.103864  3.413704
C    -2.668078  -3.364982  3.292622
C    -2.536660  -3.984943  1.921385
O    -1.560966  -4.557020  1.490618
O    -3.663376  -3.793249  1.153387
H    -1.872491  -1.700979  4.432781
H    -0.739707  -2.384726  3.261840
H    -3.719502  -3.144469  3.511478
H    -2.316054  -4.109856  4.018064
N    -4.560841  -0.860100  2.111419
C    -5.922553  -0.433037  2.378528
H    -4.408402  -1.640263  1.479608
H    -6.407787  -0.071966  1.461847
H    -5.878951  0.384941  3.104772
H    -6.521833  -1.253441  2.797988
H    -3.471081  -4.215960  0.292593
