28
Energy: -19698.4831952 eV PBE+vdW (tier 2 basis)
C    0.050211  -0.413954  -0.251414
C    0.060528  -0.547136  1.258936
O    1.115262  -0.623862  1.899890
H    0.533450  -1.298920  -0.684610
H    0.651995  0.458170  -0.534826
H    -0.955553  -0.311610  -0.675755
N    -1.159949  -0.568234  1.854628
C    -1.345413  -0.812481  3.268919
C    -2.829693  -1.205059  3.447967
O    -3.627363  -1.127418  2.508081
H    -2.030351  -0.603380  1.321100
H    -0.734057  -1.684804  3.555728
C    -0.934365  0.392148  4.165726
C    0.395654  0.177361  4.884578
C    0.332322  -0.879261  5.969254
O    -0.675897  -1.441127  6.351317
O    1.517874  -1.196349  6.554794
H    -1.721180  0.599955  4.903058
H    -0.857505  1.277646  3.522631
H    0.733682  1.114211  5.358215
H    1.162929  -0.106047  4.143789
N    -3.141131  -1.630917  4.691284
C    -4.481621  -2.029182  5.073531
H    -2.393645  -1.638741  5.390282
H    -4.482775  -3.050387  5.478041
H    -5.115995  -1.995898  4.181924
H    -4.897594  -1.350885  5.832344
H    2.236179  -0.703835  6.119586
