28
Energy: -19698.1690548 eV PBE+vdW (tier 2 basis)
C    0.703255  -0.166656  0.832093
C    0.294709  -0.876806  2.106810
O    0.612458  -2.046421  2.336671
H    0.453270  0.900852  0.831104
H    0.206578  -0.650584  -0.019315
H    1.783661  -0.289528  0.691836
N    -0.486251  -0.136863  2.953199
C    -0.778234  -0.594862  4.303533
C    -2.294238  -0.693938  4.588219
O    -2.818032  -0.117192  5.548444
H    -0.514693  0.878619  2.824240
H    -0.372184  -1.620358  4.342897
C    -0.022640  0.220990  5.373208
C    -0.502140  1.640140  5.727575
C    -0.372197  2.738821  4.695470
O    -0.257289  2.603795  3.492973
O    -0.435280  4.007140  5.192866
H    1.034201  0.242010  5.070656
H    -0.068447  -0.352018  6.309820
H    0.029052  1.959687  6.638509
H    -1.571101  1.578970  5.994515
N    -3.045715  -1.467863  3.758825
C    -2.646623  -2.283995  2.623262
H    -4.031466  -1.447243  4.002956
H    -2.713620  -1.730560  1.674218
H    -3.308644  -3.156616  2.567076
H    -1.617716  -2.644675  2.733180
H    -0.533674  3.974155  6.160162
