28
Energy: -19698.2100471 eV PBE+vdW (tier 2 basis)
C    -0.193534  -0.952620  0.271038
C    -0.194162  -0.518811  1.726142
O    0.816977  -0.588048  2.420174
H    0.845482  -0.995684  -0.066626
H    -0.761332  -0.277670  -0.383468
H    -0.628592  -1.957767  0.181778
N    -1.373492  -0.050156  2.247520
C    -2.683730  -0.008041  1.633903
C    -3.518764  1.006943  2.442438
O    -3.259805  1.261440  3.615705
H    -1.347240  0.257455  3.221015
H    -2.599595  0.359158  0.597913
C    -3.399980  -1.386880  1.586678
C    -3.526487  -2.085707  2.946529
C    -2.234290  -2.593992  3.555578
O    -1.922155  -2.484265  4.719997
O    -1.459811  -3.257063  2.644535
H    -2.859974  -2.037477  0.886606
H    -4.406234  -1.243020  1.164380
H    -4.178829  -2.965080  2.826018
H    -3.993300  -1.437908  3.698043
N    -4.569850  1.549251  1.766982
C    -5.506934  2.473544  2.380436
H    -4.682918  1.320058  0.786812
H    -6.532449  2.081332  2.343517
H    -5.480653  3.453217  1.884105
H    -5.209129  2.598630  3.426421
H    -0.642587  -3.500821  3.121576
