28
Energy: -19697.8517987 eV PBE+vdW (tier 2 basis)
C    -0.337681  -0.352380  -0.971467
C    0.286973  -0.073917  0.378203
O    1.501925  0.033690  0.520520
H    -1.060598  -1.173761  -0.915618
H    0.470992  -0.613705  -1.659236
H    -0.843114  0.543497  -1.359783
N    -0.527510  0.121956  1.484073
C    -1.953675  -0.075621  1.718346
C    -2.376353  -1.563384  1.732219
O    -1.873766  -2.393762  0.980547
H    0.038137  0.207899  2.324007
H    -2.115063  0.329588  2.727790
C    -2.884118  0.713890  0.772284
C    -2.554811  2.213527  0.721548
C    -2.593315  2.809453  2.122766
O    -3.598954  2.882695  2.790421
O    -1.401548  3.229351  2.638904
H    -3.915659  0.589903  1.129307
H    -2.851679  0.292069  -0.239363
H    -3.317380  2.730954  0.124279
H    -1.583524  2.380414  0.236150
N    -3.380428  -1.890777  2.599127
C    -3.979104  -1.071219  3.645219
H    -3.626621  -2.875652  2.568689
H    -4.854796  -1.599738  4.036483
H    -4.326188  -0.101498  3.265396
H    -3.290315  -0.891216  4.485117
H    -0.690045  3.037614  2.002213
