28
Energy: -19698.0507236 eV PBE+vdW (tier 2 basis)
C    -0.268535  0.129022  -0.022156
C    -0.090513  0.121168  1.486066
O    0.984969  0.359268  2.023335
H    0.015871  1.116818  -0.405089
H    -1.289196  -0.101429  -0.353517
H    0.422667  -0.601284  -0.460944
N    -1.223006  -0.174396  2.205866
C    -1.243420  -0.205919  3.658440
C    -0.805969  -1.523868  4.341595
O    -0.242945  -1.458720  5.430872
H    -2.082951  -0.353983  1.701441
H    -0.473803  0.501956  3.996780
C    -2.621937  0.218268  4.188034
C    -2.928272  1.693315  3.923658
C    -4.400097  2.016544  4.038684
O    -5.314319  1.240037  3.850728
O    -4.602639  3.325983  4.354931
H    -2.651723  0.019142  5.267353
H    -3.411432  -0.402392  3.735755
H    -2.633830  1.969069  2.896080
H    -2.353775  2.352952  4.586671
N    -1.073233  -2.733521  3.761990
C    -1.843272  -3.070195  2.576050
H    -0.724633  -3.503951  4.323778
H    -2.078222  -4.139836  2.616481
H    -1.293218  -2.877576  1.643819
H    -2.802165  -2.534772  2.541514
H    -5.571725  3.452327  4.369025
