28
Energy: -19698.2398487 eV PBE+vdW (tier 2 basis)
C    -0.633845  0.634101  0.339729
C    -0.466013  0.041919  1.722729
O    0.631773  -0.085632  2.261063
H    -0.224461  1.651866  0.344634
H    -1.675339  0.672044  -0.001215
H    -0.040448  0.047399  -0.372351
N    -1.629503  -0.359143  2.333366
C    -1.649450  -0.843157  3.705868
C    -2.367911  -2.202510  3.770221
O    -3.480539  -2.327554  4.309890
H    -2.510532  -0.193448  1.858182
H    -0.588031  -1.002468  3.946053
C    -2.225561  0.164013  4.735376
C    -3.148743  1.264257  4.197999
C    -4.413148  0.927289  3.401637
O    -4.908814  1.750133  2.657010
O    -4.989363  -0.276999  3.566378
H    -1.375325  0.672282  5.209671
H    -2.725357  -0.408807  5.527297
H    -2.589135  1.969050  3.570045
H    -3.501348  1.858150  5.056330
N    -1.747727  -3.273575  3.224690
C    -0.487393  -3.330267  2.499487
H    -2.312353  -4.118369  3.255731
H    -0.635013  -3.197581  1.417331
H    -0.019753  -4.305984  2.674444
H    0.203578  -2.553094  2.842037
H    -4.421035  -0.940699  4.055637
