28
Energy: -19698.0681467 eV PBE+vdW (tier 2 basis)
C    -0.128994  0.552660  0.391944
C    -0.149222  -0.063493  1.782512
O    0.869901  -0.170947  2.458538
H    0.914204  0.720150  0.112410
H    -0.656662  1.517089  0.384329
H    -0.602254  -0.097009  -0.358648
N    -1.360703  -0.508239  2.248430
C    -2.637548  -0.400744  1.577187
C    -3.115117  1.065399  1.442949
O    -2.933209  1.891237  2.333797
H    -1.356959  -0.880610  3.199774
H    -2.547941  -0.840056  0.571163
C    -3.731864  -1.218678  2.305069
C    -4.235732  -0.676589  3.650371
C    -3.401225  -1.051043  4.850676
O    -2.296231  -1.560520  4.834595
O    -4.040062  -0.746014  6.009248
H    -3.358318  -2.245481  2.428023
H    -4.594837  -1.277945  1.627036
H    -5.258842  -1.028999  3.843002
H    -4.295693  0.423593  3.638929
N    -3.802931  1.387485  0.304639
C    -4.017940  0.577440  -0.884432
H    -4.106870  2.355984  0.283182
H    -4.614844  1.160527  -1.593710
H    -4.577075  -0.343460  -0.666209
H    -3.074934  0.307973  -1.383537
H    -3.423389  -0.983499  6.729112
