28
Energy: -19697.833011 eV PBE+vdW (tier 2 basis)
C    0.940317  0.436699  0.486592
C    0.462427  -0.333756  1.694451
O    1.216690  -1.077568  2.339889
H    0.206151  1.154789  0.103549
H    1.182178  -0.278528  -0.310655
H    1.861635  0.966681  0.754089
N    -0.854990  -0.207161  2.002999
C    -1.445562  -0.745021  3.231107
C    -0.608349  -0.222031  4.440375
O    -0.499490  0.999381  4.532972
H    -1.390381  0.486805  1.496859
H    -2.361820  -0.153486  3.375007
C    -1.938208  -2.203198  3.106293
C    -1.006904  -3.253882  2.483221
C    -0.955599  -3.184455  0.958237
O    -1.931711  -3.304607  0.253357
O    0.279442  -3.027147  0.407501
H    -2.851408  -2.183501  2.492351
H    -2.261678  -2.533064  4.103841
H    -1.419442  -4.248840  2.707145
H    -0.002171  -3.208578  2.911805
N    -0.143650  -1.026783  5.444936
C    0.294978  -2.415777  5.420916
H    0.308952  -0.446676  6.147208
H    0.735897  -2.640352  6.398021
H    1.056696  -2.590531  4.648146
H    -0.538733  -3.111599  5.273915
H    0.901933  -2.735065  1.107242
