28
Energy: -19698.4087646 eV PBE+vdW (tier 2 basis)
C    1.228728  0.426286  1.679470
C    0.359960  0.368573  2.920794
O    0.746785  0.783181  4.013159
H    0.727549  0.062761  0.774285
H    2.131199  -0.172722  1.855289
H    1.550953  1.462666  1.521417
N    -0.890905  -0.156992  2.737107
C    -1.765559  -0.451254  3.854306
C    -2.387066  -1.833836  3.606159
O    -2.514775  -2.286994  2.467839
H    -1.123568  -0.651537  1.877846
H    -1.142502  -0.465567  4.760443
C    -2.885438  0.602305  4.025994
C    -2.380848  1.999531  4.387140
C    -1.774890  2.199587  5.760538
O    -1.248174  3.222486  6.135202
O    -1.912388  1.110051  6.581717
H    -3.594837  0.252781  4.789170
H    -3.442691  0.659888  3.079040
H    -3.208878  2.722387  4.320742
H    -1.627506  2.351412  3.669244
N    -2.803932  -2.476223  4.729467
C    -3.484166  -3.757669  4.704321
H    -2.623787  -2.031600  5.622630
H    -3.563104  -4.069410  3.657792
H    -4.493482  -3.681349  5.132308
H    -2.917897  -4.517252  5.260421
H    -1.476780  1.368510  7.417159
