28
Energy: -19698.2904178 eV PBE+vdW (tier 2 basis)
C    0.158330  -1.102891  0.106686
C    -0.286734  -0.543453  1.443777
O    -0.006512  -1.093545  2.508170
H    -0.292728  -2.094433  -0.026397
H    1.246392  -1.238334  0.126826
H    -0.109546  -0.471122  -0.749017
N    -1.007262  0.620580  1.379362
C    -1.598556  1.236168  2.562131
C    -3.122434  0.993483  2.485001
O    -3.807856  1.644053  1.690753
H    -1.328830  0.952321  0.475837
H    -1.145539  0.715313  3.413729
C    -1.261277  2.731682  2.624400
C    -1.517006  3.384177  3.998354
C    -2.976686  3.423796  4.389304
O    -3.524599  2.647123  5.147286
O    -3.635857  4.440437  3.773813
H    -1.825417  3.263026  1.844579
H    -0.191761  2.836305  2.395704
H    -1.135453  4.413441  3.970742
H    -0.982634  2.836093  4.784441
N    -3.643972  0.004049  3.252634
C    -3.003628  -0.714465  4.348536
H    -4.653923  -0.068553  3.169606
H    -3.629528  -1.576983  4.602643
H    -2.900548  -0.082069  5.243215
H    -2.020127  -1.094356  4.046938
H    -4.577322  4.340080  4.013957
