28
Energy: -19698.1435003 eV PBE+vdW (tier 2 basis)
C    0.255680  0.219978  0.033460
C    -0.021063  0.381476  1.510378
O    0.640382  1.157577  2.209607
H    1.285782  -0.135759  -0.093776
H    0.188834  1.203349  -0.447658
H    -0.429051  -0.473148  -0.469492
N    -1.044153  -0.362773  2.020471
C    -1.311655  -0.403387  3.461345
C    -2.294560  -1.530388  3.807285
O    -2.127337  -2.242240  4.789388
H    -1.416877  -1.112706  1.448277
H    -0.380665  -0.660858  3.987281
C    -1.840592  0.959821  3.987698
C    -1.500861  1.218479  5.454853
C    -0.055322  1.557043  5.846805
O    0.229131  1.732920  7.012057
O    0.887320  1.682865  4.891218
H    -2.933285  0.994688  3.860271
H    -1.438101  1.761164  3.355055
H    -1.789060  0.363085  6.083023
H    -2.097852  2.064572  5.824418
N    -3.359816  -1.663529  2.953069
C    -4.434158  -2.606939  3.219514
H    -3.539076  -0.914666  2.292202
H    -4.853963  -2.971092  2.274646
H    -5.237884  -2.157526  3.821956
H    -4.017352  -3.448427  3.781871
H    0.595428  1.482026  3.963537
