28
Energy: -19698.0803534 eV PBE+vdW (tier 2 basis)
C    -0.193995  1.603385  0.911150
C    0.030763  0.513009  1.938556
O    1.007232  0.491968  2.684085
H    0.701585  2.228637  0.877962
H    -1.057192  2.228877  1.179909
H    -0.394870  1.193858  -0.088108
N    -0.918918  -0.481450  2.010916
C    -2.203357  -0.538764  1.331771
C    -3.210470  0.575258  1.706460
O    -3.889020  1.089630  0.815674
H    -0.721362  -1.174310  2.728001
H    -2.052166  -0.381584  0.253188
C    -2.820588  -1.933474  1.536726
C    -4.089009  -2.166263  0.720450
C    -4.785637  -3.452069  1.098793
O    -4.565886  -4.119506  2.088613
O    -5.739100  -3.785221  0.184465
H    -3.042759  -2.100241  2.600954
H    -2.061372  -2.680435  1.260639
H    -3.885333  -2.176521  -0.359552
H    -4.813869  -1.348464  0.863131
N    -3.354922  0.959013  3.008310
C    -2.710952  0.476496  4.223784
H    -4.040438  1.701256  3.109471
H    -3.273207  0.867638  5.078825
H    -1.668881  0.811897  4.313942
H    -2.737033  -0.618314  4.294417
H    -6.156653  -4.603151  0.518043
