28
Energy: -19698.3544328 eV PBE+vdW (tier 2 basis)
C    0.567403  -2.553905  -0.047580
C    0.091666  -1.417915  0.837364
O    0.432806  -0.249839  0.651738
H    0.198142  -3.538983  0.262517
H    1.664232  -2.563884  -0.047509
H    0.242167  -2.357984  -1.076967
N    -0.746519  -1.779109  1.854225
C    -1.257067  -0.818559  2.810585
C    -1.419703  -1.562880  4.143784
O    -1.804068  -2.732074  4.173027
H    -0.990326  -2.749680  2.032483
H    -0.513917  -0.009319  2.888636
C    -2.598115  -0.216308  2.326826
C    -3.125843  0.923749  3.216062
C    -4.409872  1.484653  2.650674
O    -5.525616  1.079709  2.899684
O    -4.173800  2.504930  1.775231
H    -3.344851  -1.020952  2.266473
H    -2.425754  0.160979  1.309726
H    -2.375511  1.724366  3.283235
H    -3.352021  0.556292  4.224487
N    -1.137875  -0.831639  5.255625
C    -1.292253  -1.349605  6.603122
H    -0.776573  0.106139  5.128527
H    -0.326844  -1.390613  7.125876
H    -1.695556  -2.364121  6.522265
H    -1.988250  -0.731354  7.186225
H    -5.049084  2.770907  1.431660
