28
Energy: -19698.3230721 eV PBE+vdW (tier 2 basis)
C    -0.282327  -1.618166  0.057343
C    -0.049133  -1.399372  1.539997
O    0.898871  -1.897264  2.136407
H    -0.200896  -2.689147  -0.160978
H    0.514961  -1.109368  -0.500339
H    -1.252142  -1.248240  -0.298913
N    -0.988604  -0.610717  2.171595
C    -0.816164  -0.150606  3.544030
C    -1.959046  -0.588580  4.487320
O    -2.168842  0.000773  5.545614
H    -1.684427  -0.152748  1.593255
H    0.081954  -0.685191  3.895644
C    -0.538213  1.356181  3.646694
C    -1.700956  2.238976  3.199787
C    -1.380718  3.714990  3.264005
O    -0.325686  4.208711  3.598256
O    -2.456217  4.466728  2.883115
H    0.360232  1.582172  3.057163
H    -0.299948  1.583072  4.692550
H    -2.589808  2.063737  3.824766
H    -2.015516  2.033362  2.162697
N    -2.667481  -1.674742  4.073213
C    -3.690964  -2.298070  4.888529
H    -2.378786  -2.112432  3.205690
H    -4.620763  -2.428730  4.318888
H    -3.881265  -1.639425  5.742697
H    -3.364530  -3.278218  5.265578
H    -2.168585  5.397311  2.957399
