28
Energy: -19698.2903663 eV PBE+vdW (tier 2 basis)
C    0.167748  -0.088735  -0.004269
C    0.084652  -0.127345  1.508645
O    1.105690  -0.145256  2.207118
H    0.702880  -0.983648  -0.346093
H    0.764534  0.782013  -0.302079
H    -0.806754  -0.045342  -0.505356
N    -1.174484  -0.134568  2.028831
C    -1.556810  -0.260186  3.444560
C    -1.261206  0.980713  4.324651
O    -2.136104  1.396606  5.086656
H    -1.940318  -0.057179  1.371521
H    -2.653481  -0.305674  3.439074
C    -1.031705  -1.573154  4.068598
C    -1.697503  -1.945438  5.398837
C    -1.253674  -1.242207  6.666428
O    -1.923646  -1.156850  7.671522
O    0.026093  -0.771708  6.595547
H    0.058237  -1.532157  4.178894
H    -1.246149  -2.373067  3.344506
H    -1.511656  -3.014558  5.593076
H    -2.788909  -1.832983  5.354709
N    -0.019724  1.506122  4.212903
C    0.432208  2.588548  5.062276
H    0.650393  0.999159  3.624616
H    1.064480  3.279092  4.490508
H    1.009467  2.213903  5.922671
H    -0.443503  3.124417  5.443475
H    0.197956  -0.367335  7.467836
