28
Energy: -572076.321845 eV PBE+vdW (tier 2 basis)
N    0.652994  0.588604  0.757034
C    0.414257  -0.026458  1.969451
C    1.539307  -0.969273  2.457658
O    1.572297  -1.367282  3.601836
H    0.431788  1.566542  0.601842
H    1.125360  0.095537  0.003802
H    0.228788  0.711818  2.756428
C    -0.968909  -1.030294  1.961449
C    -2.029478  -0.542205  2.820242
C    -3.307163  -0.066376  2.368014
C    -2.095948  -0.533932  4.247012
N    -4.092215  0.153250  3.419037
C    -3.404097  -0.123580  4.610057
C    -1.168775  -0.841528  5.272882
C    -3.838094  -0.044567  5.917279
C    -1.605740  -0.765587  6.620171
C    -2.899218  -0.372530  6.932011
H    -0.587053  -1.994618  2.332060
H    -1.269490  -1.127638  0.914706
H    -3.657325  0.083787  1.349914
H    -5.055088  0.486706  3.364404
H    -0.106552  -0.951120  5.040872
H    -4.854737  0.251011  6.177106
H    -0.898513  -0.978560  7.420449
H    -3.204644  -0.291772  7.974400
O    2.385788  -1.281699  1.480628
H    3.085844  -1.879329  1.820488
Hg    -0.614564  -3.718028  5.018989
