28
Energy: -572076.413339 eV PBE+vdW (tier 2 basis)
N    -0.460692  0.183390  0.069448
C    -0.448340  -0.082355  1.458912
C    0.977167  0.109986  2.057998
O    1.271384  -0.373140  3.145456
H    -1.219150  0.750762  -0.299726
H    -0.197409  -0.570925  -0.563274
H    -1.049700  0.692198  1.965779
C    -0.950958  -1.509472  1.927923
C    -0.685868  -1.734181  3.361513
C    0.341143  -2.637884  3.872990
C    -1.402448  -1.287723  4.510213
N    0.245393  -2.708672  5.181918
C    -0.819633  -1.903771  5.648084
C    -2.531874  -0.459841  4.692208
C    -1.312295  -1.765815  6.923879
C    -3.053383  -0.307872  5.991888
C    -2.461781  -0.944661  7.078253
H    -0.459812  -2.274819  1.313342
H    -2.029460  -1.545343  1.723178
H    1.092347  -3.189233  3.313360
H    0.856398  -3.269004  5.778731
H    -3.043794  -0.006678  3.843580
H    -0.869912  -2.270908  7.782309
H    -3.941428  0.303668  6.143365
H    -2.890603  -0.826379  8.072750
O    1.799868  0.856033  1.371015
H    1.341899  1.095492  0.522072
Hg    -1.245057  2.578147  4.849834
