28
Energy: -572076.548244 eV PBE+vdW (tier 2 basis)
N    0.604810  -0.993428  0.260966
C    0.857746  -1.445220  1.552853
C    0.101144  -2.750088  1.955310
O    0.065327  -3.124703  3.114136
H    1.338396  -0.949034  -0.436533
H    -0.332897  -0.765988  -0.052172
H    1.920695  -1.724259  1.624801
C    0.553970  -0.349968  2.688357
C    0.506531  -0.879027  4.057378
C    1.616458  -1.518729  4.738866
C    -0.533912  -0.790449  5.023297
N    1.273222  -1.782133  5.986923
C    -0.048077  -1.351528  6.234352
C    -1.833018  -0.239035  4.998961
C    -0.774586  -1.378838  7.401688
C    -2.590469  -0.253469  6.168969
C    -2.076200  -0.803102  7.350309
H    -0.375812  0.172861  2.433123
H    1.376670  0.373096  2.586049
H    2.601900  -1.767329  4.353824
H    1.880739  -2.229942  6.672949
H    -2.237280  0.210104  4.092123
H    -0.376397  -1.774852  8.335283
H    -3.584522  0.190150  6.174623
H    -2.649967  -0.726108  8.273235
O    -0.423940  -3.379294  0.920329
H    -0.836963  -4.223020  1.207323
Hg    -3.423572  -3.773667  8.061680
