28
Energy: -572076.068374 eV PBE+vdW (tier 2 basis)
N    1.260077  0.086104  1.021539
C    0.344119  -0.001195  2.077620
C    1.140965  -0.099832  3.397559
O    2.017006  -0.927428  3.496029
H    2.049112  -0.559142  1.034692
H    0.919241  0.343752  0.098562
H    -0.354142  0.844040  2.022728
C    -0.674788  -1.341010  2.078707
C    -0.140610  -2.548589  2.686361
C    0.628986  -3.558109  1.995589
C    -0.233598  -2.997230  4.040313
N    0.962198  -4.514517  2.848064
C    0.462540  -4.226295  4.133840
C    -0.842656  -2.471586  5.198825
C    0.581966  -4.944579  5.303325
C    -0.725592  -3.178740  6.403563
C    -0.033697  -4.387784  6.457652
H    -0.933857  -1.475294  1.022756
H    -1.558511  -0.980969  2.619836
H    0.915443  -3.601334  0.948154
H    1.498248  -5.348290  2.605313
H    -1.407446  -1.540056  5.168555
H    1.115933  -5.892771  5.359640
H    -1.190267  -2.784969  7.305765
H    0.036477  -4.929064  7.400362
O    0.802739  0.703381  4.408001
H    0.138096  1.374179  4.161928
Hg    3.372794  2.396182  0.937351
