28
Energy: -572075.218826 eV PBE+vdW (tier 2 basis)
N    1.138610  0.651002  1.147607
C    1.380500  -0.354564  2.206033
C    2.865309  -0.662234  2.430277
O    3.755021  -0.617138  1.472522
H    0.184851  0.615139  0.774575
H    1.314592  1.606450  1.472305
H    1.029595  0.041008  3.175945
C    0.614579  -1.674112  1.895967
C    0.730738  -2.725160  2.961325
C    1.755739  -3.697790  3.045877
C    -0.114294  -2.957008  4.053497
N    1.563340  -4.478333  4.122815
C    0.417376  -4.063333  4.781459
C    -1.361538  -2.321327  4.538358
C    -0.169484  -4.573391  5.922144
C    -1.938751  -2.922906  5.766426
C    -1.368524  -3.984032  6.412923
H    0.974339  -2.078487  0.935950
H    -0.445881  -1.418238  1.749276
H    2.604249  -3.858765  2.387006
H    2.164839  -5.248456  4.403805
H    -2.145049  -2.327597  3.753119
H    0.271492  -5.421374  6.449545
H    -2.858757  -2.480540  6.150038
H    -1.827182  -4.392948  7.311616
O    3.228935  -1.059517  3.533580
H    -1.219385  -1.238129  4.726508
Hg    2.989742  0.212780  -0.399500
