28
Energy: -572076.412318 eV PBE+vdW (tier 2 basis)
N    0.799798  -0.347219  0.214408
C    0.027317  -0.154678  1.509323
C    1.135393  0.220310  2.579602
O    0.680924  0.456804  3.731354
H    0.596495  0.372202  -0.489104
H    0.648786  -1.268430  -0.215346
H    -0.628789  0.715642  1.386437
C    -0.760345  -1.400718  1.945621
C    -1.820815  -1.764622  0.967048
C    -3.032956  -1.045506  0.760681
C    -1.862090  -2.878369  0.077263
N    -3.763356  -1.668016  -0.174158
C    -3.092050  -2.807190  -0.633112
C    -0.994142  -3.969497  -0.167610
C    -3.481078  -3.754888  -1.560342
C    -1.370427  -4.930336  -1.106940
C    -2.586661  -4.826525  -1.792485
H    -1.187622  -1.148260  2.929904
H    -0.073155  -2.241706  2.117122
H    -3.400158  -0.155483  1.264117
H    -4.690078  -1.374294  -0.477274
H    -0.055855  -4.080818  0.377568
H    -4.432588  -3.699261  -2.088198
H    -0.717308  -5.778914  -1.302638
H    -2.862212  -5.591784  -2.516933
O    2.302509  0.234620  2.154855
H    1.806178  -0.238132  0.536182
Hg    2.657855  0.968056  4.949490
