28
Energy: -572075.884211 eV PBE+vdW (tier 2 basis)
N    0.158626  0.549094  0.209232
C    0.040715  0.189311  1.612445
C    1.441075  0.077428  2.277115
O    2.438971  -0.281663  1.669469
H    0.408078  1.529275  0.053961
H    -0.683108  0.317207  -0.327345
H    -0.538713  0.955103  2.160697
C    -0.698521  -1.174100  1.762548
C    -2.094733  -1.161936  1.228622
C    -2.522484  -1.738506  -0.000526
C    -3.264619  -0.644548  1.850461
N    -3.846645  -1.570084  -0.136409
C    -4.358114  -0.896403  0.977675
C    -3.509973  0.002251  3.087456
C    -5.652503  -0.514403  1.269640
C    -4.812720  0.399173  3.395736
C    -5.863599  0.147044  2.508680
H    -0.711167  -1.441997  2.829054
H    -0.106807  -1.949902  1.251514
H    -1.945074  -2.286582  -0.740000
H    -4.400825  -1.915092  -0.917928
H    -2.707498  0.163893  3.807262
H    -6.485859  -0.705622  0.594087
H    -5.018746  0.892944  4.343678
H    -6.875582  0.452632  2.771817
O    1.527961  0.312816  3.575753
H    0.704129  0.662281  3.965742
Hg    2.181074  -0.701526  -0.793272
