28
Energy: -572076.45015 eV PBE+vdW (tier 2 basis)
N    -0.651937  0.783840  1.059769
C    -0.194542  0.001574  2.222670
C    1.314879  -0.273286  2.059301
O    1.838140  -0.432724  0.956210
H    -0.296695  1.744237  1.084736
H    -1.672167  0.828047  1.020090
H    -0.341802  0.591208  3.142453
C    -0.942183  -1.394844  2.359892
C    -2.067649  -1.638656  1.394333
C    -3.431869  -1.428264  1.650879
C    -1.995217  -2.104118  0.054104
N    -4.162639  -1.717172  0.546543
C    -3.321258  -2.123214  -0.470044
C    -0.912478  -2.505801  -0.824286
C    -3.611382  -2.497174  -1.775284
C    -1.243412  -2.883700  -2.178447
C    -2.549330  -2.864109  -2.631381
H    -1.326210  -1.461451  3.384992
H    -0.204847  -2.204475  2.265842
H    -3.914579  -1.108224  2.570338
H    -5.177977  -1.681054  0.494378
H    -0.040306  -3.008992  -0.383601
H    -4.638339  -2.510959  -2.143511
H    -0.444477  -3.244067  -2.825725
H    -2.772510  -3.169472  -3.652286
O    2.058657  -0.404415  3.136483
H    1.588008  -0.199551  3.968426
Hg    0.206614  -0.519269  -0.816322
