28
Energy: -572075.186032 eV PBE+vdW (tier 2 basis)
N    0.633404  1.033803  1.613365
C    0.986089  -0.166022  2.423102
C    2.465784  -0.574155  2.275137
O    3.413361  0.269589  1.967522
H    0.382067  0.782705  0.651662
H    -0.156789  1.546947  2.011976
H    0.885136  0.128417  3.480310
C    0.024369  -1.347278  2.116810
C    0.212556  -2.593632  2.940199
C    0.987412  -3.714002  2.537226
C    -0.318333  -2.918231  4.188170
N    0.955997  -4.660551  3.488550
C    0.157549  -4.223306  4.533679
C    -1.226302  -2.220543  5.131314
C    -0.179843  -4.870953  5.703438
C    -1.550015  -2.979688  6.366031
C    -1.049861  -4.225400  6.628230
H    0.120938  -1.607407  1.051543
H    -1.003275  -0.978121  2.251884
H    1.538025  -3.865490  1.614175
H    1.427589  -5.560017  3.436373
H    -2.180116  -1.945619  4.636381
H    0.203185  -5.868596  5.925496
H    -2.220698  -2.501541  7.080797
H    -1.317063  -4.742363  7.548420
O    2.823867  -1.729307  2.506826
H    -0.820344  -1.235839  5.437135
Hg    2.763310  2.284601  1.478255
