28
Energy: -572076.520214 eV PBE+vdW (tier 2 basis)
N    -3.313153  -0.656491  0.167001
C    -2.494573  -0.456151  1.304718
C    -1.621234  0.828166  1.140052
O    -0.618817  1.015966  1.819064
H    -2.898258  -1.114751  -0.643193
H    -4.277087  -0.940344  0.320915
H    -3.147922  -0.228293  2.162693
C    -1.529820  -1.648313  1.717608
C    -0.629363  -1.256269  2.815941
C    0.769776  -0.890085  2.636177
C    -0.863058  -1.190985  4.213575
N    1.313376  -0.636480  3.807849
C    0.354727  -0.799291  4.837301
C    -1.987010  -1.473284  5.024201
C    0.502868  -0.676181  6.195584
C    -1.864332  -1.359004  6.404710
C    -0.646060  -0.974605  6.987235
H    -0.960214  -1.959452  0.832422
H    -2.178532  -2.480425  2.021311
H    1.338216  -0.839275  1.711316
H    2.283631  -0.354506  3.949110
H    -2.927827  -1.803458  4.583832
H    1.448883  -0.409333  6.665449
H    -2.709763  -1.600258  7.046674
H    -0.539294  -0.999124  8.071461
O    -2.060247  1.710877  0.280803
H    -2.861948  1.321471  -0.158172
Hg    -0.870963  2.045878  8.115360
