28
Energy: -572076.639783 eV PBE+vdW (tier 2 basis)
N    -0.360443  1.440718  2.954798
C    -0.131465  0.122233  2.357664
C    -0.400908  0.227876  0.851888
O    -1.232733  0.990461  0.372334
H    -0.157786  1.452445  3.958195
H    0.190792  2.178728  2.507222
H    0.907352  -0.210838  2.502863
C    -1.037145  -0.978446  3.028995
C    -2.489338  -1.019597  2.654559
C    -3.596539  -0.345632  3.351020
C    -3.088794  -1.840019  1.683084
N    -4.765045  -0.817611  2.840438
C    -4.513409  -1.704617  1.808012
C    -2.555703  -2.744620  0.720881
C    -5.400985  -2.412711  1.012674
C    -3.436712  -3.454949  -0.065303
C    -4.838234  -3.286808  0.075052
H    -0.926603  -0.862289  4.117514
H    -0.590239  -1.948412  2.777430
H    -3.570501  0.051981  4.365473
H    -5.688136  -0.579998  3.195394
H    -1.480020  -2.880250  0.613835
H    -6.480936  -2.314870  1.113655
H    -3.063234  -4.162574  -0.803536
H    -5.503131  -3.865976  -0.565844
O    0.342123  -0.615798  0.153020
H    0.157682  -0.514293  -0.806520
Hg    -2.722910  1.746866  2.353204
