28
Energy: -572076.361113 eV PBE+vdW (tier 2 basis)
N    -0.220662  0.072257  -0.017923
C    -0.469077  0.111413  1.478079
C    0.836691  0.816740  2.001608
O    0.831817  1.524229  3.095604
H    -0.596127  0.895406  -0.507198
H    -0.577853  -0.770934  -0.484508
H    -1.358101  0.732910  1.646717
C    -0.693649  -1.357349  1.949823
C    -0.617242  -1.714157  3.413001
C    0.252393  -2.705746  3.892488
C    -1.346915  -1.266427  4.548208
N    0.094031  -2.869995  5.225388
C    -0.870077  -1.998079  5.682338
C    -2.341429  -0.224967  4.799213
C    -1.354320  -1.809507  6.968628
C    -2.825470  -0.056847  6.153447
C    -2.337746  -0.822194  7.194528
H    0.060660  -1.975954  1.440449
H    -1.673835  -1.671994  1.553955
H    0.971667  -3.304367  3.340324
H    0.602519  -3.542310  5.794701
H    -3.045267  0.036533  3.999379
H    -0.983537  -2.410309  7.800508
H    -3.616395  0.671680  6.329241
H    -2.725618  -0.677792  8.201404
O    1.831215  0.690699  1.295743
H    0.842285  0.121722  -0.059499
Hg    -0.858961  1.386338  4.382352
