28
Energy: -572076.432712 eV PBE+vdW (tier 2 basis)
N    0.376984  2.379069  3.781114
C    0.179660  1.524335  2.550618
C    1.302356  2.114680  1.584839
O    1.535475  1.637035  0.399327
H    1.231042  2.975766  3.450409
H    0.612883  1.849305  4.626740
H    0.501538  0.507090  2.811625
C    -1.315036  1.494534  2.074658
C    -1.876301  0.111400  1.830027
C    -2.225435  -0.810540  2.831003
C    -2.082060  -0.564269  0.602969
N    -2.589558  -1.990751  2.276271
C    -2.496752  -1.897270  0.903529
C    -1.917006  -0.200215  -0.810360
C    -2.710510  -2.858407  -0.071937
C    -2.140926  -1.242982  -1.797249
C    -2.505596  -2.520042  -1.431142
H    -1.444982  2.133092  1.189374
H    -1.932640  1.978500  2.845786
H    -2.239990  -0.682775  3.909794
H    -2.898069  -2.809542  2.794668
H    -2.330433  0.776163  -1.113476
H    -3.029747  -3.867598  0.193682
H    -2.070987  -0.975103  -2.851329
H    -2.679582  -3.274986  -2.196127
O    1.999624  3.001654  2.073235
H    -0.415175  2.997498  3.988704
Hg    0.115227  0.525358  -0.648753
