28
Energy: -572076.328872 eV PBE+vdW (tier 2 basis)
N    -0.688238  0.040731  0.350028
C    -0.210861  -0.164148  1.645284
C    1.356351  -0.343012  1.646480
O    1.924235  -0.907282  0.749680
H    -1.149443  0.915679  0.123580
H    -0.157167  -0.380902  -0.412371
H    -0.501287  0.651686  2.315120
C    -0.706111  -1.585604  2.309680
C    -2.137397  -1.525590  2.558353
C    -2.754524  -1.274834  3.835733
C    -3.202193  -1.609980  1.625560
N    -4.074461  -1.236867  3.691498
C    -4.418931  -1.427803  2.338197
C    -3.245609  -1.863822  0.234685
C    -5.653785  -1.482729  1.736851
C    -4.489607  -1.892169  -0.404764
C    -5.668046  -1.728772  0.326671
H    -0.130109  -1.728053  3.231158
H    -0.423471  -2.352999  1.578033
H    -2.280760  -1.147810  4.806529
H    -4.738264  -1.113388  4.455863
H    -2.338384  -2.103381  -0.317100
H    -6.586370  -1.392845  2.293358
H    -4.546034  -2.111533  -1.469559
H    -6.629196  -1.884549  -0.163190
O    1.866810  0.193669  2.751924
H    2.843171  0.085352  2.746444
Hg    -7.222318  1.168957  -0.045727
