28
Energy: -572076.587978 eV PBE+vdW (tier 2 basis)
N    -0.238141  -0.494287  -0.043950
C    -0.557495  -0.308162  1.293667
C    0.380450  0.678646  2.045776
O    0.493908  0.677998  3.261265
H    -0.929062  -0.373312  -0.775177
H    0.686768  -0.789490  -0.339295
H    -1.558047  0.147708  1.362173
C    -0.613346  -1.682306  2.167544
C    -0.914904  -1.415684  3.572275
C    0.073676  -1.376019  4.660175
C    -2.149482  -1.032380  4.172146
N    -0.519300  -0.972558  5.766600
C    -1.897717  -0.753306  5.540797
C    -3.463846  -0.902180  3.673881
C    -2.876842  -0.355910  6.422529
C    -4.470318  -0.497202  4.549614
C    -4.184721  -0.229109  5.894484
H    0.342516  -2.203248  2.038778
H    -1.406471  -2.267725  1.689564
H    1.142927  -1.556103  4.603192
H    -0.049339  -0.841165  6.662025
H    -3.698536  -1.125741  2.633162
H    -2.675333  -0.144987  7.472137
H    -5.492256  -0.392453  4.189351
H    -4.988967  0.082607  6.560435
O    0.969211  1.530091  1.228024
H    1.512008  2.174153  1.734519
Hg    -0.320471  -4.476353  4.664921
