28
Energy: -572076.556981 eV PBE+vdW (tier 2 basis)
N    0.191077  -1.079243  0.307838
C    -0.012521  -0.450762  1.556666
C    1.354284  -0.188525  2.236068
O    1.911471  -1.024741  2.932056
H    -0.074721  -0.573279  -0.532347
H    0.980073  -1.706716  0.186313
H    -0.542512  0.496172  1.398841
C    -0.911383  -1.280572  2.607255
C    -0.284112  -2.538675  2.995669
C    0.531246  -2.759144  4.198693
C    -0.133318  -3.711520  2.215651
N    1.136764  -3.928962  4.097530
C    0.771786  -4.572988  2.893411
C    -0.665064  -4.100077  0.963346
C    1.179389  -5.780418  2.378754
C    -0.248664  -5.316990  0.418826
C    0.643181  -6.141025  1.113972
H    -1.862273  -1.439750  2.084727
H    -1.082760  -0.618891  3.464925
H    0.710128  -2.079367  5.025979
H    1.778090  -4.312114  4.791545
H    -1.410220  -3.487688  0.457362
H    1.880772  -6.436605  2.893073
H    -0.642894  -5.645766  -0.541273
H    0.931928  -7.099296  0.682257
O    1.837875  0.998448  1.914171
H    2.729691  1.126708  2.305160
Hg    -2.237489  -3.343840  5.477357
