28
Energy: -572075.074465 eV PBE+vdW (tier 2 basis)
N    0.057965  -0.271609  1.256046
C    0.655227  0.281899  2.490376
C    2.187547  0.417758  2.399456
O    2.791232  0.706085  1.270969
H    0.173557  -1.286299  1.178634
H    -0.937648  -0.051456  1.172305
H    0.295261  1.321425  2.566073
C    0.183865  -0.420456  3.809537
C    0.567764  -1.849015  4.070466
C    1.878842  -2.355884  4.272327
C    -0.300298  -2.919448  4.337398
N    1.822025  -3.653104  4.623036
C    0.496821  -4.051472  4.684513
C    -1.776268  -3.051916  4.394325
C    -0.033010  -5.277545  5.033360
C    -2.275989  -4.401198  4.758796
C    -1.446310  -5.444957  5.060045
H    -0.910212  -0.328239  3.834948
H    0.554567  0.208972  4.630618
H    2.827936  -1.833586  4.196021
H    2.628430  -4.236798  4.831223
H    -2.263869  -2.738928  3.450952
H    0.615747  -6.115010  5.297203
H    -3.357638  -4.535669  4.795423
H    -1.857491  -6.414552  5.335800
O    2.891483  0.325814  3.398056
H    -2.202424  -2.335284  5.128030
Hg    1.507888  0.739474  -0.475936
