28
Energy: -572075.191551 eV PBE+vdW (tier 2 basis)
N    1.241566  0.324833  1.115838
C    0.119134  0.278437  2.070948
C    0.499478  0.823236  3.461357
O    1.369724  1.789648  3.604457
H    1.930649  -0.416874  1.267566
H    0.931151  0.288558  0.141418
H    -0.633491  0.990452  1.693642
C    -0.620507  -1.111410  2.136965
C    0.082860  -2.279263  2.755903
C    0.960847  -3.166757  2.092474
C    -0.073551  -2.799337  4.055578
N    1.347670  -4.153231  2.927153
C    0.728200  -3.970125  4.153501
C    -0.881277  -2.395279  5.221518
C    0.802766  -4.743689  5.299355
C    -0.762072  -3.262808  6.407615
C    0.046244  -4.371040  6.440388
H    -0.904655  -1.351541  1.102889
H    -1.560279  -0.925476  2.670805
H    1.296029  -3.158797  1.058474
H    1.958996  -4.926909  2.680106
H    -1.954950  -2.289540  4.962292
H    1.428658  -5.637555  5.333491
H    -1.351952  -2.993092  7.284479
H    0.105540  -4.984858  7.337543
O    -0.060628  0.419920  4.475865
H    -0.639534  -1.346574  5.509649
Hg    2.378385  2.416072  1.778731
