36
Energy: -23361.4053673 eV PBE+vdW (tier 2 basis)
C    -4.240477  -1.623768  2.999833
C    -2.897443  -1.572689  2.299699
O    -2.754755  -1.881445  1.117302
H    -4.156928  -1.715266  4.090317
H    -4.822124  -2.461197  2.601797
H    -4.778423  -0.691139  2.776179
N    -1.865398  -1.117581  3.075513
C    -0.549471  -0.845969  2.546363
C    0.486465  -1.291607  3.583241
O    0.299937  -1.114267  4.787245
H    -2.004407  -0.922896  4.061659
H    -0.469955  -1.419589  1.611394
C    -0.332521  0.669061  2.224692
C    -1.416361  1.234602  1.365885
C    -1.465064  1.228511  -0.010195
C    -2.676999  1.766359  1.811935
N    -2.677532  1.724278  -0.440720
C    -3.450094  2.055598  0.650349
C    -3.239596  2.017888  3.075731
C    -4.747132  2.571024  0.722518
C    -4.529075  2.529805  3.152255
C    -5.277181  2.800847  1.987727
H    0.648490  0.777230  1.737992
H    -0.272329  1.215142  3.178155
H    -0.727507  0.882096  -0.726551
H    -2.968431  1.791699  -1.405905
H    -2.674974  1.810369  3.985226
H    -5.325881  2.780752  -0.177425
H    -4.973981  2.726651  4.127498
H    -6.287435  3.198382  2.080668
N    1.625026  -1.831593  3.066183
C    2.744192  -2.251643  3.888588
H    1.659445  -1.996742  2.067500
H    3.671633  -1.750233  3.579894
H    2.892696  -3.339492  3.837724
H    2.513590  -1.975179  4.922736
