36
Energy: -23361.349052 eV PBE+vdW (tier 2 basis)
C    -0.986989  1.012295  0.906769
C    -1.301875  0.525276  2.306334
O    -1.153632  1.277501  3.276748
H    -1.393707  0.376357  0.110637
H    -1.367290  2.032582  0.789657
H    0.106788  1.043505  0.803298
N    -1.743294  -0.766331  2.376998
C    -1.882546  -1.700074  3.511077
C    -2.680003  -1.279920  4.768676
O    -3.220653  -2.179263  5.420864
H    -1.811285  -1.227033  1.477179
H    -2.496818  -2.520359  3.116740
C    -0.519892  -2.330656  3.934507
C    0.537943  -1.339043  4.290954
C    0.700647  -0.696330  5.498327
C    1.520924  -0.782252  3.400645
N    1.719682  0.228581  5.403195
C    2.243726  0.205804  4.130003
C    1.860953  -1.009594  2.055767
C    3.272536  0.956800  3.556104
C    2.883281  -0.264153  1.480000
C    3.580867  0.710972  2.222128
H    -0.168657  -2.964266  3.106319
H    -0.740258  -3.006402  4.772657
H    0.146910  -0.817495  6.423405
H    2.027826  0.833404  6.151605
H    1.329816  -1.759960  1.468433
H    3.812574  1.711423  4.128501
H    3.156036  -0.435541  0.438702
H    4.376624  1.280487  1.742966
N    -2.706709  0.022795  5.106372
C    -3.385686  0.472304  6.304994
H    -2.116053  0.668422  4.554224
H    -3.534790  1.555914  6.243892
H    -2.809628  0.243847  7.216274
H    -4.358708  -0.025448  6.397594
