36
Energy: -23361.1086011 eV PBE+vdW (tier 2 basis)
C    0.472592  -0.834900  1.352624
C    0.000745  0.315510  2.230015
O    0.763719  1.213763  2.579852
H    1.523716  -0.659610  1.109603
H    -0.103537  -0.897669  0.418174
H    0.383846  -1.803810  1.863856
N    -1.314310  0.315731  2.608016
C    -2.315190  -0.696449  2.362854
C    -3.682202  0.007993  2.352518
O    -3.853769  1.075933  2.932590
H    -1.625335  1.106675  3.171584
H    -2.130613  -1.155799  1.380484
C    -2.313929  -1.845147  3.429491
C    -2.701483  -1.424125  4.809890
C    -3.956101  -1.549150  5.366125
C    -1.877881  -0.782423  5.802763
N    -3.958973  -1.025490  6.641224
C    -2.701258  -0.547046  6.941880
C    -0.529765  -0.384400  5.853337
C    -2.220673  0.062380  8.103892
C    -0.048368  0.220863  7.007021
C    -0.883538  0.443254  8.120422
H    -1.302581  -2.278340  3.431736
H    -2.987415  -2.643473  3.084091
H    -4.860286  -1.971392  4.939628
H    -4.760033  -0.991037  7.255828
H    0.130306  -0.527310  4.998987
H    -2.868396  0.236854  8.963524
H    0.992368  0.540284  7.049182
H    -0.475577  0.926168  9.007974
N    -4.713038  -0.638298  1.726325
C    -4.637500  -1.766761  0.811232
H    -5.580821  -0.112403  1.757491
H    -5.647609  -1.981355  0.446996
H    -4.267001  -2.676131  1.303875
H    -4.002631  -1.558598  -0.063688
