36
Energy: -23361.1929479 eV PBE+vdW (tier 2 basis)
C    0.445663  -0.722448  0.507704
C    -0.022551  0.210946  1.609677
O    0.735575  0.967537  2.204015
H    1.345792  -1.247269  0.847573
H    0.728336  -0.119789  -0.365546
H    -0.307449  -1.458258  0.198667
N    -1.366147  0.143836  1.908560
C    -2.006903  1.116835  2.793835
C    -1.674209  0.873232  4.285674
O    -1.717150  1.789561  5.102971
H    -1.966970  -0.382831  1.283297
H    -1.604880  2.115652  2.569799
C    -3.524861  1.077635  2.519018
C    -4.348701  2.250622  2.958613
C    -4.023245  3.290937  3.801105
C    -5.701004  2.484970  2.522362
N    -5.095093  4.155404  3.904427
C    -6.140899  3.693298  3.136816
C    -6.586305  1.798050  1.673593
C    -7.417724  4.218283  2.924086
C    -7.858586  2.317297  1.460064
C    -8.270345  3.514476  2.078597
H    -3.938825  0.144854  2.943149
H    -3.642587  0.986334  1.424357
H    -3.111097  3.454521  4.364435
H    -5.108291  4.989741  4.473998
H    -6.286022  0.867779  1.189269
H    -7.737484  5.144611  3.402321
H    -8.552742  1.791454  0.804728
H    -9.273937  3.895874  1.892315
N    -1.395118  -0.417216  4.610077
C    -1.013843  -0.817850  5.949461
H    -1.257282  -1.060720  3.838793
H    -1.548806  -1.728978  6.247697
H    -1.280920  -0.003075  6.630602
H    0.068996  -0.996700  6.026859
