36
Energy: -23361.034968 eV PBE+vdW (tier 2 basis)
C    1.033646  0.566662  2.211108
C    0.122289  -0.644074  2.240570
O    0.549603  -1.794438  2.322796
H    2.063571  0.215489  2.110792
H    0.942919  1.146878  3.140516
H    0.793765  1.251040  1.385884
N    -1.229697  -0.405753  2.186727
C    -1.910263  0.875735  2.087073
C    -1.754097  1.816377  3.305063
O    -1.625746  3.024424  3.111619
H    -1.793716  -1.251309  2.166844
H    -1.478641  1.468151  1.264929
C    -3.405657  0.677324  1.790008
C    -3.719224  -0.028727  0.504490
C    -2.865150  -0.390315  -0.515292
C    -5.036537  -0.439361  0.094013
N    -3.579427  -0.993232  -1.532150
C    -4.912954  -1.043844  -1.189665
C    -6.310109  -0.351076  0.682417
C    -6.011716  -1.558931  -1.882226
C    -7.405256  -0.862805  -0.003479
C    -7.257630  -1.460834  -1.271254
H    -3.867795  1.677048  1.791119
H    -3.875819  0.135169  2.629207
H    -1.789829  -0.279256  -0.599287
H    -3.175357  -1.373120  -2.376741
H    -6.440915  0.113719  1.660257
H    -5.900019  -2.019903  -2.863905
H    -8.397703  -0.800783  0.442226
H    -8.136099  -1.852203  -1.783429
N    -1.776231  1.304329  4.571656
C    -1.984656  -0.056990  5.048062
H    -1.662126  2.029476  5.273039
H    -2.839969  -0.537275  4.556327
H    -2.211647  -0.006814  6.119017
H    -1.101486  -0.695404  4.910865
