36
Energy: -23361.1379422 eV PBE+vdW (tier 2 basis)
C    -1.275670  -1.571188  1.592043
C    -0.763948  -1.299857  2.993718
O    -0.136242  -2.138468  3.634826
H    -0.916948  -2.560189  1.296093
H    -0.917841  -0.828597  0.865616
H    -2.373026  -1.563637  1.568411
N    -1.021586  -0.064757  3.544808
C    -1.794466  1.052798  3.014627
C    -1.003726  2.340586  3.334036
O    -1.274464  3.039210  4.308642
H    -0.691288  0.021442  4.503695
H    -1.860490  0.922248  1.926494
C    -3.229352  1.149443  3.579727
C    -4.126795  0.040913  3.127413
C    -4.992367  0.094526  2.055715
C    -4.244497  -1.287416  3.674592
N    -5.627852  -1.121955  1.899655
C    -5.197198  -1.990185  2.880588
C    -3.642446  -1.959137  4.753711
C    -5.554230  -3.317564  3.134450
C    -3.993587  -3.277764  5.008740
C    -4.939071  -3.950793  4.208446
H    -3.644537  2.117915  3.265521
H    -3.169765  1.194440  4.676102
H    -5.213386  0.921247  1.387981
H    -6.341724  -1.323037  1.213432
H    -2.900810  -1.459624  5.375676
H    -6.284991  -3.838181  2.514854
H    -3.524497  -3.807319  5.837116
H    -5.190071  -4.986889  4.433756
N    0.032851  2.651226  2.498729
C    0.560343  1.868986  1.392850
H    0.565792  3.458115  2.808222
H    1.352481  2.448679  0.907515
H    -0.209104  1.669037  0.633890
H    0.987142  0.910375  1.722826
