36
Energy: -23361.0186876 eV PBE+vdW (tier 2 basis)
C    -1.518426  1.253093  -1.153070
C    -0.761397  1.705965  0.081874
O    0.187391  2.483070  0.004320
H    -1.279114  0.205510  -1.381644
H    -1.194124  1.880289  -1.987608
H    -2.607910  1.333525  -1.043224
N    -1.150511  1.214173  1.304182
C    -2.274542  0.363252  1.667360
C    -2.297711  -0.932874  0.813322
O    -1.297606  -1.636881  0.725907
H    -0.586660  1.579999  2.064571
H    -2.031556  -0.015267  2.672081
C    -3.613660  1.138367  1.806381
C    -3.570985  2.208225  2.854726
C    -3.961546  2.059405  4.168765
C    -3.104792  3.564738  2.719770
N    -3.760630  3.239352  4.854761
C    -3.240593  4.184659  3.995935
C    -2.594300  4.325841  1.652860
C    -2.883585  5.516177  4.226406
C    -2.240010  5.649245  1.877482
C    -2.381639  6.238882  3.150080
H    -4.404249  0.421012  2.077632
H    -3.893136  1.582228  0.837028
H    -4.380164  1.193553  4.672093
H    -3.981660  3.392195  5.828803
H    -2.459639  3.886996  0.665384
H    -2.992422  5.971496  5.211121
H    -1.833740  6.241311  1.058288
H    -2.089133  7.278605  3.293676
N    -3.485648  -1.248168  0.220713
C    -3.646761  -2.426685  -0.609984
H    -4.247334  -0.584083  0.272855
H    -4.559550  -2.971813  -0.336954
H    -2.776163  -3.070084  -0.446271
H    -3.693406  -2.166058  -1.677953
