36
Energy: -23361.0264305 eV PBE+vdW (tier 2 basis)
C    -0.922355  0.939746  0.853184
C    -0.279608  0.757556  2.212406
O    0.348443  1.651069  2.776939
H    -0.579108  1.891008  0.438996
H    -2.018225  0.960021  0.937217
H    -0.672753  0.122464  0.163349
N    -0.424711  -0.473261  2.811275
C    -1.248068  -1.592654  2.378994
C    -2.771308  -1.319195  2.330556
O    -3.413266  -1.676937  1.345049
H    0.009140  -0.523639  3.729349
H    -1.016599  -1.838461  1.332767
C    -0.895265  -2.836027  3.234364
C    -1.735247  -4.038716  2.941826
C    -1.556587  -4.929943  1.907066
C    -2.923993  -4.455007  3.636725
N    -2.564083  -5.870719  1.920180
C    -3.421194  -5.610273  2.966969
C    -3.620318  -3.978221  4.761083
C    -4.573829  -6.281357  3.383356
C    -4.766550  -4.642388  5.178961
C    -5.240560  -5.781088  4.496232
H    -0.982683  -2.579125  4.301916
H    0.169325  -3.053078  3.058831
H    -0.784377  -4.959765  1.145372
H    -2.662710  -6.626805  1.257187
H    -3.270001  -3.099964  5.303232
H    -4.939417  -7.162830  2.856072
H    -5.311995  -4.280352  6.050269
H    -6.144095  -6.278433  4.847491
N    -3.382312  -0.685448  3.375643
C    -2.838552  -0.170991  4.622831
H    -4.379837  -0.577138  3.222178
H    -3.676673  0.034116  5.298237
H    -2.269117  0.759366  4.487090
H    -2.193667  -0.903494  5.125819
