36
Energy: -23361.2029451 eV PBE+vdW (tier 2 basis)
C    0.807573  -0.278448  0.659250
C    0.273741  0.107352  2.025188
O    1.000940  0.515182  2.926441
H    1.799391  -0.726714  0.776072
H    0.917146  0.637978  0.062401
H    0.152735  -0.971020  0.115530
N    -1.086397  -0.034921  2.179801
C    -1.785312  0.585023  3.302777
C    -1.597138  2.131453  3.221646
O    -1.513041  2.680785  2.123611
H    -1.620213  -0.130258  1.323874
H    -2.858143  0.426297  3.108764
C    -1.437672  -0.134019  4.631645
C    -2.336123  0.181888  5.791796
C    -3.683425  -0.089862  5.907885
C    -1.958657  0.852204  7.011478
N    -4.157351  0.375081  7.118841
C    -3.127949  0.961797  7.820202
C    -0.746921  1.381431  7.496993
C    -3.115183  1.575173  9.075905
C    -0.733747  1.995114  8.743180
C    -1.903985  2.090787  9.524352
H    -0.393789  0.085650  4.884349
H    -1.473349  -1.211369  4.412425
H    -4.352582  -0.589249  5.214664
H    -5.111890  0.292157  7.440349
H    0.166484  1.310144  6.905399
H    -4.018426  1.648918  9.682060
H    0.197979  2.407460  9.129285
H    -1.858052  2.576495  10.498565
N    -1.591277  2.818859  4.386979
C    -1.455284  4.263387  4.415198
H    -1.700440  2.324833  5.265973
H    -1.371893  4.584091  5.458970
H    -2.321286  4.759430  3.953400
H    -0.557310  4.577331  3.866983
