36
Energy: -23361.2383087 eV PBE+vdW (tier 2 basis)
C    0.065807  -1.250917  2.270356
C    -0.666306  0.019980  2.643617
O    -0.130076  0.886340  3.328376
H    0.230820  -1.829513  3.189764
H    1.047228  -0.962642  1.878268
H    -0.441409  -1.880018  1.534638
N    -1.994072  0.186835  2.274571
C    -2.843905  -0.512170  1.309146
C    -3.014481  -2.025521  1.592365
O    -3.267052  -2.825433  0.693774
H    -2.326581  1.100921  2.571520
H    -3.854158  -0.109925  1.498906
C    -2.561588  -0.214565  -0.185500
C    -1.214619  -0.596057  -0.709811
C    -0.867334  -1.809588  -1.263144
C    -0.022752  0.211459  -0.716964
N    0.470384  -1.802493  -1.602090
C    1.019634  -0.578431  -1.283750
C    0.279952  1.512938  -0.279763
C    2.326209  -0.104345  -1.427424
C    1.577858  1.987203  -0.418338
C    2.590547  1.188552  -0.987392
H    -3.344050  -0.732502  -0.755490
H    -2.722593  0.863909  -0.332806
H    -1.481201  -2.690330  -1.415794
H    0.961580  -2.566785  -2.044452
H    -0.485514  2.136645  0.182141
H    3.111150  -0.723501  -1.862812
H    1.823579  2.990488  -0.072000
H    3.599674  1.589119  -1.079266
N    -2.955700  -2.360959  2.909411
C    -3.105451  -3.722387  3.380652
H    -2.688638  -1.629795  3.559684
H    -2.150977  -4.130923  3.745076
H    -3.450078  -4.331631  2.538417
H    -3.844942  -3.776086  4.190577
