36
Energy: -23361.4483051 eV PBE+vdW (tier 2 basis)
C    -1.649963  2.370066  2.257134
C    -1.042758  1.437489  3.286648
O    -0.262255  1.828088  4.158383
H    -2.517238  2.871445  2.710230
H    -1.989525  1.851246  1.352047
H    -0.913915  3.135430  1.990993
N    -1.451703  0.141586  3.203349
C    -1.048802  -0.873070  4.146529
C    -1.333946  -2.230061  3.485896
O    -2.095566  -2.338627  2.525213
H    -2.099416  -0.174875  2.485288
H    0.032291  -0.766566  4.334140
C    -1.775848  -0.745447  5.525799
C    -3.266065  -0.692249  5.421256
C    -4.132142  -1.760624  5.334854
C    -4.075449  0.493662  5.315017
N    -5.426165  -1.305850  5.181345
C    -5.428100  0.072454  5.163310
C    -3.794457  1.871565  5.341552
C    -6.484642  0.977714  5.029404
C    -4.842741  2.773822  5.207680
C    -6.173140  2.333071  5.050585
H    -1.394256  0.170253  5.996157
H    -1.458649  -1.582828  6.165476
H    -3.922248  -2.824960  5.357418
H    -6.242856  -1.893837  5.091665
H    -2.771231  2.227746  5.463613
H    -7.513924  0.637266  4.912144
H    -4.636434  3.843895  5.227488
H    -6.971910  3.067078  4.947281
N    -0.712761  -3.292180  4.071112
C    -0.893124  -4.658882  3.619931
H    -0.061174  -3.109346  4.824978
H    -1.262877  -5.299698  4.432519
H    0.045715  -5.080828  3.234642
H    -1.630723  -4.643950  2.810927
