36
Energy: -23361.2705551 eV PBE+vdW (tier 2 basis)
C    -0.118453  -1.030727  0.305487
C    -0.029065  -0.295638  1.633741
O    1.043672  -0.139746  2.214977
H    0.898310  -1.273813  -0.013614
H    -0.602331  -0.417615  -0.468056
H    -0.692600  -1.963532  0.394654
N    -1.191982  0.203481  2.154225
C    -2.544881  0.056151  1.672124
C    -3.354543  1.218773  2.288748
O    -2.920979  1.873733  3.232737
H    -1.110006  0.772501  2.998271
H    -2.569327  0.146833  0.573768
C    -3.182069  -1.318853  2.065009
C    -3.406150  -1.470230  3.534960
C    -2.444908  -1.721131  4.490993
C    -4.642349  -1.271265  4.243514
N    -3.015912  -1.690047  5.745950
C    -4.360472  -1.413789  5.633556
C    -5.963446  -0.994234  3.851007
C    -5.345231  -1.278275  6.615495
C    -6.945874  -0.857005  4.824087
C    -6.639601  -0.994570  6.193328
H    -2.517941  -2.108179  1.686001
H    -4.132710  -1.442143  1.523790
H    -1.382455  -1.904784  4.370714
H    -2.517001  -1.830104  6.613537
H    -6.219914  -0.891592  2.795825
H    -5.109693  -1.387955  7.674340
H    -7.972875  -0.643667  4.527988
H    -7.431039  -0.879722  6.933235
N    -4.573529  1.437226  1.727370
C    -5.532891  2.363721  2.304252
H    -4.886019  0.812991  0.993761
H    -6.177472  2.766366  1.514618
H    -4.982336  3.184219  2.775645
H    -6.154153  1.878334  3.072639
