36
Energy: -23361.1089836 eV PBE+vdW (tier 2 basis)
C    -0.221511  -0.014041  -0.107609
C    -0.304243  0.879400  1.117927
O    0.454171  1.829496  1.292527
H    -0.465017  0.585182  -0.994394
H    -0.893544  -0.880565  -0.069547
H    0.811380  -0.363619  -0.223281
N    -1.266463  0.534681  2.028745
C    -1.629290  1.395252  3.143220
C    -0.511772  1.794663  4.125616
O    -0.570540  2.907605  4.644253
H    -1.970060  -0.148139  1.757156
H    -1.975184  2.366774  2.759732
C    -2.778439  0.731242  3.947625
C    -3.944744  0.341790  3.097026
C    -4.325288  -0.941298  2.761299
C    -4.868250  1.224845  2.431312
N    -5.428940  -0.902762  1.930910
C    -5.788471  0.410896  1.711393
C    -5.013845  2.622499  2.382345
C    -6.831282  0.951279  0.953765
C    -6.049502  3.162651  1.630427
C    -6.947014  2.336797  0.923388
H    -3.080271  1.450481  4.722131
H    -2.389894  -0.154687  4.472360
H    -3.903405  -1.890900  3.075761
H    -5.918962  -1.711219  1.574152
H    -4.329218  3.272865  2.927016
H    -7.528726  0.314686  0.408796
H    -6.173634  4.244083  1.584127
H    -7.748387  2.792861  0.342823
N    0.444074  0.895206  4.509189
C    0.762005  -0.429448  4.004067
H    1.115200  1.319543  5.142177
H    1.297678  -0.399319  3.042844
H    1.402510  -0.929397  4.740495
H    -0.139229  -1.039432  3.879561
