36
Energy: -23360.9949823 eV PBE+vdW (tier 2 basis)
C    -0.052082  -0.076887  0.218165
C    -0.136133  0.345892  1.673830
O    0.759315  0.978300  2.227025
H    0.147774  0.809814  -0.395208
H    -0.957479  -0.572358  -0.154225
H    0.801086  -0.756801  0.099088
N    -1.289572  -0.017249  2.325394
C    -1.431341  0.163081  3.773234
C    -2.443659  -0.835998  4.353852
O    -2.115316  -1.594160  5.259989
H    -1.892645  -0.690698  1.867670
H    -0.477461  -0.112666  4.241783
C    -1.708687  1.642759  4.169724
C    -1.649725  1.859677  5.649142
C    -0.504386  2.068298  6.386296
C    -2.736477  1.823626  6.591291
N    -0.818490  2.162489  7.726381
C    -2.178669  2.018008  7.889068
C    -4.127742  1.658229  6.478925
C    -2.961100  2.044171  9.046302
C    -4.910302  1.683151  7.626547
C    -4.333210  1.872047  8.898590
H    -2.676319  1.975073  3.770217
H    -0.935560  2.239306  3.668581
H    0.523981  2.150821  6.049712
H    -0.152514  2.313365  8.471048
H    -4.592768  1.516539  5.503611
H    -2.514633  2.192323  10.029997
H    -5.989778  1.555617  7.546650
H    -4.972753  1.884908  9.780658
N    -3.711473  -0.898061  3.820531
C    -4.410003  0.013762  2.928671
H    -4.285167  -1.572480  4.320754
H    -5.049151  0.724923  3.476483
H    -5.047020  -0.557397  2.239747
H    -3.701578  0.591912  2.328869
