36
Energy: -23361.5329832 eV PBE+vdW (tier 2 basis)
C    -5.940141  -4.422021  3.025019
C    -5.493143  -2.987785  2.815799
O    -6.126476  -2.198059  2.111605
H    -6.943452  -4.418093  3.469013
H    -5.266864  -5.003082  3.666846
H    -6.017442  -4.912500  2.046797
N    -4.348907  -2.627837  3.463541
C    -3.764409  -1.316040  3.306212
C    -2.258908  -1.452027  3.561403
O    -1.804042  -2.374143  4.243891
H    -3.779947  -3.296043  3.978978
H    -3.949048  -0.983806  2.274269
C    -4.414347  -0.279613  4.275988
C    -4.008288  1.131772  4.005872
C    -3.238212  1.945977  4.806336
C    -4.299106  1.891444  2.815442
N    -3.032741  3.162626  4.182380
C    -3.671476  3.162673  2.959772
C    -5.036790  1.621813  1.646855
C    -3.758113  4.153952  1.977997
C    -5.120747  2.606204  0.669702
C    -4.488399  3.856169  0.832080
H    -4.168456  -0.566600  5.308307
H    -5.501530  -0.392729  4.153669
H    -2.811847  1.747214  5.784211
H    -2.536545  3.946397  4.583121
H    -5.541743  0.663220  1.516619
H    -3.276068  5.123884  2.103611
H    -5.690189  2.413262  -0.239028
H    -4.576675  4.605810  0.046152
N    -1.498001  -0.480381  2.995937
C    -0.077234  -0.345673  3.250902
H    -1.982958  0.277961  2.526707
H    0.267056  -1.267528  3.730536
H    0.133411  0.501807  3.920751
H    0.471774  -0.200225  2.311707
