36
Energy: -23361.0181474 eV PBE+vdW (tier 2 basis)
C    -1.884180  0.510119  -0.246758
C    -1.063278  0.328880  1.017188
O    0.162417  0.265105  1.002875
H    -1.523552  1.399658  -0.776941
H    -2.961678  0.612972  -0.066847
H    -1.713444  -0.353848  -0.901469
N    -1.786362  0.249618  2.181103
C    -1.145729  -0.069343  3.458679
C    -2.130297  -0.840832  4.358656
O    -1.916420  -2.019735  4.633401
H    -2.794719  0.177424  2.117345
H    -0.357176  -0.801854  3.242495
C    -0.479705  1.170865  4.108103
C    -0.097816  0.984242  5.545829
C    0.461738  -0.129408  6.136609
C    -0.268863  1.953923  6.595441
N    0.646356  0.098809  7.485616
C    0.205193  1.363503  7.803663
C    -0.777242  3.264671  6.640652
C    0.175301  2.036311  9.027975
C    -0.811233  3.935849  7.857290
C    -0.340518  3.328305  9.039128
H    -1.153679  2.032575  4.021598
H    0.395431  1.415566  3.487583
H    0.724106  -1.088870  5.704630
H    1.014406  -0.576601  8.140892
H    -1.132914  3.754670  5.733137
H    0.542438  1.568646  9.942004
H    -1.202362  4.952103  7.901634
H    -0.378035  3.881456  9.977127
N    -3.276896  -0.223983  4.791047
C    -3.621694  1.191233  4.826596
H    -3.814317  -0.834645  5.400725
H    -4.709401  1.281172  4.931768
H    -3.340502  1.692124  3.893791
H    -3.143444  1.720825  5.664418
