36
Energy: -23361.0389664 eV PBE+vdW (tier 2 basis)
C    -0.413477  -0.330800  -0.001118
C    -0.211659  0.239994  1.393697
O    0.602117  1.131554  1.613739
H    0.547235  -0.332999  -0.525826
H    -1.096640  0.333570  -0.548420
H    -0.835891  -1.344013  -0.007262
N    -1.001729  -0.346135  2.354300
C    -1.255962  0.150396  3.696470
C    -2.291184  1.302532  3.657510
O    -2.506362  1.951287  2.640041
H    -1.687414  -1.004906  2.006219
H    -1.698177  -0.697136  4.243265
C    0.028995  0.572804  4.462300
C    1.013275  -0.542633  4.606764
C    2.137268  -0.744841  3.837804
C    0.952512  -1.639826  5.535861
N    2.776554  -1.901747  4.237760
C    2.078203  -2.476848  5.277227
C    0.070398  -2.001160  6.569713
C    2.330838  -3.639324  6.009586
C    0.316777  -3.158735  7.299243
C    1.434600  -3.970765  7.021309
H    -0.276095  0.929916  5.456419
H    0.481007  1.418023  3.934310
H    2.516635  -0.146461  3.016345
H    3.633406  -2.259588  3.839432
H    -0.792602  -1.378084  6.808049
H    3.198416  -4.265647  5.799340
H    -0.361192  -3.444881  8.103223
H    1.602168  -4.871574  7.610985
N    -2.971400  1.565461  4.819284
C    -2.910650  0.886430  6.101401
H    -3.592184  2.364527  4.735823
H    -3.846761  1.068500  6.641795
H    -2.078563  1.232993  6.734479
H    -2.815281  -0.199288  5.972870
