36
Energy: -23361.3882711 eV PBE+vdW (tier 2 basis)
C    -2.408079  -3.699542  -0.332746
C    -2.164330  -2.426996  0.453906
O    -2.127332  -1.321557  -0.092083
H    -3.406629  -3.646606  -0.785226
H    -2.341680  -4.611402  0.272810
H    -1.679538  -3.753058  -1.150533
N    -2.026461  -2.595025  1.801988
C    -1.638076  -1.523691  2.699279
C    -0.349871  -1.963343  3.417880
O    -0.161061  -3.141483  3.720699
H    -1.883760  -3.530825  2.173470
H    -1.451936  -0.640900  2.069685
C    -2.713691  -1.206093  3.760970
C    -3.976083  -0.582879  3.249249
C    -4.254677  -0.102545  1.987951
C    -5.151550  -0.345415  4.045994
N    -5.535194  0.417616  1.962692
C    -6.114277  0.284754  3.205104
C    -5.487440  -0.599993  5.386966
C    -7.379876  0.655817  3.666219
C    -6.746415  -0.232697  5.848943
C    -7.682573  0.388487  4.998054
H    -2.258229  -0.544417  4.518587
H    -2.945497  -2.142416  4.295670
H    -3.643688  -0.112452  1.089255
H    -5.980058  0.812574  1.146123
H    -4.773583  -1.079858  6.057621
H    -8.105179  1.137306  3.009527
H    -7.018135  -0.426843  6.886374
H    -8.661227  0.664653  5.389793
N    0.514647  -0.956369  3.715902
C    1.743891  -1.162168  4.459349
H    0.289001  -0.024260  3.389355
H    1.805791  -2.227433  4.704606
H    1.747528  -0.578918  5.390603
H    2.621271  -0.883023  3.859966
