36
Energy: -23361.4711032 eV PBE+vdW (tier 2 basis)
C    -2.443170  -3.095781  -0.049759
C    -1.530338  -2.318863  0.875922
O    -0.303003  -2.499009  0.879434
H    -2.143205  -2.896152  -1.086307
H    -3.504433  -2.846767  0.070270
H    -2.302335  -4.168689  0.129935
N    -2.142459  -1.431193  1.697597
C    -1.465709  -0.477554  2.567676
C    -0.942578  -1.094129  3.901473
O    -1.152207  -0.566573  4.994873
H    -3.156000  -1.337111  1.667345
H    -0.559823  -0.143637  2.034711
C    -2.379815  0.752144  2.807845
C    -3.854150  0.471549  2.837197
C    -4.723911  0.723323  1.793823
C    -4.654416  -0.094862  3.898316
N    -6.005775  0.350438  2.143183
C    -5.998553  -0.152212  3.427872
C    -4.373858  -0.545222  5.201653
C    -7.048927  -0.643732  4.208348
C    -5.417329  -1.032271  5.978843
C    -6.738784  -1.083266  5.490284
H    -2.181848  1.481140  2.010613
H    -2.058800  1.201320  3.757008
H    -4.522037  1.166557  0.823561
H    -6.826004  0.468020  1.564852
H    -3.353270  -0.512388  5.580650
H    -8.070889  -0.678452  3.829673
H    -5.212397  -1.382942  6.990204
H    -7.532162  -1.471731  6.128539
N    -0.200180  -2.212055  3.722223
C    0.427273  -2.916077  4.822519
H    -0.001453  -2.488990  2.753526
H    0.246801  -3.995942  4.739249
H    -0.003177  -2.547665  5.759469
H    1.513919  -2.743226  4.846380
