36
Energy: -23361.4487184 eV PBE+vdW (tier 2 basis)
C    -1.148723  -1.507468  0.891983
C    -0.619073  -0.653937  2.026097
O    0.584465  -0.649560  2.321451
H    -0.454805  -1.450730  0.046511
H    -2.154467  -1.222790  0.559856
H    -1.179209  -2.552174  1.231110
N    -1.548841  0.087471  2.685352
C    -1.373537  0.781143  3.967972
C    -0.563162  2.097798  3.914492
O    -0.998619  3.100498  4.482849
H    -2.508763  -0.023525  2.383634
H    -2.379800  1.109269  4.250629
C    -0.831696  -0.147211  5.092924
C    -1.598088  -1.423579  5.206704
C    -1.167402  -2.667968  4.803488
C    -2.948279  -1.594020  5.676551
N    -2.169665  -3.599647  4.999131
C    -3.274876  -2.974548  5.537054
C    -3.913418  -0.720560  6.209211
C    -4.518486  -3.490408  5.911239
C    -5.152491  -1.230131  6.579191
C    -5.452108  -2.599640  6.431518
H    -0.886288  0.433055  6.026335
H    0.227689  -0.363443  4.909117
H    -0.210810  -2.958479  4.380968
H    -2.084928  -4.591653  4.826816
H    -3.692669  0.339469  6.340265
H    -4.750904  -4.550198  5.802308
H    -5.907048  -0.562898  6.995001
H    -6.432081  -2.968341  6.733226
N    0.624388  2.028634  3.264890
C    1.521457  3.161674  3.164530
H    0.895020  1.115225  2.882613
H    1.779008  3.364885  2.115817
H    2.451557  2.986800  3.725314
H    1.015387  4.036110  3.587414
