36
Energy: -23361.0514132 eV PBE+vdW (tier 2 basis)
C    1.045548  -0.847327  0.517563
C    0.675773  -0.658389  1.976045
O    1.523280  -0.679672  2.871789
H    2.011282  -0.366642  0.332006
H    0.297540  -0.448371  -0.178829
H    1.156285  -1.924163  0.325403
N    -0.657523  -0.519815  2.217928
C    -1.278018  -0.397036  3.537812
C    -1.028373  1.024396  4.119889
O    -1.684909  1.948135  3.632517
H    -1.276435  -0.470813  1.419649
H    -2.353410  -0.343949  3.324298
C    -1.079743  -1.646932  4.429459
C    -1.700017  -2.868305  3.820270
C    -3.019792  -3.254716  3.914917
C    -1.055477  -3.838203  2.973204
N    -3.230502  -4.399920  3.171030
C    -2.045662  -4.786198  2.582557
C    0.263972  -4.012244  2.516578
C    -1.757527  -5.872803  1.751557
C    0.552781  -5.091296  1.690270
C    -0.446564  -6.010303  1.308429
H    -1.543833  -1.434146  5.404199
H    -0.015688  -1.827228  4.611536
H    -3.836596  -2.798289  4.465189
H    -4.107975  -4.896045  3.101413
H    1.048838  -3.314529  2.808719
H    -2.528609  -6.587502  1.462231
H    1.572275  -5.236596  1.333127
H    -0.186261  -6.846054  0.659445
N    -0.168579  1.258822  5.149803
C    0.847618  0.420101  5.774582
H    -0.173994  2.241968  5.405907
H    0.428014  -0.234220  6.553050
H    1.579926  1.081241  6.251525
H    1.369460  -0.178138  5.019641
