36
Energy: -23361.2344025 eV PBE+vdW (tier 2 basis)
C    0.116129  -1.028973  0.476188
C    -0.075882  0.155766  1.411345
O    0.693970  1.113370  1.410141
H    0.985709  -0.820443  -0.152268
H    -0.759731  -1.190702  -0.167984
H    0.296922  -1.958916  1.033609
N    -1.156315  0.117693  2.253588
C    -2.109676  -0.959947  2.442377
C    -3.441351  -0.309230  2.853467
O    -3.458018  0.542749  3.743538
H    -1.255640  0.910481  2.885848
H    -2.219871  -1.506275  1.498505
C    -1.667411  -1.954667  3.555481
C    -2.596209  -3.113405  3.717683
C    -3.555433  -3.269464  4.693536
C    -2.721439  -4.249582  2.841780
N    -4.265987  -4.433319  4.473834
C    -3.779442  -5.060779  3.346860
C    -2.051119  -4.661161  1.675686
C    -4.172254  -6.249279  2.725634
C    -2.441565  -5.841002  1.053689
C    -3.490720  -6.626620  1.572927
H    -1.587941  -1.386731  4.492624
H    -0.653704  -2.301691  3.304621
H    -3.792168  -2.624135  5.533096
H    -5.001689  -4.787073  5.069513
H    -1.234646  -4.066806  1.263668
H    -4.982009  -6.859745  3.126153
H    -1.928214  -6.170041  0.150605
H    -3.771871  -7.547564  1.063170
N    -4.575647  -0.709525  2.220258
C    -4.723984  -1.689970  1.153170
H    -5.410276  -0.242245  2.560736
H    -5.785089  -1.744597  0.888462
H    -4.399486  -2.691969  1.462049
H    -4.172086  -1.398665  0.247676
