36
Energy: -23361.0223226 eV PBE+vdW (tier 2 basis)
C    -0.072222  1.178841  0.119986
C    0.076714  0.831919  1.586722
O    1.105823  1.052065  2.222428
H    0.906922  1.481845  -0.259091
H    -0.782609  2.006044  -0.019645
H    -0.452436  0.332946  -0.468368
N    -1.005482  0.243819  2.201162
C    -2.344831  0.049899  1.666081
C    -3.122550  1.347672  1.344997
O    -3.714677  1.450145  0.273137
H    -0.847705  0.049217  3.186432
H    -2.283546  -0.450652  0.689710
C    -3.147147  -0.870520  2.620271
C    -4.490602  -1.253531  2.093572
C    -5.701418  -0.692444  2.431532
C    -4.765409  -2.240789  1.084438
N    -6.710033  -1.277075  1.694113
C    -6.171004  -2.230445  0.856427
C    -3.966351  -3.134532  0.351225
C    -6.784597  -3.079022  -0.068414
C    -4.572607  -3.979315  -0.570490
C    -5.966452  -3.951513  -0.778493
H    -3.254741  -0.380571  3.600098
H    -2.533559  -1.770469  2.787479
H    -5.922457  0.097559  3.141798
H    -7.688759  -1.032793  1.749744
H    -2.886235  -3.167830  0.500277
H    -7.862393  -3.058287  -0.231633
H    -3.963385  -4.675856  -1.145917
H    -6.411334  -4.625223  -1.510202
N    -3.161681  2.362064  2.265110
C    -2.489187  2.510839  3.547991
H    -3.673977  3.165774  1.915221
H    -2.923217  3.378259  4.058065
H    -1.406967  2.675724  3.447837
H    -2.650709  1.641964  4.198945
