36
Energy: -23361.0952963 eV PBE+vdW (tier 2 basis)
C    -1.299245  -1.656805  1.348640
C    -0.594521  -0.572770  2.147087
O    0.535432  -0.733127  2.600475
H    -1.532690  -1.330269  0.325270
H    -2.242497  -1.963613  1.822059
H    -0.629447  -2.518918  1.297715
N    -1.263898  0.612034  2.334573
C    -2.642467  0.928040  1.995764
C    -2.763543  2.360876  1.416817
O    -3.605103  3.157975  1.828526
H    -0.798834  1.235292  2.991379
H    -2.945555  0.248722  1.183627
C    -3.617085  0.718993  3.179909
C    -3.167384  1.331245  4.472116
C    -3.439636  2.605467  4.922299
C    -2.363163  0.703596  5.489813
N    -2.857456  2.798874  6.157987
C    -2.188940  1.654329  6.537755
C    -1.767659  -0.563100  5.625219
C    -1.453710  1.372354  7.691968
C    -1.035690  -0.847376  6.770939
C    -0.880268  0.109141  7.794433
H    -3.737802  -0.366088  3.316683
H    -4.595546  1.119094  2.885984
H    -3.999022  3.395065  4.433801
H    -2.912773  3.650825  6.698458
H    -1.863696  -1.311875  4.838745
H    -1.331034  2.113372  8.482521
H    -0.563589  -1.823385  6.878735
H    -0.296917  -0.143671  8.679345
N    -1.908855  2.709077  0.408324
C    -0.966540  1.891255  -0.341337
H    -2.061965  3.660060  0.088318
H    -0.735640  2.410230  -1.278469
H    -1.398059  0.916523  -0.605829
H    -0.029639  1.717757  0.204079
