36
Energy: -23361.349435 eV PBE+vdW (tier 2 basis)
C    0.292536  1.876470  -0.086719
C    0.053556  1.653589  1.393517
O    0.633849  2.340038  2.244930
H    1.357956  1.717326  -0.295480
H    0.065348  2.922359  -0.326746
H    -0.298397  1.221692  -0.738420
N    -0.829227  0.664434  1.704776
C    -1.188671  0.189691  3.050129
C    -2.066317  1.186306  3.853544
O    -3.197676  0.865859  4.213711
H    -1.290900  0.202398  0.931461
H    -1.857400  -0.664177  2.890962
C    0.043202  -0.303721  3.853788
C    -0.355034  -0.952416  5.139690
C    -0.394490  -0.361192  6.382588
C    -0.847566  -2.293038  5.312470
N    -0.875976  -1.258383  7.314463
C    -1.164865  -2.453744  6.692112
C    -1.048923  -3.377778  4.441920
C    -1.666738  -3.650494  7.209544
C    -1.549533  -4.569633  4.952119
C    -1.855892  -4.704453  6.321348
H    0.723832  0.536077  4.036923
H    0.588821  -1.017055  3.216508
H    -0.124780  0.648836  6.672558
H    -1.009711  -1.062441  8.296457
H    -0.814891  -3.289395  3.379983
H    -1.904831  -3.756614  8.268298
H    -1.710450  -5.416907  4.285839
H    -2.248620  -5.651262  6.690983
N    -1.471575  2.372611  4.143429
C    -2.162943  3.422142  4.864164
H    -0.578024  2.568204  3.678844
H    -1.482985  3.901810  5.580267
H    -3.004156  2.973865  5.403793
H    -2.559119  4.195391  4.187448
