36
Energy: -23360.956667 eV PBE+vdW (tier 2 basis)
C    -0.767975  1.558516  0.221026
C    -0.456076  1.122584  1.642335
O    0.471316  1.614253  2.278406
H    -0.701122  2.650354  0.170938
H    -1.753974  1.238361  -0.138821
H    -0.000917  1.141427  -0.446414
N    -1.239796  0.093060  2.101610
C    -1.230739  -0.453754  3.446128
C    -1.916753  0.519943  4.440984
O    -2.150020  1.689192  4.164724
H    -2.026698  -0.163352  1.520361
H    -1.855238  -1.359390  3.395574
C    0.181913  -0.910418  3.913339
C    0.667166  -2.129697  3.190855
C    0.413834  -3.435785  3.554076
C    1.438495  -2.192458  1.975340
N    0.970359  -4.300504  2.631093
C    1.610546  -3.570207  1.652779
C    2.024090  -1.224807  1.137864
C    2.323331  -3.995866  0.527888
C    2.733590  -1.645814  0.020170
C    2.879278  -3.014875  -0.285525
H    0.141637  -1.114634  4.990936
H    0.867222  -0.066335  3.778125
H    -0.119963  -3.823372  4.416507
H    0.956367  -5.308804  2.693201
H    1.930509  -0.164381  1.369851
H    2.443182  -5.055083  0.297817
H    3.194550  -0.904526  -0.632575
H    3.443056  -3.309834  -1.170280
N    -2.289844  -0.003770  5.655259
C    -2.202570  -1.365556  6.149429
H    -2.702796  0.693682  6.266807
H    -3.030723  -1.547739  6.845348
H    -1.258693  -1.571656  6.679728
H    -2.298934  -2.090497  5.331701
