36
Energy: -23361.0486126 eV PBE+vdW (tier 2 basis)
C    -1.659316  0.488331  -0.739638
C    -0.915200  -0.061654  0.460069
O    -0.017270  -0.893589  0.340382
H    -1.068810  0.256391  -1.629957
H    -1.846884  1.567125  -0.686492
H    -2.637691  -0.004222  -0.833811
N    -1.289066  0.359829  1.717587
C    -2.186644  1.441479  2.118776
C    -3.573384  1.364999  1.437048
O    -4.046661  2.311705  0.812451
H    -0.679854  -0.015418  2.439553
H    -2.375321  1.270083  3.192119
C    -1.573259  2.855093  1.997572
C    -0.491852  3.112356  3.001184
C    -0.655542  3.786377  4.192685
C    0.891313  2.706521  2.954171
N    0.536965  3.815408  4.887982
C    1.507645  3.166930  4.155160
C    1.681831  2.016141  2.016491
C    2.859347  2.951244  4.437705
C    3.025745  1.800962  2.293873
C    3.609145  2.260952  3.491784
H    -2.387220  3.580681  2.122210
H    -1.198623  2.998060  0.973816
H    -1.541784  4.265232  4.596953
H    0.684135  4.277209  5.774510
H    1.254219  1.645018  1.086462
H    3.310484  3.311220  5.362902
H    3.640638  1.261930  1.573934
H    4.665979  2.073336  3.679627
N    -4.273314  0.200723  1.589869
C    -3.917521  -1.002608  2.324948
H    -5.169266  0.217909  1.112862
H    -4.836175  -1.560884  2.538783
H    -3.448988  -0.758470  3.287061
H    -3.231242  -1.653993  1.765487
