36
Energy: -23361.3357521 eV PBE+vdW (tier 2 basis)
C    0.093867  -0.125598  0.018857
C    0.074169  -0.109171  1.534430
O    1.123618  -0.154506  2.188313
H    0.568658  -1.057514  -0.313070
H    0.719166  0.703474  -0.334098
H    -0.898288  -0.049429  -0.442090
N    -1.161306  -0.042261  2.104982
C    -1.475605  -0.079747  3.543560
C    -1.086186  1.233817  4.277606
O    -1.959877  1.930885  4.800605
H    -1.951683  0.048042  1.479308
H    -2.571448  -0.085956  3.594741
C    -0.949567  -1.364875  4.209097
C    -1.446404  -1.617561  5.600507
C    -2.299510  -0.862924  6.377315
C    -1.096496  -2.772535  6.386248
N    -2.497627  -1.489239  7.593924
C    -1.774077  -2.660261  7.634322
C    -0.277967  -3.891923  6.157784
C    -1.652559  -3.623290  8.639317
C    -0.154108  -4.851934  7.155935
C    -0.833891  -4.719197  8.383330
H    0.150158  -1.360716  4.199851
H    -1.245603  -2.205656  3.558562
H    -2.764400  0.095475  6.169636
H    -3.062033  -1.121084  8.346533
H    0.256120  -4.006369  5.213773
H    -2.177888  -3.522490  9.589569
H    0.479633  -5.723089  6.990894
H    -0.716152  -5.488308  9.146307
N    0.238272  1.508779  4.303993
C    0.774386  2.699016  4.932757
H    0.846735  0.907415  3.737830
H    1.578260  2.436297  5.633609
H    -0.035737  3.191111  5.480920
H    1.175129  3.401505  4.186994
