36
Energy: -23361.2104422 eV PBE+vdW (tier 2 basis)
C    -0.785021  1.382048  0.465417
C    -0.197664  0.454436  1.518795
O    0.956062  0.586066  1.922600
H    -1.053605  0.841404  -0.452948
H    -0.029420  2.133811  0.223518
H    -1.690183  1.889502  0.828955
N    -1.010793  -0.531280  2.008551
C    -2.351560  -0.875768  1.599879
C    -3.037855  -1.546390  2.807068
O    -2.393543  -2.015105  3.739510
H    -0.622443  -1.114362  2.750063
H    -2.904053  0.042733  1.343955
C    -2.404876  -1.826299  0.356852
C    -1.891238  -3.207652  0.606487
C    -2.662096  -4.314006  0.891724
C    -0.519369  -3.646555  0.645219
N    -1.851997  -5.409443  1.103437
C    -0.532401  -5.036524  0.959037
C    0.720489  -3.013791  0.443075
C    0.637312  -5.792546  1.073053
C    1.885018  -3.762405  0.554211
C    1.845510  -5.136325  0.866555
H    -1.831775  -1.343508  -0.448626
H    -3.446293  -1.875940  0.002916
H    -3.741372  -4.402812  0.963047
H    -2.175371  -6.339676  1.328623
H    0.777777  -1.949350  0.220375
H    0.605788  -6.854666  1.317649
H    2.849145  -3.276711  0.407642
H    2.778289  -5.693103  0.951960
N    -4.397659  -1.613164  2.722965
C    -5.213323  -2.277029  3.722406
H    -4.855879  -1.163692  1.939576
H    -5.885654  -1.569097  4.226899
H    -4.534401  -2.709482  4.464581
H    -5.814392  -3.080868  3.274545
