36
Energy: -23361.2451879 eV PBE+vdW (tier 2 basis)
C    -0.567153  0.379443  0.916999
C    -1.158511  0.258921  2.308073
O    -0.503034  0.540978  3.307098
H    -1.072810  -0.215775  0.149617
H    0.487191  0.089087  0.973760
H    -0.600278  1.434471  0.611465
N    -2.454032  -0.208949  2.439770
C    -3.504272  -0.298398  1.421824
C    -3.306750  -1.454873  0.411727
O    -3.852119  -1.439568  -0.689185
H    -2.775932  -0.115642  3.399685
H    -4.406963  -0.586068  1.984494
C    -3.832225  1.037250  0.710665
C    -4.206445  2.105964  1.685174
C    -3.392060  3.104093  2.172230
C    -5.462674  2.236645  2.376354
N    -4.071807  3.849201  3.116000
C    -5.344546  3.342739  3.267517
C    -6.678969  1.532323  2.328071
C    -6.394251  3.751509  4.094457
C    -7.723700  1.934399  3.151826
C    -7.582602  3.031322  4.026011
H    -4.647930  0.833613  0.004551
H    -2.978580  1.353863  0.097611
H    -2.362074  3.339502  1.924584
H    -3.691006  4.639033  3.618066
H    -6.806884  0.688971  1.648008
H    -6.288958  4.601794  4.768811
H    -8.671544  1.397558  3.121622
H    -8.420893  3.322402  4.658317
N    -2.549213  -2.487008  0.872459
C    -2.291159  -3.681564  0.094508
H    -2.122937  -2.370905  1.785812
H    -2.638055  -4.580586  0.622465
H    -1.219591  -3.792131  -0.124997
H    -2.839524  -3.588388  -0.849095
