36
Energy: -23360.988932 eV PBE+vdW (tier 2 basis)
C    -0.021087  0.695673  0.215340
C    -0.133085  0.054526  1.587977
O    0.785038  -0.580398  2.097439
H    0.330434  -0.058622  -0.498536
H    -0.959021  1.130645  -0.152380
H    0.740647  1.484690  0.258199
N    -1.335567  0.225932  2.219863
C    -1.593712  -0.241232  3.577927
C    -1.317188  -1.748642  3.799276
O    -0.739294  -2.109398  4.822362
H    -2.052593  0.779168  1.765255
H    -0.883111  0.244264  4.263347
C    -3.030030  0.169417  3.953928
C    -3.422429  0.069199  5.396430
C    -2.697503  -0.386942  6.476034
C    -4.701260  0.487436  5.909021
N    -3.455572  -0.270168  7.624256
C    -4.689115  0.258816  7.315355
C    -5.855440  1.034897  5.322784
C    -5.783723  0.557372  8.130152
C    -6.947509  1.332602  6.130713
C    -6.912367  1.096112  7.519321
H    -3.746418  -0.405306  3.340465
H    -3.150145  1.222346  3.638449
H    -1.703766  -0.821009  6.504026
H    -3.153794  -0.559204  8.544141
H    -5.899407  1.224371  4.249333
H    -5.757580  0.376197  9.205076
H    -7.847925  1.756282  5.686285
H    -7.784015  1.339742  8.126132
N    -1.780616  -2.671268  2.903619
C    -2.406294  -2.507972  1.603374
H    -1.491677  -3.610514  3.159507
H    -1.685220  -2.248505  0.812786
H    -3.190052  -1.742377  1.624446
H    -2.885637  -3.456580  1.333787
