36
Energy: -23361.0172689 eV PBE+vdW (tier 2 basis)
C    0.196589  1.237041  0.548114
C    0.146861  0.335336  1.762958
O    1.068600  0.255055  2.571427
H    1.210584  1.635642  0.463242
H    -0.512790  2.070201  0.647056
H    -0.071400  0.704358  -0.374275
N    -0.994268  -0.415944  1.943246
C    -2.215626  -0.430227  1.150067
C    -3.031088  0.888929  1.188820
O    -3.266938  1.474884  0.130685
H    -0.957247  -1.003009  2.772243
H    -1.951719  -0.507139  0.085306
C    -3.037845  -1.678499  1.541528
C    -4.455902  -1.693856  1.057615
C    -4.935378  -1.337194  -0.184844
C    -5.600143  -2.081477  1.838831
N    -6.306004  -1.486297  -0.215596
C    -6.749757  -1.934505  1.008920
C    -5.775187  -2.536603  3.158091
C    -8.041013  -2.218464  1.460633
C    -7.058514  -2.816839  3.611954
C    -8.180024  -2.659102  2.772744
H    -3.049642  -1.762583  2.638606
H    -2.481418  -2.560507  1.184410
H    -4.407932  -0.947477  -1.048271
H    -6.895105  -1.247794  -1.001299
H    -4.918268  -2.677798  3.818570
H    -8.908922  -2.099510  0.811530
H    -7.203904  -3.169848  4.632610
H    -9.173020  -2.889048  3.157649
N    -3.445661  1.402700  2.381489
C    -3.411404  0.813298  3.710606
H    -3.996545  2.247442  2.261290
H    -2.415246  0.419449  3.942291
H    -4.160092  0.016546  3.837592
H    -3.626929  1.600776  4.441068
