36
Energy: -23361.2521109 eV PBE+vdW (tier 2 basis)
C    0.535363  -0.494454  2.248927
C    -0.292020  -0.575424  3.519587
O    0.225915  -0.693349  4.627516
H    0.390394  0.468421  1.737204
H    0.277483  -1.295709  1.544963
H    1.586763  -0.587182  2.532443
N    -1.657121  -0.506705  3.395368
C    -2.470104  -0.351238  2.208266
C    -3.604267  0.630185  2.550879
O    -4.168390  0.591498  3.641962
H    -2.172208  -0.489139  4.274684
H    -1.847573  0.054649  1.398618
C    -3.112645  -1.685203  1.713555
C    -2.133554  -2.673333  1.166969
C    -1.832603  -2.853835  -0.166542
C    -1.298716  -3.593003  1.898738
N    -0.856138  -3.820229  -0.302803
C    -0.510858  -4.298862  0.944021
C    -1.131140  -3.890498  3.263123
C    0.418597  -5.275949  1.311766
C    -0.208695  -4.859940  3.632203
C    0.558010  -5.545906  2.668301
H    -3.854657  -1.436608  0.938893
H    -3.674303  -2.112477  2.557569
H    -2.252575  -2.368431  -1.041929
H    -0.491925  -4.161631  -1.181294
H    -1.700691  -3.356448  4.022280
H    1.013434  -5.804341  0.566218
H    -0.064962  -5.088782  4.687452
H    1.276435  -6.298183  2.992688
N    -3.952537  1.486481  1.549037
C    -5.046184  2.433787  1.667208
H    -3.406602  1.471882  0.696313
H    -4.687772  3.468347  1.576319
H    -5.490698  2.298636  2.658713
H    -5.814046  2.252824  0.902371
