36
Energy: -23361.1377276 eV PBE+vdW (tier 2 basis)
C    -0.313343  1.127694  0.224086
C    -0.097624  0.784172  1.683826
O    0.934181  1.070267  2.285660
H    0.568406  1.673089  -0.121286
H    -1.204335  1.755187  0.084067
H    -0.435948  0.220230  -0.382236
N    -1.110230  0.120374  2.339497
C    -2.390377  -0.345206  1.828055
C    -3.519962  0.215356  2.718906
O    -4.141366  1.223746  2.398862
H    -0.893922  -0.057970  3.317154
H    -2.555106  0.130703  0.856160
C    -2.441060  -1.883881  1.623693
C    -1.609154  -2.353884  0.471499
C    -2.074154  -2.587037  -0.805275
C    -0.188998  -2.596376  0.437833
N    -1.027822  -2.952140  -1.627152
C    0.141575  -2.973048  -0.896610
C    0.841659  -2.532770  1.392783
C    1.446779  -3.283154  -1.288805
C    2.139454  -2.839596  1.007178
C    2.440038  -3.211263  -0.318921
H    -3.490481  -2.172470  1.459241
H    -2.115033  -2.392474  2.547564
H    -3.085063  -2.520565  -1.194589
H    -1.112665  -3.200309  -2.603017
H    0.634281  -2.227041  2.417360
H    1.679147  -3.567341  -2.315460
H    2.944349  -2.780596  1.738790
H    3.470063  -3.440973  -0.589866
N    -3.732626  -0.458941  3.889581
C    -4.721596  -0.040567  4.866345
H    -3.242613  -1.332464  4.042096
H    -4.273760  0.038579  5.865822
H    -5.569630  -0.739358  4.909503
H    -5.092430  0.942554  4.558547
