36
Energy: -23361.4946025 eV PBE+vdW (tier 2 basis)
C    1.050812  0.846007  0.136248
C    0.974378  0.379210  1.578192
O    1.957969  0.337460  2.310223
H    1.598871  1.794934  0.106230
H    0.069103  0.980301  -0.334547
H    1.630128  0.117263  -0.445998
N    -0.277073  -0.028858  1.987660
C    -0.589771  -0.274292  3.387726
C    -1.107265  -1.702662  3.663839
O    -1.668903  -1.980290  4.723303
H    -1.064763  0.217521  1.392733
H    0.368675  -0.186835  3.924444
C    -1.582708  0.773848  3.939650
C    -2.843058  0.861556  3.133379
C    -3.989675  0.120250  3.323414
C    -3.075465  1.671298  1.963728
N    -4.914098  0.424451  2.343876
C    -4.387866  1.369899  1.491755
C    -2.310875  2.626049  1.265463
C    -4.935220  1.981164  0.360584
C    -2.852471  3.233035  0.138550
C    -4.150015  2.912967  -0.310670
H    -1.074015  1.747850  3.963842
H    -1.808450  0.492607  4.975285
H    -4.206166  -0.617010  4.089167
H    -5.840391  0.026092  2.275698
H    -1.309525  2.892033  1.606510
H    -5.940477  1.738932  0.014598
H    -2.268992  3.974761  -0.406457
H    -4.546575  3.407185  -1.196985
N    -0.864741  -2.603363  2.676066
C    -1.194011  -4.008274  2.793606
H    -0.380876  -2.258706  1.854016
H    -1.847178  -4.332660  1.971527
H    -1.719852  -4.146408  3.744692
H    -0.289463  -4.633316  2.794653
