36
Energy: -23361.1512904 eV PBE+vdW (tier 2 basis)
C    -0.710342  -0.867653  -0.315420
C    -0.339364  0.170055  0.733118
O    0.516823  1.026802  0.518135
H    -0.168217  -0.626197  -1.233371
H    -1.789540  -0.870202  -0.524438
H    -0.431565  -1.882642  0.001025
N    -1.012086  0.127355  1.923317
C    -1.934146  -0.873895  2.407815
C    -2.763869  -0.199981  3.517468
O    -2.357643  0.814525  4.079140
H    -0.798380  0.862300  2.598515
H    -2.597459  -1.193472  1.589496
C    -1.205781  -2.143825  2.965513
C    -0.342724  -1.866787  4.153770
C    0.914072  -1.300270  4.138409
C    -0.689297  -2.051206  5.537752
N    1.364155  -1.128278  5.430576
C    0.407193  -1.576048  6.314586
C    -1.810864  -2.571484  6.206435
C    0.405677  -1.607570  7.711425
C    -1.817196  -2.604450  7.595379
C    -0.720751  -2.125962  8.341087
H    -0.607193  -2.558222  2.142169
H    -1.952473  -2.912594  3.210391
H    1.521537  -0.988604  3.295051
H    2.252877  -0.720623  5.685843
H    -2.667812  -2.947484  5.646578
H    1.253463  -1.237382  8.288449
H    -2.682467  -3.006941  8.121857
H    -0.756197  -2.163414  9.429412
N    -3.944257  -0.783690  3.875415
C    -4.586186  -1.966457  3.334798
H    -4.372408  -0.338432  4.681612
H    -5.671563  -1.873755  3.459280
H    -4.262112  -2.895384  3.831505
H    -4.387256  -2.064447  2.261195
