36
Energy: -23361.0922504 eV PBE+vdW (tier 2 basis)
C    -3.043837  -0.988364  2.158241
C    -1.677123  -0.334950  2.273094
O    -0.821314  -0.440215  1.399455
H    -2.926387  -2.071160  2.300069
H    -3.429229  -0.828843  1.145077
H    -3.773993  -0.618134  2.888655
N    -1.476403  0.394102  3.416080
C    -0.165677  0.889956  3.826083
C    0.573176  1.699060  2.732008
O    1.757522  1.493456  2.488697
H    -2.167031  0.302405  4.152386
H    -0.368224  1.598546  4.646402
C    0.751985  -0.236200  4.359817
C    0.062962  -1.101468  5.364469
C    -0.361957  -2.396292  5.168117
C    -0.357006  -0.738579  6.693724
N    -1.016899  -2.857698  6.295754
C    -1.029648  -1.865503  7.251952
C    -0.225022  0.423451  7.475572
C    -1.563259  -1.854357  8.543479
C    -0.757174  0.438979  8.759544
C    -1.420444  -0.687335  9.287450
H    1.649754  0.233738  4.784544
H    1.094457  -0.830958  3.504274
H    -0.241968  -3.032761  4.297274
H    -1.381312  -3.792237  6.417181
H    0.301130  1.296850  7.088089
H    -2.070903  -2.726614  8.956454
H    -0.656486  1.332956  9.374559
H    -1.824613  -0.645104  10.298463
N    -0.100333  2.723659  2.124250
C    -1.480386  3.148895  2.262440
H    0.455826  3.164975  1.398893
H    -1.556506  4.191336  1.929714
H    -1.804064  3.114172  3.309696
H    -2.178001  2.541308  1.665262
