36
Energy: -23361.2219728 eV PBE+vdW (tier 2 basis)
C    -0.246407  1.133535  0.708188
C    -0.065187  0.261958  1.942865
O    1.023433  0.152563  2.502132
H    0.732568  1.537925  0.438459
H    -0.931724  1.970130  0.907804
H    -0.648081  0.569087  -0.144846
N    -1.175342  -0.382668  2.419489
C    -2.510562  -0.406262  1.854771
C    -3.477672  -0.592283  3.036637
O    -3.173295  -1.365213  3.948494
H    -1.047059  -0.950140  3.256620
H    -2.696530  0.543031  1.338135
C    -2.688526  -1.569823  0.828861
C    -3.992853  -1.560248  0.097405
C    -4.244157  -0.939322  -1.107253
C    -5.243139  -2.135395  0.523358
N    -5.575004  -1.087168  -1.446291
C    -6.215278  -1.820908  -0.469896
C    -5.641659  -2.876115  1.651218
C    -7.550230  -2.223571  -0.366860
C    -6.967755  -3.276063  1.756699
C    -7.912074  -2.953971  0.759692
H    -2.550215  -2.515111  1.373650
H    -1.855554  -1.496804  0.115495
H    -3.565396  -0.402522  -1.762555
H    -5.996340  -0.764668  -2.306376
H    -4.925381  -3.126526  2.433962
H    -8.280524  -1.975693  -1.137570
H    -7.287687  -3.851761  2.624807
H    -8.943935  -3.285084  0.873200
N    -4.653079  0.091961  3.056032
C    -5.274695  0.927633  2.044490
H    -5.233420  -0.175088  3.847595
H    -6.073153  0.388596  1.513523
H    -4.538239  1.246403  1.302191
H    -5.698140  1.825937  2.513259
