36
Energy: -23361.0699951 eV PBE+vdW (tier 2 basis)
C    -0.198675  0.279759  -0.148434
C    -0.079204  -0.181112  1.289667
O    0.970993  -0.616426  1.757068
H    -0.815088  -0.419558  -0.731455
H    0.807283  0.302267  -0.575306
H    -0.653523  1.275684  -0.231957
N    -1.197543  -0.081553  2.092032
C    -2.568447  0.130775  1.661661
C    -3.291974  1.341241  2.285032
O    -3.965892  2.070035  1.557103
H    -1.041652  -0.523876  2.993741
H    -2.536972  0.397388  0.601242
C    -3.428528  -1.161744  1.785334
C    -2.911450  -2.238429  0.889816
C    -2.103671  -3.296671  1.242437
C    -3.048247  -2.292087  -0.542495
N    -1.743673  -4.008888  0.116717
C    -2.300279  -3.416269  -0.996801
C    -3.715844  -1.492633  -1.487495
C    -2.211053  -3.757095  -2.348975
C    -3.624530  -1.826754  -2.833445
C    -2.881354  -2.946380  -3.259336
H    -4.466681  -0.900998  1.530326
H    -3.437940  -1.502610  2.832017
H    -1.742439  -3.595196  2.221026
H    -1.142310  -4.820898  0.110023
H    -4.294146  -0.622938  -1.173059
H    -1.635915  -4.621742  -2.680967
H    -4.135518  -1.214427  -3.575892
H    -2.829869  -3.180939  -4.322127
N    -3.229390  1.569549  3.631894
C    -2.509145  0.858124  4.674286
H    -3.738461  2.405462  3.902103
H    -2.915415  1.165598  5.644225
H    -1.430498  1.075258  4.671079
H    -2.655541  -0.228184  4.600760
