36
Energy: -23361.2976343 eV PBE+vdW (tier 2 basis)
C    0.252756  1.930481  0.686576
C    -0.339048  0.907810  1.634365
O    0.143881  -0.213177  1.791203
H    0.753572  1.413242  -0.137235
H    1.000293  2.521187  1.236340
H    -0.496054  2.626398  0.287303
N    -1.446935  1.336521  2.321886
C    -1.940478  0.646105  3.506540
C    -3.457494  0.434627  3.351395
O    -4.264652  1.278440  3.744389
H    -1.745631  2.296999  2.189748
H    -1.403042  -0.310267  3.518485
C    -1.615142  1.416310  4.808205
C    -0.166217  1.782792  4.888607
C    0.862754  0.987715  5.342357
C    0.448412  2.977200  4.371900
N    2.073671  1.617434  5.136649
C    1.857932  2.836068  4.532618
C    -0.046926  4.151608  3.777098
C    2.762019  3.812399  4.105087
C    0.848585  5.124061  3.348867
C    2.239638  4.954572  3.506787
H    -1.908610  0.782421  5.657740
H    -2.258100  2.305978  4.860451
H    0.826429  -0.001931  5.785709
H    2.977534  1.230715  5.369706
H    -1.120975  4.305500  3.661250
H    3.837505  3.684605  4.231074
H    0.473421  6.037140  2.887162
H    2.916892  5.734003  3.159022
N    -3.863252  -0.704482  2.722087
C    -3.054998  -1.793090  2.191535
H    -4.873245  -0.777256  2.640715
H    -3.564186  -2.221154  1.319517
H    -2.904682  -2.596959  2.929586
H    -2.072961  -1.437161  1.861589
