36
Energy: -23361.166022 eV PBE+vdW (tier 2 basis)
C    -0.272174  -1.253574  -0.372529
C    -0.026330  -0.255010  0.745168
O    0.871475  0.581483  0.683785
H    0.486499  -1.083477  -1.140594
H    -1.266995  -1.114752  -0.821264
H    -0.202141  -2.288918  -0.016147
N    -0.849038  -0.312153  1.842286
C    -1.977898  -1.178175  2.096030
C    -3.083083  -0.325034  2.741629
O    -2.802181  0.619552  3.476868
H    -0.719113  0.434467  2.524194
H    -2.321771  -1.605115  1.145865
C    -1.650300  -2.354359  3.072868
C    -0.741696  -3.392381  2.498643
C    -1.139253  -4.579664  1.921091
C    0.695713  -3.353868  2.397946
N    -0.036979  -5.272393  1.461658
C    1.104940  -4.551548  1.743446
C    1.679942  -2.427791  2.787559
C    2.446197  -4.841852  1.477687
C    3.012922  -2.712419  2.524661
C    3.393092  -3.905885  1.877590
H    -2.596493  -2.825452  3.381037
H    -1.217782  -1.910508  3.981914
H    -2.136115  -4.994409  1.808506
H    -0.059928  -6.186699  1.032153
H    1.402091  -1.491632  3.269597
H    2.739909  -5.763375  0.974308
H    3.780893  -1.995825  2.813295
H    4.448164  -4.096064  1.682827
N    -4.375700  -0.699361  2.513252
C    -4.860000  -1.733799  1.613855
H    -5.057350  -0.120842  2.993928
H    -5.952723  -1.761269  1.677839
H    -4.487434  -2.731413  1.888408
H    -4.591234  -1.535555  0.565506
