36
Energy: -23361.3585424 eV PBE+vdW (tier 2 basis)
C    -2.792991  0.314846  0.677205
C    -1.899962  0.442534  1.895458
O    -1.222259  1.442681  2.113799
H    -3.070625  -0.720901  0.444163
H    -2.288490  0.762029  -0.185608
H    -3.713514  0.886664  0.859895
N    -1.908477  -0.645569  2.740504
C    -1.337448  -0.594285  4.081402
C    -0.146365  -1.555520  4.291741
O    0.298528  -1.767533  5.417407
H    -2.630592  -1.341828  2.581491
H    -0.911181  0.417174  4.179963
C    -2.401953  -0.824971  5.163053
C    -3.485387  0.208745  5.213159
C    -3.454135  1.505094  4.743907
C    -4.782060  0.026865  5.811626
N    -4.654808  2.131986  5.021648
C    -5.492233  1.254983  5.674180
C    -5.415189  -1.051498  6.454604
C    -6.795502  1.423001  6.149566
C    -6.712074  -0.888360  6.927318
C    -7.395287  0.335385  6.776467
H    -1.870494  -0.895493  6.123621
H    -2.850565  -1.822443  5.008081
H    -2.669690  2.039314  4.217067
H    -4.878751  3.086198  4.776555
H    -4.896547  -2.001514  6.588133
H    -7.324130  2.370006  6.036502
H    -7.211632  -1.717495  7.427968
H    -8.410519  0.432407  7.160252
N    0.364567  -2.103357  3.156451
C    1.543244  -2.945701  3.155723
H    -0.057540  -1.817812  2.279923
H    1.346011  -3.899273  2.647278
H    1.809264  -3.143956  4.199673
H    2.391786  -2.449403  2.662825
