36
Energy: -23361.1932207 eV PBE+vdW (tier 2 basis)
C    -0.679391  1.133702  0.750868
C    -0.367063  0.519439  2.103949
O    0.775583  0.258817  2.462949
H    0.017172  1.959799  0.568378
H    -1.709464  1.499420  0.655131
H    -0.501674  0.377817  -0.025845
N    -1.458191  0.289520  2.912941
C    -1.373328  -0.488439  4.151365
C    -0.480335  0.190092  5.223123
O    0.137713  -0.467452  6.054147
H    -2.378320  0.401898  2.502956
H    -2.391235  -0.474391  4.570607
C    -0.967928  -1.972652  3.944684
C    -1.712367  -2.903356  4.848738
C    -1.301996  -3.384966  6.071008
C    -3.037390  -3.421443  4.632292
N    -2.290961  -4.179389  6.618205
C    -3.371590  -4.222288  5.764220
C    -3.978908  -3.291800  3.596223
C    -4.597660  -4.882047  5.876847
C    -5.201988  -3.944075  3.706464
C    -5.508430  -4.730791  4.835019
H    0.113352  -2.068031  4.090049
H    -1.178039  -2.232131  2.896807
H    -0.378867  -3.189887  6.604913
H    -2.231997  -4.646643  7.512083
H    -3.752148  -2.693629  2.711987
H    -4.836104  -5.493492  6.747765
H    -5.937899  -3.851326  2.907826
H    -6.474604  -5.231376  4.892328
N    -0.524214  1.551634  5.221304
C    0.301576  2.346900  6.108524
H    -0.935908  1.993642  4.407476
H    -0.236670  3.251882  6.416917
H    1.251729  2.637772  5.634333
H    0.530378  1.743045  6.992788
