36
Energy: -23361.2859629 eV PBE+vdW (tier 2 basis)
C    0.759151  -3.256203  2.363441
C    -0.032048  -2.667233  3.518209
O    -0.208766  -3.276927  4.570705
H    0.851937  -2.585893  1.500097
H    0.277045  -4.188875  2.045265
H    1.763869  -3.513365  2.721580
N    -0.512882  -1.402457  3.308915
C    -1.388712  -0.723220  4.260954
C    -2.058511  0.493464  3.614207
O    -3.217076  0.800844  3.874172
H    -0.444811  -1.013945  2.375742
H    -2.199144  -1.406886  4.549647
C    -0.664218  -0.295316  5.578069
C    0.296337  0.842566  5.434109
C    0.030537  2.159297  5.744667
C    1.627796  0.821362  4.880322
N    1.108402  2.953661  5.405358
C    2.107246  2.165344  4.876221
C    2.478426  -0.196627  4.409028
C    3.378233  2.508437  4.405127
C    3.742248  0.141160  3.942494
C    4.186403  1.479782  3.934321
H    -0.172629  -1.192899  5.975355
H    -1.455319  -0.021894  6.289886
H    -0.865283  2.595232  6.175084
H    1.177982  3.946722  5.579698
H    2.156605  -1.236629  4.427749
H    3.726398  3.541717  4.410621
H    4.409351  -0.641627  3.582068
H    5.183445  1.711060  3.560605
N    -1.267330  1.208159  2.748117
C    -1.720598  2.487084  2.226929
H    -0.262399  1.096363  2.864928
H    -1.143261  2.742016  1.331142
H    -1.612729  3.294854  2.968605
H    -2.780697  2.406874  1.966563
