36
Energy: -23361.0991983 eV PBE+vdW (tier 2 basis)
C    0.354986  -0.913624  0.645305
C    -0.034195  0.183319  1.615743
O    0.618117  1.218029  1.742816
H    1.350591  -0.687246  0.255684
H    -0.353817  -0.962463  -0.193735
H    0.358934  -1.905077  1.118275
N    -1.183607  -0.008488  2.344995
C    -2.017854  -1.194241  2.407412
C    -2.737789  -1.595516  1.104756
O    -2.864129  -2.790676  0.839512
H    -1.325534  0.693435  3.068879
H    -1.410898  -2.080681  2.647130
C    -3.078471  -1.031084  3.531139
C    -2.474346  -0.721983  4.861739
C    -2.511005  0.488954  5.520741
C    -1.688046  -1.606883  5.681161
N    -1.797784  0.403241  6.699248
C    -1.278532  -0.867897  6.827467
C    -1.298115  -2.952762  5.565405
C    -0.497270  -1.430782  7.840197
C    -0.521354  -3.515340  6.570611
C    -0.123818  -2.762368  7.694070
H    -3.651000  -1.969020  3.565537
H    -3.788788  -0.238524  3.250957
H    -3.010924  1.412156  5.244439
H    -1.675565  1.155721  7.362459
H    -1.602988  -3.549452  4.705184
H    -0.190927  -0.851268  8.711291
H    -0.212539  -4.557357  6.493170
H    0.486784  -3.233139  8.463958
N    -3.259959  -0.635240  0.283588
C    -3.277793  0.816779  0.401201
H    -3.710055  -1.041136  -0.530942
H    -2.308699  1.275595  0.161758
H    -4.026726  1.201145  -0.300907
H    -3.570393  1.142706  1.406399
