36
Energy: -23361.1346429 eV PBE+vdW (tier 2 basis)
C    0.371565  1.198400  1.576397
C    0.295024  -0.092394  2.366329
O    1.150628  -0.423511  3.182270
H    1.294243  1.710283  1.860963
H    -0.491369  1.845201  1.784107
H    0.388819  1.005085  0.494100
N    -0.778192  -0.924110  2.119046
C    -1.977754  -0.640000  1.341429
C    -3.019466  0.126075  2.197050
O    -3.117542  1.350370  2.113358
H    -0.797497  -1.732128  2.737420
H    -1.703175  0.070160  0.551787
C    -2.493690  -1.929108  0.689300
C    -3.723539  -1.768737  -0.150963
C    -4.302804  -0.602383  -0.604807
C    -4.530228  -2.847339  -0.657250
N    -5.418160  -0.901081  -1.362609
C    -5.588748  -2.267122  -1.413728
C    -4.463830  -4.247286  -0.547159
C    -6.565582  -3.039982  -2.046781
C    -5.434796  -5.019069  -1.174451
C    -6.474262  -4.422014  -1.915851
H    -2.679916  -2.692493  1.468766
H    -1.666932  -2.344933  0.089869
H    -4.021077  0.431927  -0.437015
H    -6.023268  -0.216936  -1.794790
H    -3.661180  -4.724725  0.016306
H    -7.369545  -2.580573  -2.622354
H    -5.393576  -6.105208  -1.096861
H    -7.219421  -5.054718  -2.397090
N    -3.743315  -0.628264  3.067378
C    -4.740887  -0.062822  3.955948
H    -3.683129  -1.636774  2.992829
H    -5.761346  -0.296462  3.618146
H    -4.610626  1.024081  3.952848
H    -4.607751  -0.440640  4.977975
