36
Energy: -23361.1222974 eV PBE+vdW (tier 2 basis)
C    0.169649  -0.482478  0.562478
C    -0.506003  -0.855430  1.865396
O    -0.082073  -1.772661  2.570407
H    -0.513915  -0.619348  -0.285947
H    1.032799  -1.142508  0.442965
H    0.510845  0.560046  0.560421
N    -1.643977  -0.183961  2.254916
C    -2.256122  1.067131  1.816890
C    -2.310680  1.178953  0.272911
O    -2.994361  0.389031  -0.374359
H    -2.016991  -0.573940  3.116690
H    -3.323943  0.965629  2.066106
C    -1.747541  2.293568  2.635759
C    -0.279556  2.592373  2.577119
C    0.737432  1.845937  3.138157
C    0.359369  3.689539  1.892883
N    1.958214  2.402121  2.821616
C    1.767804  3.530472  2.056406
C    -0.111363  4.801085  1.165393
C    2.692141  4.421856  1.506075
C    0.806892  5.687074  0.614883
C    2.193866  5.498111  0.779727
H    -2.041987  2.102331  3.679144
H    -2.326011  3.176647  2.325814
H    0.686433  0.939915  3.732461
H    2.853833  2.032365  3.110053
H    -1.181413  4.973991  1.040722
H    3.764751  4.282113  1.641877
H    0.450658  6.549775  0.052657
H    2.887530  6.211682  0.336582
N    -1.623806  2.201547  -0.296873
C    -1.581334  2.372506  -1.736983
H    -0.951428  2.719455  0.260886
H    -2.591703  2.280662  -2.151447
H    -0.949044  1.611764  -2.221172
H    -1.180489  3.366660  -1.962363
