36
Energy: -23361.0683739 eV PBE+vdW (tier 2 basis)
C    0.554647  0.114510  0.724607
C    0.389656  0.453934  2.197218
O    1.362645  0.523319  2.949229
H    1.431080  0.643992  0.335882
H    -0.320444  0.357748  0.108802
H    0.750225  -0.963117  0.636870
N    -0.906065  0.661220  2.585451
C    -1.483553  0.789285  3.928179
C    -1.917932  2.213319  4.353559
O    -3.035287  2.343618  4.859410
H    -1.595725  0.563730  1.850333
H    -2.454752  0.282165  3.863478
C    -0.699766  0.081900  5.063053
C    -0.646221  -1.402561  4.886350
C    0.436846  -2.153237  4.486567
C    -1.734709  -2.326494  5.076968
N    0.083355  -3.487266  4.421417
C    -1.241096  -3.629579  4.777957
C    -3.075027  -2.185708  5.479688
C    -2.040961  -4.771562  4.868805
C    -3.873726  -3.320071  5.568615
C    -3.363391  -4.598658  5.266035
H    -1.238356  0.328260  5.990867
H    0.310277  0.494495  5.148379
H    1.438249  -1.825826  4.229038
H    0.707795  -4.242584  4.175775
H    -3.483800  -1.203922  5.722670
H    -1.646314  -5.762041  4.639811
H    -4.913531  -3.222918  5.880051
H    -4.015235  -5.468134  5.347158
N    -1.088805  3.283862  4.210578
C    0.263234  3.377781  3.686603
H    -1.531458  4.143743  4.521942
H    0.275016  3.619626  2.611777
H    0.815858  2.443402  3.828331
H    0.795628  4.171949  4.224279
