36
Energy: -23361.2009534 eV PBE+vdW (tier 2 basis)
C    -1.070104  1.837467  0.894679
C    -1.597884  0.780797  1.850369
O    -2.393626  -0.086936  1.501009
H    -0.606625  1.336020  0.036326
H    -0.340433  2.519679  1.349269
H    -1.916219  2.422036  0.511239
N    -1.123511  0.875243  3.130758
C    -1.494808  -0.056103  4.176999
C    -2.837022  0.175689  4.910122
O    -3.315848  -0.768745  5.538281
H    -0.490788  1.633283  3.363786
H    -1.642063  -1.035392  3.700567
C    -0.363200  -0.172241  5.228058
C    -0.056469  1.125214  5.912708
C    -0.654683  1.602887  7.058781
C    0.832805  2.165030  5.459309
N    -0.198047  2.876867  7.333601
C    0.716411  3.253327  6.374337
C    1.723244  2.289088  4.374721
C    1.443917  4.437111  6.226408
C    2.444769  3.467501  4.223696
C    2.304975  4.531186  5.137925
H    0.532959  -0.564455  4.725668
H    -0.680921  -0.926965  5.958188
H    -1.391346  1.125977  7.696869
H    -0.458824  3.426468  8.140713
H    1.859509  1.467514  3.669769
H    1.343054  5.258156  6.936668
H    3.138315  3.570744  3.389643
H    2.886078  5.441205  4.992864
N    -3.473989  1.383687  4.888820
C    -3.074230  2.686587  4.377752
H    -4.355001  1.338529  5.391516
H    -3.747620  3.434818  4.812095
H    -3.154023  2.754443  3.283962
H    -2.053233  2.950246  4.680018
