36
Energy: -23361.0804108 eV PBE+vdW (tier 2 basis)
C    0.305918  -0.597715  0.440350
C    -0.158565  0.311109  1.559949
O    0.286598  1.448924  1.699838
H    0.985158  -1.365948  0.836880
H    0.854208  0.014321  -0.280527
H    -0.511970  -1.125958  -0.063916
N    -1.060146  -0.185641  2.477861
C    -1.941270  -1.349733  2.384513
C    -1.189364  -2.669565  2.105458
O    -1.470558  -3.387289  1.148188
H    -1.348291  0.531240  3.138566
H    -2.371921  -1.456498  3.394281
C    -3.118642  -1.148939  1.403180
C    -3.947430  0.037356  1.777949
C    -3.860079  1.306252  1.249487
C    -4.929493  0.104058  2.828755
N    -4.735570  2.150803  1.904086
C    -5.406587  1.446495  2.880206
C    -5.457865  -0.836766  3.730657
C    -6.379891  1.859183  3.794034
C    -6.423873  -0.428724  4.642894
C    -6.879397  0.904977  4.674738
H    -3.720876  -2.068086  1.398037
H    -2.725920  -1.043635  0.383437
H    -3.224073  1.679778  0.453600
H    -4.862137  3.131554  1.696377
H    -5.123240  -1.874976  3.710696
H    -6.736216  2.889364  3.818705
H    -6.842008  -1.149862  5.344836
H    -7.638661  1.193625  5.400989
N    -0.211246  -3.022532  2.992194
C    0.229582  -2.335986  4.195955
H    0.245706  -3.895306  2.747214
H    0.901550  -1.493457  3.979897
H    0.759365  -3.055856  4.830092
H    -0.622909  -1.953685  4.772406
