36
Energy: -23361.1782992 eV PBE+vdW (tier 2 basis)
C    -0.285594  0.634989  -0.770536
C    -0.316421  1.254131  0.612145
O    0.613063  1.929237  1.044932
H    -0.789194  -0.336571  -0.835287
H    0.761066  0.531040  -1.070486
H    -0.778183  1.313262  -1.481254
N    -1.434284  1.036272  1.396982
C    -2.717326  0.434230  1.030165
C    -2.611436  -1.090762  0.753594
O    -3.335403  -1.655533  -0.062858
H    -1.414853  1.594491  2.246080
H    -3.329715  0.508059  1.941951
C    -3.501643  1.160296  -0.097023
C    -4.973021  1.211927  0.168456
C    -5.936085  0.345251  -0.296379
C    -5.648138  2.150478  1.025528
N    -7.169413  0.699237  0.214382
C    -7.030295  1.800954  1.031156
C    -5.225578  3.252036  1.790312
C    -7.978561  2.516352  1.766326
C    -6.166170  3.963854  2.526174
C    -7.527840  3.600058  2.514329
H    -3.310882  0.659696  -1.053871
H    -3.104142  2.182853  -0.171194
H    -5.822660  -0.522042  -0.937045
H    -8.037082  0.218241  0.022818
H    -4.176101  3.550565  1.803341
H    -9.032957  2.238450  1.757281
H    -5.850072  4.820292  3.121362
H    -8.241276  4.178848  3.100234
N    -1.693141  -1.734701  1.524215
C    -1.452315  -3.160914  1.435718
H    -1.084602  -1.156628  2.093915
H    -0.451913  -3.376016  1.032874
H    -2.203489  -3.584313  0.760602
H    -1.546040  -3.636821  2.421257
