36
Energy: -23361.2994792 eV PBE+vdW (tier 2 basis)
C    -0.022941  0.765222  0.081932
C    -0.125752  0.205305  1.489264
O    0.775397  -0.458877  1.995645
H    0.189915  -0.058102  -0.610553
H    0.829309  1.455479  0.040853
H    -0.924959  1.293843  -0.250158
N    -1.283802  0.517454  2.150967
C    -1.594431  -0.020864  3.455329
C    -3.043666  -0.516391  3.423701
O    -3.865729  -0.011869  2.654527
H    -2.083239  0.888572  1.642717
H    -0.876820  -0.832050  3.641024
C    -1.439748  1.054649  4.576880
C    -0.025558  1.496172  4.747707
C    0.583295  2.568462  4.135338
C    0.999111  0.820579  5.497431
N    1.923434  2.598392  4.465527
C    2.212478  1.539905  5.299527
C    1.017553  -0.320970  6.316352
C    3.416337  1.154453  5.893934
C    2.213321  -0.709808  6.908199
C    3.400496  0.020255  6.699225
H    -1.826985  0.645173  5.522528
H    -2.088811  1.902697  4.315023
H    0.159243  3.315647  3.472913
H    2.587997  3.287776  4.143656
H    0.107705  -0.896830  6.489553
H    4.336253  1.716723  5.731231
H    2.238663  -1.594533  7.544095
H    4.323025  -0.310585  7.175412
N    -3.398040  -1.496795  4.301177
C    -2.564807  -2.185789  5.272045
H    -4.389979  -1.714165  4.282691
H    -3.005514  -3.166076  5.486070
H    -2.475582  -1.633841  6.221134
H    -1.557707  -2.355453  4.874318
