36
Energy: -23360.7060796 eV PBE+vdW (tier 2 basis)
C    0.296491  -0.799360  -0.072733
C    0.261528  -0.898747  1.431028
O    1.281440  -1.140124  2.079193
H    -0.536675  -1.314146  -0.562827
H    1.248366  -1.216162  -0.412156
H    0.249689  0.252284  -0.385315
N    -0.917251  -0.691790  2.118188
C    -2.340524  -0.508374  1.818248
C    -3.250556  -1.725430  2.123519
O    -4.417378  -1.501272  2.451671
H    -0.732634  -0.768116  3.116269
H    -2.682235  0.194666  2.592524
C    -2.748473  0.186598  0.492062
C    -2.907869  -0.611557  -0.772639
C    -3.618802  -1.779211  -0.965449
C    -2.443122  -0.208178  -2.076349
N    -3.588100  -2.133551  -2.299661
C    -2.879041  -1.191181  -3.010482
C    -1.703153  0.888764  -2.552886
C    -2.584745  -1.115049  -4.374575
C    -1.411497  0.971305  -3.908448
C    -1.844997  -0.021487  -4.810584
H    -2.039244  1.007855  0.321828
H    -3.710117  0.671301  0.718062
H    -4.175179  -2.380806  -0.256397
H    -4.043386  -2.944939  -2.693911
H    -1.365152  1.671501  -1.872868
H    -2.925016  -1.880392  -5.072590
H    -0.839672  1.818770  -4.285442
H    -1.599698  0.071963  -5.867995
N    -2.775047  -3.005137  2.085053
C    -1.562119  -3.560439  1.494462
H    -3.492763  -3.666947  2.365304
H    -1.383341  -3.160822  0.488455
H    -1.705255  -4.642432  1.397561
H    -0.672709  -3.387953  2.112636
