36
Energy: -23361.0412225 eV PBE+vdW (tier 2 basis)
C    -0.027791  0.654179  0.139543
C    0.123521  0.042497  1.521804
O    1.221635  -0.074840  2.062485
H    0.962260  0.977110  -0.192228
H    -0.704375  1.520196  0.140665
H    -0.423772  -0.074332  -0.582357
N    -1.020792  -0.355465  2.168509
C    -2.340949  -0.551780  1.595847
C    -3.480499  -0.060427  2.521698
O    -4.552360  -0.660255  2.577173
H    -0.826656  -0.882118  3.018570
H    -2.412074  0.085521  0.700838
C    -2.561439  -2.023452  1.142250
C    -2.080391  -3.055385  2.118853
C    -0.796374  -3.560357  2.166123
C    -2.809419  -3.708122  3.179219
N    -0.688269  -4.482792  3.184947
C    -1.903877  -4.600959  3.824512
C    -4.136475  -3.644228  3.642828
C    -2.282224  -5.412125  4.898191
C    -4.515063  -4.451544  4.708101
C    -3.600660  -5.325659  5.330737
H    -2.018097  -2.148629  0.194202
H    -3.629100  -2.155821  0.928422
H    0.061231  -3.324497  1.543918
H    0.151196  -4.993451  3.420736
H    -4.841741  -2.953262  3.184739
H    -1.572719  -6.087395  5.377446
H    -5.540167  -4.406820  5.075681
H    -3.931642  -5.943307  6.165405
N    -3.288389  1.081129  3.250322
C    -2.248629  2.099109  3.162470
H    -4.114649  1.314927  3.791988
H    -1.324839  1.806361  3.676608
H    -2.633627  3.011952  3.631367
H    -2.001545  2.344506  2.121033
