36
Energy: -23361.4692928 eV PBE+vdW (tier 2 basis)
C    -2.320696  -3.147478  -0.450221
C    -1.464131  -2.361815  0.527261
O    -0.242357  -2.312898  0.436649
H    -3.389058  -3.150640  -0.199371
H    -1.957415  -4.181618  -0.487950
H    -2.190489  -2.720505  -1.452831
N    -2.160659  -1.726599  1.529785
C    -1.536456  -0.787651  2.444943
C    -1.216898  -1.358940  3.841128
O    -0.651072  -0.655061  4.678365
H    -3.175268  -1.671966  1.463451
H    -0.561291  -0.515324  2.015941
C    -2.409339  0.489674  2.580532
C    -3.855610  0.204355  2.850921
C    -4.870719  0.243736  1.915613
C    -4.468036  -0.207958  4.091399
N    -6.067986  -0.120646  2.500345
C    -5.855854  -0.402026  3.833541
C    -3.986992  -0.417042  5.397490
C    -6.755060  -0.806697  4.824726
C    -4.879016  -0.818715  6.383683
C    -6.246651  -1.014869  6.101743
H    -2.317462  1.063738  1.648047
H    -1.967528  1.095008  3.383301
H    -4.832169  0.535454  0.870529
H    -6.965223  -0.130490  2.035614
H    -2.933364  -0.265430  5.630686
H    -7.813875  -0.950293  4.607574
H    -4.517657  -0.980399  7.399102
H    -6.918700  -1.329282  6.899855
N    -1.615945  -2.634466  4.062892
C    -1.466041  -3.292924  5.343330
H    -2.090874  -3.104372  3.300458
H    -1.022371  -4.289477  5.220229
H    -2.434288  -3.389616  5.857566
H    -0.802447  -2.676766  5.959673
