36
Energy: -23361.3786834 eV PBE+vdW (tier 2 basis)
C    0.014573  -0.362348  0.143372
C    -0.030373  0.377441  1.464094
O    0.767871  1.265082  1.749825
H    0.723778  0.156543  -0.506715
H    -0.967299  -0.402000  -0.347272
H    0.356707  -1.396695  0.288367
N    -1.045668  0.049674  2.348836
C    -1.827299  -1.179632  2.370329
C    -3.336132  -0.941484  2.602140
O    -4.087823  -1.878529  2.863085
H    -0.894849  0.494576  3.253938
H    -1.762961  -1.628677  1.369200
C    -1.267988  -2.206424  3.386874
C    0.082384  -2.698491  2.982897
C    1.303197  -2.233037  3.418582
C    0.362870  -3.664155  1.952215
N    2.321007  -2.859539  2.726931
C    1.779360  -3.740889  1.815841
C    -0.444076  -4.460969  1.120624
C    2.395500  -4.585093  0.888190
C    0.166200  -5.297815  0.193770
C    1.569972  -5.359570  0.079249
H    -1.994636  -3.026540  3.459317
H    -1.230297  -1.733774  4.380834
H    1.529050  -1.481839  4.168212
H    3.307465  -2.687287  2.862028
H    -1.531128  -4.427921  1.204272
H    3.480865  -4.634711  0.797359
H    -0.447707  -5.921276  -0.455730
H    2.017439  -6.027069  -0.656601
N    -3.742303  0.348845  2.463353
C    -5.129466  0.751635  2.576192
H    -3.029898  1.024788  2.205892
H    -5.523735  1.107896  1.613618
H    -5.248635  1.547900  3.323369
H    -5.705481  -0.125435  2.890634
