36
Energy: -23361.0554359 eV PBE+vdW (tier 2 basis)
C    -0.350758  0.384742  -0.412797
C    -0.092924  0.503579  1.073043
O    1.032052  0.736682  1.511104
H    0.172441  -0.508137  -0.781055
H    0.104050  1.259060  -0.892159
H    -1.403250  0.332981  -0.701451
N    -1.128905  0.311279  1.963316
C    -2.550127  0.037651  1.777331
C    -2.857078  -1.071631  0.743329
O    -3.728568  -0.935560  -0.114206
H    -0.813464  0.436685  2.921019
H    -2.879998  -0.395767  2.738758
C    -3.425397  1.300256  1.562844
C    -3.048715  2.183883  0.415878
C    -3.563846  2.131309  -0.860993
C    -2.064971  3.235938  0.414947
N    -2.952717  3.082156  -1.651529
C    -2.028317  3.779026  -0.902459
C    -1.197180  3.767979  1.384879
C    -1.168187  4.819829  -1.262148
C    -0.339740  4.801821  1.031813
C    -0.324715  5.323598  -0.277535
H    -4.463394  0.960477  1.451431
H    -3.378195  1.878347  2.498466
H    -4.305236  1.454336  -1.269573
H    -3.164350  3.251432  -2.624953
H    -1.180752  3.363469  2.396847
H    -1.154176  5.220762  -2.276152
H    0.343064  5.211794  1.775290
H    0.363190  6.131846  -0.524039
N    -2.158624  -2.241643  0.848757
C    -1.199085  -2.672027  1.854328
H    -2.427313  -2.914036  0.137515
H    -1.504556  -2.358526  2.860911
H    -0.185602  -2.290027  1.668182
H    -1.165363  -3.767629  1.847878
