36
Energy: -23361.1423244 eV PBE+vdW (tier 2 basis)
C    -1.064832  -0.705843  0.142642
C    -0.614783  -1.252043  1.485650
O    -0.103596  -2.361231  1.604619
H    -0.435187  0.142803  -0.160528
H    -2.108246  -0.360670  0.163657
H    -0.964535  -1.502709  -0.598548
N    -0.826217  -0.452924  2.585025
C    -1.256790  0.925308  2.602995
C    -0.201676  1.898038  2.002783
O    0.999779  1.649361  1.973504
H    -0.405335  -0.806782  3.441600
H    -2.165233  1.020333  1.984246
C    -1.666582  1.328108  4.039409
C    -0.665460  1.078608  5.131885
C    0.711894  1.005805  5.059305
C    -1.010232  0.888120  6.517619
N    1.230170  0.781659  6.318007
C    0.206031  0.702250  7.235627
C    -2.224143  0.857560  7.226191
C    0.235357  0.484402  8.615404
C    -2.199065  0.641576  8.599000
C    -0.982776  0.456700  9.286586
H    -2.584087  0.767473  4.276337
H    -1.960271  2.391233  4.028426
H    1.362720  1.093250  4.194941
H    2.212005  0.655714  6.521502
H    -3.174761  1.000597  6.711069
H    1.175879  0.340860  9.147899
H    -3.134539  0.613845  9.157281
H    -0.996707  0.288717  10.363065
N    -0.740335  3.051233  1.511011
C    0.063976  4.129637  0.967605
H    -1.745969  3.168609  1.551316
H    -0.237325  4.367164  -0.061652
H    1.105720  3.792267  0.965033
H    -0.014893  5.038314  1.581148
