36
Energy: -23360.9786123 eV PBE+vdW (tier 2 basis)
C    0.581729  0.421584  0.208445
C    0.597988  0.982540  1.621139
O    1.619482  1.477215  2.099305
H    1.338223  -0.369919  0.139448
H    0.877124  1.217375  -0.486363
H    -0.387683  0.015136  -0.104745
N    -0.588060  0.873919  2.291647
C    -0.921725  1.304559  3.655963
C    -1.597271  2.705777  3.663455
O    -2.828725  2.750146  3.703161
H    -1.372493  0.513623  1.761339
H    -1.773068  0.673308  3.940864
C    0.178224  1.050720  4.711341
C    -0.356909  1.247450  6.095736
C    -0.184667  2.351837  6.900095
C    -1.198412  0.339998  6.831482
N    -0.866667  2.180872  8.088668
C    -1.499767  0.956562  8.079750
C    -1.720464  -0.937848  6.565607
C    -2.296766  0.338711  9.046869
C    -2.514208  -1.555668  7.524329
C    -2.800614  -0.923730  8.751332
H    1.059836  1.672901  4.539972
H    0.516948  0.011355  4.580025
H    0.379906  3.259762  6.715961
H    -0.895228  2.849243  8.845699
H    -1.505184  -1.441814  5.622414
H    -2.518070  0.825368  9.997168
H    -2.924843  -2.545863  7.328236
H    -3.427805  -1.433593  9.482045
N    -0.869704  3.856954  3.596507
C    0.562742  4.098808  3.539372
H    -1.475468  4.672313  3.629405
H    0.748816  4.972499  2.901717
H    1.090817  3.247514  3.096481
H    0.987328  4.308945  4.534838
