36
Energy: -23361.1834792 eV PBE+vdW (tier 2 basis)
C    -1.266190  1.894901  0.023278
C    -0.570387  0.806390  0.814888
O    0.618889  0.534904  0.661540
H    -2.033684  1.478357  -0.643139
H    -0.508748  2.402426  -0.579435
H    -1.755212  2.625146  0.682121
N    -1.313836  0.126974  1.754814
C    -2.755474  0.133584  1.945715
C    -3.074157  0.379979  3.435484
O    -3.323977  1.506815  3.851637
H    -0.775106  -0.589341  2.236324
H    -3.153393  1.019176  1.439681
C    -3.425284  -1.124612  1.325827
C    -3.297820  -1.133932  -0.162594
C    -2.303649  -1.733344  -0.904165
C    -4.110630  -0.395532  -1.093272
N    -2.459872  -1.418980  -2.238488
C    -3.557153  -0.598139  -2.390705
C    -5.239833  0.431318  -0.959116
C    -4.104510  -0.014100  -3.536104
C    -5.783739  1.017040  -2.095792
C    -5.223486  0.795361  -3.370254
H    -4.485223  -1.144176  1.623593
H    -2.963205  -2.036314  1.739835
H    -1.473058  -2.349756  -0.576952
H    -1.851818  -1.729919  -2.983359
H    -5.683039  0.614931  0.020419
H    -3.670456  -0.180992  -4.522160
H    -6.657923  1.661003  -2.004401
H    -5.673803  1.269321  -4.241843
N    -3.012753  -0.722616  4.241402
C    -3.238675  -0.659683  5.673771
H    -2.881594  -1.630476  3.811936
H    -2.399693  -1.107291  6.223310
H    -4.167470  -1.174303  5.959097
H    -3.323963  0.397386  5.946181
