36
Energy: -23361.2149664 eV PBE+vdW (tier 2 basis)
C    -0.379965  -0.815994  2.703407
C    0.111864  -0.198287  1.409260
O    1.143454  -0.567932  0.849632
H    -0.535290  -0.059380  3.484912
H    0.366921  -1.538243  3.042179
H    -1.339357  -1.332471  2.555479
N    -0.652678  0.806906  0.870511
C    -1.962714  1.255780  1.293762
C    -3.166021  0.318576  1.027934
O    -4.164998  0.456567  1.737659
H    -0.318153  1.144356  -0.030345
H    -1.974107  1.351054  2.388636
C    -2.242690  2.676337  0.730731
C    -2.162542  2.783883  -0.760073
C    -1.062219  3.183776  -1.491418
C    -3.187746  2.456742  -1.719355
N    -1.343668  3.114429  -2.841077
C    -2.638299  2.673460  -3.015878
C    -4.516052  2.005563  -1.611996
C    -3.367240  2.445133  -4.186842
C    -5.242483  1.779355  -2.773987
C    -4.674669  1.993751  -4.047058
H    -1.514413  3.357780  1.192800
H    -3.236628  2.975948  1.089246
H    -0.095279  3.537381  -1.147006
H    -0.707315  3.373072  -3.582378
H    -4.967685  1.832102  -0.635172
H    -2.930369  2.614699  -5.171183
H    -6.272934  1.431901  -2.704052
H    -5.272976  1.805786  -4.938124
N    -3.123743  -0.643331  0.062032
C    -2.190541  -0.871452  -1.037649
H    -4.001396  -1.152808  0.022663
H    -1.265208  -1.362941  -0.710791
H    -1.941081  0.058865  -1.561294
H    -2.688854  -1.526370  -1.760680
