36
Energy: -23361.4660303 eV PBE+vdW (tier 2 basis)
C    -5.668427  -0.120637  1.810767
C    -4.199911  0.070499  1.493200
O    -3.790305  0.160764  0.330541
H    -6.232979  0.711204  1.371536
H    -5.885563  -0.171143  2.884715
H    -6.017881  -1.042805  1.330055
N    -3.362076  0.146600  2.566455
C    -1.920357  0.350369  2.424528
C    -1.223513  -1.012379  2.160178
O    -0.679276  -1.661513  3.053341
H    -3.729768  -0.033647  3.493964
H    -1.786444  0.989636  1.540583
C    -1.339324  1.042175  3.663635
C    0.039746  1.573678  3.426508
C    1.229133  0.955477  3.740733
C    0.381904  2.813414  2.780695
N    2.287231  1.744422  3.335725
C    1.804680  2.891560  2.742348
C    -0.368176  3.867063  2.229839
C    2.478860  3.979485  2.182254
C    0.299314  4.949987  1.669606
C    1.707523  5.006295  1.646376
H    -1.326259  0.320952  4.493504
H    -2.014196  1.866104  3.943272
H    1.395124  -0.009932  4.206052
H    3.263424  1.510808  3.450907
H    -1.458597  3.836560  2.237380
H    3.568207  4.024356  2.162834
H    -0.272448  5.771287  1.238063
H    2.201344  5.868861  1.199744
N    -1.310992  -1.404650  0.862603
C    -0.848169  -2.700407  0.406959
H    -1.933489  -0.854947  0.267351
H    -0.293240  -2.599476  -0.534725
H    -1.683645  -3.399795  0.249989
H    -0.186457  -3.115222  1.174486
