36
Energy: -23361.4717952 eV PBE+vdW (tier 2 basis)
C    -1.329940  -0.165373  0.830268
C    -0.675662  -0.228592  2.194743
O    0.500114  -0.598998  2.334347
H    -2.375167  0.165278  0.859856
H    -1.279213  -1.157682  0.365380
H    -0.754391  0.521681  0.197114
N    -1.459026  0.133063  3.240135
C    -1.016251  0.280109  4.621007
C    -0.871506  -1.067295  5.391907
O    -1.325513  -1.231924  6.525690
H    -2.426078  0.403879  3.070996
H    0.003406  0.699344  4.589344
C    -1.939342  1.281890  5.361970
C    -3.377231  1.280343  4.931235
C    -3.949971  2.219892  4.095887
C    -4.428868  0.348547  5.267240
N    -5.284043  1.928245  3.896683
C    -5.610382  0.789037  4.602972
C    -4.494942  -0.803202  6.073071
C    -6.831597  0.118240  4.715420
C    -5.708566  -1.469711  6.186837
C    -6.863352  -1.017682  5.516316
H    -1.533092  2.291217  5.212238
H    -1.861686  1.046848  6.431862
H    -3.502084  3.098165  3.641279
H    -5.928988  2.486248  3.354725
H    -3.604050  -1.158347  6.589353
H    -7.724779  0.472135  4.199694
H    -5.772219  -2.362241  6.809037
H    -7.798429  -1.565976  5.629065
N    -0.156294  -2.003059  4.728162
C    0.139484  -3.294711  5.318433
H    0.291431  -1.719079  3.849199
H    0.564684  -3.945875  4.547407
H    -0.776638  -3.753090  5.711532
H    0.855180  -3.211320  6.150594
