36
Energy: -23360.8103047 eV PBE+vdW (tier 2 basis)
C    -0.598372  1.972935  0.597073
C    -1.463235  2.166360  1.817129
O    -1.364416  3.183505  2.503275
H    -0.849084  1.104423  -0.010257
H    0.435474  1.855631  0.947262
H    -0.653140  2.893230  0.004335
N    -2.371748  1.203822  2.238206
C    -2.926355  -0.042097  1.724733
C    -1.889156  -1.156193  1.479816
O    -0.723616  -0.951639  1.164026
H    -2.817844  1.534787  3.088913
H    -3.559891  -0.397157  2.551635
C    -3.911606  0.110018  0.516875
C    -3.346953  0.619936  -0.767065
C    -2.729909  -0.122800  -1.750477
C    -3.314094  1.988882  -1.208428
N    -2.310378  0.708073  -2.768505
C    -2.652195  2.010169  -2.469063
C    -3.742503  3.204317  -0.647827
C    -2.423033  3.194171  -3.174894
C    -3.514292  4.383636  -1.344554
C    -2.863694  4.379129  -2.595415
H    -4.715084  0.780074  0.855659
H    -4.382471  -0.870037  0.348336
H    -2.539595  -1.190076  -1.794151
H    -1.826424  0.407104  -3.602883
H    -4.220249  3.227878  0.331670
H    -1.910937  3.192971  -4.137445
H    -3.831049  5.332744  -0.913598
H    -2.695931  5.322532  -3.114115
N    -2.362684  -2.444145  1.591848
C    -3.591440  -2.911431  2.215768
H    -1.627166  -3.129114  1.446471
H    -4.486994  -2.554066  1.689501
H    -3.667624  -2.619379  3.275258
H    -3.604484  -4.005731  2.170246
