36
Energy: -23360.5913666 eV PBE+vdW (tier 2 basis)
C    0.159607  0.145924  0.514761
C    0.022148  -0.129771  1.997410
O    0.997209  -0.309463  2.721112
H    -0.037345  -0.775120  -0.052167
H    1.190781  0.457108  0.327599
H    -0.524763  0.927349  0.164420
N    -1.245617  -0.178696  2.535996
C    -2.545021  -0.131612  1.877715
C    -2.611845  -1.219468  0.756223
O    -2.318621  -2.365743  1.089584
H    -1.230972  -0.515767  3.493096
H    -3.224266  -0.616514  2.595758
C    -3.141774  1.309899  1.751652
C    -2.322033  2.463548  1.248194
C    -2.564002  3.193312  0.101467
C    -1.233620  3.136727  1.922607
N    -1.676370  4.243683  0.006593
C    -0.846940  4.239458  1.107300
C    -0.561718  2.947271  3.144264
C    0.186985  5.113196  1.454608
C    0.459660  3.817874  3.499241
C    0.837112  4.885965  2.661542
H    -3.453001  1.561484  2.778984
H    -4.079900  1.243813  1.181557
H    -3.333574  3.067037  -0.652066
H    -1.657201  4.925612  -0.738730
H    -0.824116  2.118567  3.797988
H    0.469002  5.943963  0.807168
H    0.988456  3.665991  4.439424
H    1.649748  5.545123  2.965393
N    -3.069777  -0.987575  -0.510951
C    -3.261755  0.234372  -1.269469
H    -3.111978  -1.858765  -1.031748
H    -4.217081  0.729705  -1.038103
H    -3.271177  -0.025192  -2.333864
H    -2.446344  0.947093  -1.105077
