36
Energy: -23361.2881996 eV PBE+vdW (tier 2 basis)
C    0.097376  0.939905  0.913269
C    -0.078856  0.803158  2.413122
O    0.796558  1.118649  3.212303
H    1.046670  1.448262  0.727216
H    -0.721006  1.504558  0.446896
H    0.123751  -0.049162  0.433246
N    -1.293789  0.314928  2.858588
C    -2.345718  -0.273578  2.039267
C    -3.264102  0.752050  1.340560
O    -3.975165  0.407295  0.398488
H    -1.276347  0.073174  3.847827
H    -1.907721  -0.874700  1.227967
C    -3.238120  -1.214182  2.887618
C    -2.478611  -2.303373  3.577421
C    -2.060712  -3.496258  3.028143
C    -1.985704  -2.285519  4.929679
N    -1.336049  -4.212688  3.959158
C    -1.269781  -3.500471  5.136807
C    -2.080392  -1.368449  5.992843
C    -0.654143  -3.808655  6.352507
C    -1.466896  -1.670699  7.202046
C    -0.760119  -2.877078  7.379692
H    -3.995105  -1.624814  2.207366
H    -3.783399  -0.608681  3.628619
H    -2.228904  -3.895630  2.033241
H    -0.932437  -5.126155  3.804530
H    -2.635266  -0.435357  5.879917
H    -0.108910  -4.742298  6.492743
H    -1.532104  -0.965756  8.030161
H    -0.288729  -3.083915  8.339825
N    -3.244316  2.001349  1.875183
C    -4.061073  3.087273  1.373214
H    -2.578977  2.163876  2.624810
H    -4.720273  3.483429  2.158046
H    -4.675778  2.690354  0.557915
H    -3.440634  3.907893  0.985981
