36
Energy: -23361.3334982 eV PBE+vdW (tier 2 basis)
C    -4.424848  0.621717  0.102291
C    -3.380297  0.630277  1.203807
O    -3.213510  1.603377  1.942540
H    -4.455570  -0.315338  -0.466863
H    -4.219461  1.452333  -0.584355
H    -5.410619  0.804589  0.548256
N    -2.647600  -0.510704  1.319464
C    -1.592548  -0.667543  2.292837
C    -0.694466  -1.798308  1.773440
O    -1.101629  -2.585074  0.916924
H    -2.758618  -1.301594  0.687602
H    -1.038586  0.282390  2.351568
C    -2.153610  -0.964060  3.722033
C    -2.942689  -2.228782  3.819459
C    -4.280813  -2.375157  3.525197
C    -2.461519  -3.538306  4.174596
N    -4.654102  -3.695929  3.674135
C    -3.563426  -4.436910  4.074085
C    -1.215757  -4.048053  4.579870
C    -3.448489  -5.800388  4.357074
C    -1.096474  -5.402842  4.863508
C    -2.200821  -6.271599  4.751229
H    -2.772761  -0.095438  3.982788
H    -1.321620  -0.976670  4.440144
H    -5.003256  -1.625943  3.219068
H    -5.586560  -4.057802  3.531594
H    -0.350572  -3.391598  4.672648
H    -4.303341  -6.471965  4.272413
H    -0.134056  -5.805484  5.178987
H    -2.075316  -7.329807  4.978525
N    0.556817  -1.915046  2.300569
C    1.216687  -1.077630  3.284828
H    1.048856  -2.739566  1.969825
H    2.296056  -1.077565  3.091317
H    1.052137  -1.423181  4.318184
H    0.868194  -0.041455  3.210431
