36
Energy: -23361.26461 eV PBE+vdW (tier 2 basis)
C    -0.303701  1.650402  1.859637
C    -0.126751  0.374788  2.660182
O    0.886724  0.136426  3.310426
H    0.538670  2.310430  2.080943
H    -1.246181  2.162138  2.096178
H    -0.312018  1.437924  0.780388
N    -1.176153  -0.522421  2.641294
C    -2.344731  -0.493357  1.767317
C    -3.514906  0.372516  2.291076
O    -4.452615  0.656714  1.549565
H    -0.944061  -1.412428  3.077157
H    -2.077031  -0.049672  0.795698
C    -2.869237  -1.914723  1.517283
C    -1.927355  -2.842701  0.810979
C    -0.679754  -2.583996  0.284538
C    -2.200732  -4.229539  0.536734
N    -0.172858  -3.726887  -0.304500
C    -1.077887  -4.755810  -0.163269
C    -3.288512  -5.076729  0.810143
C    -1.015784  -6.087283  -0.582702
C    -3.230044  -6.401701  0.394698
C    -2.105870  -6.901612  -0.293220
H    -3.801197  -1.809871  0.941883
H    -3.168444  -2.353726  2.486557
H    -0.091526  -1.673062  0.286806
H    0.738942  -3.801356  -0.733273
H    -4.166517  -4.702301  1.337433
H    -0.148317  -6.475274  -1.117186
H    -4.066637  -7.068855  0.600777
H    -2.090931  -7.945304  -0.605884
N    -3.419550  0.749899  3.592584
C    -4.431663  1.545461  4.257441
H    -2.582572  0.465248  4.091290
H    -4.014666  2.494108  4.623231
H    -4.870740  1.002081  5.105705
H    -5.218700  1.759235  3.526093
