36
Energy: -23360.8957155 eV PBE+vdW (tier 2 basis)
C    0.111342  -0.044031  0.297138
C    -0.197911  -0.607351  1.667687
O    0.682882  -1.103372  2.369167
H    0.340319  1.028301  0.387918
H    -0.703458  -0.186334  -0.418541
H    1.012770  -0.546106  -0.066631
N    -1.477181  -0.515800  2.179190
C    -2.735848  -0.024814  1.643229
C    -3.306282  -0.928079  0.523608
O    -2.600426  -1.549501  -0.263694
H    -1.516536  -0.905660  3.115513
H    -3.429886  -0.074221  2.492830
C    -2.725771  1.468258  1.183956
C    -2.866971  2.451165  2.304262
C    -4.000657  3.193097  2.560667
C    -1.907775  2.814374  3.319398
N    -3.806578  3.986300  3.672862
C    -2.533276  3.781993  4.160029
C    -0.580827  2.440656  3.603351
C    -1.885070  4.363757  5.253168
C    0.067539  3.019482  4.686744
C    -0.576456  3.968838  5.505515
H    -3.553772  1.616569  0.475262
H    -1.810317  1.652537  0.608070
H    -4.938372  3.231304  2.014830
H    -4.477863  4.642024  4.047354
H    -0.063598  1.701610  2.995683
H    -2.384807  5.100402  5.882948
H    1.093699  2.730269  4.911077
H    -0.039894  4.400950  6.349743
N    -4.673585  -0.966780  0.428215
C    -5.660175  -0.439433  1.357581
H    -4.999708  -1.577394  -0.314447
H    -6.653860  -0.567336  0.914808
H    -5.519257  0.633448  1.543237
H    -5.653079  -0.963245  2.326734
