36
Energy: -23361.5449866 eV PBE+vdW (tier 2 basis)
C    0.071875  0.215253  -0.167886
C    -0.078744  0.512006  1.312548
O    0.679346  1.279084  1.909528
H    0.008955  1.158217  -0.724988
H    -0.680880  -0.481697  -0.555941
H    1.071350  -0.202042  -0.342979
N    -1.109093  -0.126835  1.936000
C    -1.364224  0.011562  3.352131
C    -2.126071  -1.245645  3.792293
O    -2.841311  -1.865544  3.000231
H    -1.709647  -0.792151  1.453744
H    -0.397524  0.088503  3.872214
C    -2.174025  1.311564  3.657837
C    -2.369958  1.593369  5.113187
C    -1.501534  2.277023  5.938290
C    -3.472998  1.180682  5.943021
N    -2.000859  2.307049  7.226352
C    -3.210817  1.646595  7.263712
C    -4.653049  0.455088  5.701629
C    -4.085464  1.409481  8.328194
C    -5.525013  0.218627  6.757388
C    -5.244874  0.690472  8.056577
H    -3.142915  1.236819  3.143006
H    -1.616521  2.130571  3.184656
H    -0.558693  2.757794  5.697658
H    -1.565735  2.777276  8.007899
H    -4.875311  0.072628  4.704910
H    -3.870319  1.773185  9.333335
H    -6.442911  -0.341992  6.582072
H    -5.949727  0.488685  8.862618
N    -1.957266  -1.592255  5.093458
C    -2.752470  -2.617283  5.744507
H    -1.441709  -0.942744  5.677599
H    -3.513304  -2.169792  6.400804
H    -2.111391  -3.284745  6.334560
H    -3.254169  -3.197807  4.963833
