36
Energy: -23361.3362415 eV PBE+vdW (tier 2 basis)
C    -1.249544  1.424042  0.129549
C    -0.909112  0.468590  1.255495
O    0.097910  -0.239204  1.241751
H    -1.010045  0.950113  -0.828226
H    -0.623091  2.321137  0.229417
H    -2.299148  1.742290  0.133817
N    -1.810510  0.448564  2.288168
C    -1.522710  -0.191327  3.563535
C    -2.669429  -1.138335  3.983521
O    -3.287386  -0.991732  5.039574
H    -2.524183  1.171313  2.306531
H    -0.619974  -0.796449  3.385714
C    -1.212571  0.851557  4.663777
C    -2.124069  2.042459  4.655535
C    -3.335080  2.172955  5.300915
C    -1.918232  3.270342  3.929974
N    -3.883760  3.409026  5.022161
C    -3.044427  4.108206  4.181914
C    -0.896805  3.747227  3.087960
C    -3.170082  5.381704  3.620169
C    -1.019544  5.012707  2.527070
C    -2.144558  5.821524  2.788981
H    -0.176747  1.187244  4.513149
H    -1.254602  0.342608  5.634291
H    -3.852240  1.454102  5.926261
H    -4.765487  3.746540  5.382577
H    -0.020339  3.132912  2.877878
H    -4.037831  6.009792  3.824139
H    -0.232721  5.392032  1.875153
H    -2.211012  6.809557  2.334440
N    -2.962905  -2.168415  3.138127
C    -2.337441  -2.539280  1.879055
H    -3.746589  -2.727703  3.461100
H    -2.384251  -3.629425  1.766851
H    -1.282840  -2.243105  1.855522
H    -2.836838  -2.075851  1.014164
