36
Energy: -23360.7548837 eV PBE+vdW (tier 2 basis)
C    0.319588  -0.159662  0.661941
C    -0.099456  -0.545134  2.066508
O    0.514033  -1.392384  2.710383
H    0.524455  0.915092  0.574717
H    -0.461172  -0.420614  -0.064930
H    1.229664  -0.715266  0.422302
N    -1.193634  0.075969  2.626305
C    -2.166221  1.028832  2.080656
C    -3.002701  0.366632  0.944125
O    -3.763073  -0.544676  1.272351
H    -1.442771  -0.349704  3.513644
H    -2.922883  1.095009  2.874659
C    -1.599191  2.448344  1.921922
C    -2.641187  3.500940  1.691376
C    -4.009717  3.395626  1.831497
C    -2.381450  4.853081  1.270792
N    -4.605805  4.603426  1.522844
C    -3.636875  5.518732  1.174335
C    -1.209862  5.564931  0.959526
C    -3.745689  6.855661  0.782626
C    -1.314586  6.894068  0.567302
C    -2.568426  7.532349  0.480597
H    -0.844300  2.495910  1.125045
H    -1.046682  2.664234  2.850987
H    -4.624148  2.548288  2.117295
H    -5.600150  4.781465  1.547776
H    -0.232527  5.086143  1.029390
H    -4.714163  7.351755  0.714967
H    -0.413952  7.457387  0.324706
H    -2.616554  8.576188  0.172010
N    -2.910753  0.728304  -0.372594
C    -2.209991  1.801238  -1.065960
H    -3.545604  0.167277  -0.933439
H    -1.119347  1.707042  -0.989085
H    -2.510044  2.794296  -0.706784
H    -2.469061  1.730745  -2.127562
