36
Energy: -23361.3647405 eV PBE+vdW (tier 2 basis)
C    -0.964665  -0.361920  -0.449146
C    -0.359273  -0.176095  0.926661
O    0.604527  0.549475  1.138892
H    -1.696215  0.444885  -0.606592
H    -1.482016  -1.322835  -0.566922
H    -0.182644  -0.266968  -1.208532
N    -0.993683  -0.874184  1.940972
C    -0.861008  -0.432009  3.325332
C    -0.005159  -1.348128  4.217151
O    0.107473  -1.117867  5.420240
H    -1.902347  -1.262149  1.699327
H    -0.308052  0.518957  3.285837
C    -2.250272  -0.214373  3.988685
C    -3.288001  0.335305  3.059844
C    -4.500792  -0.258228  2.781588
C    -3.230879  1.529909  2.253221
N    -5.200344  0.498332  1.861578
C    -4.446742  1.598849  1.512356
C    -2.268075  2.537621  2.062668
C    -4.717475  2.628896  0.607442
C    -2.531818  3.560431  1.160331
C    -3.743091  3.607365  0.441367
H    -2.092805  0.440877  4.855874
H    -2.607937  -1.170780  4.398587
H    -4.929162  -1.169178  3.187766
H    -6.126363  0.288656  1.516128
H    -1.321625  2.516281  2.601157
H    -5.654240  2.664715  0.050591
H    -1.788021  4.340510  1.001994
H    -3.919330  4.424312  -0.257815
N    0.591037  -2.387652  3.576440
C    1.501344  -3.297799  4.239235
H    0.454992  -2.436971  2.572263
H    2.528499  -3.182408  3.863847
H    1.188476  -4.341856  4.100229
H    1.487685  -3.058975  5.308403
