36
Energy: -23361.4678125 eV PBE+vdW (tier 2 basis)
C    -2.025985  1.418676  1.600818
C    -1.409731  0.655749  2.753561
O    -0.334298  0.999634  3.262342
H    -2.329305  2.409719  1.963577
H    -2.900127  0.920046  1.164973
H    -1.268237  1.568855  0.823263
N    -2.111446  -0.422807  3.195309
C    -1.795610  -1.104910  4.449474
C    -0.693707  -2.184655  4.237140
O    -0.936034  -3.390329  4.272959
H    -3.045210  -0.574690  2.825240
H    -1.383963  -0.340174  5.126404
C    -3.061194  -1.741503  5.052347
C    -4.285836  -0.888257  4.945010
C    -5.426875  -1.199447  4.236334
C    -4.511838  0.413780  5.519461
N    -6.344830  -0.171595  4.341450
C    -5.814501  0.833312  5.122667
C    -3.744036  1.269363  6.328956
C    -6.355693  2.062700  5.508453
C    -4.278124  2.492823  6.714074
C    -5.569587  2.885514  6.308214
H    -2.839633  -1.976615  6.104029
H    -3.222827  -2.710685  4.560458
H    -5.662955  -2.096997  3.673320
H    -7.270666  -0.172340  3.936824
H    -2.744359  0.980126  6.653138
H    -7.355043  2.367421  5.196535
H    -3.691099  3.163422  7.340891
H    -5.959931  3.851407  6.627527
N    0.532994  -1.646084  4.021651
C    1.692545  -2.454192  3.702134
H    0.562520  -0.629649  3.887563
H    1.465707  -3.495399  3.954599
H    2.563141  -2.121921  4.282653
H    1.943774  -2.400298  2.631652
