36
Energy: -23361.3580062 eV PBE+vdW (tier 2 basis)
C    0.408582  1.444632  0.005233
C    0.303928  1.370353  1.515777
O    1.095561  1.985822  2.241895
H    1.399790  1.081525  -0.293978
H    0.339687  2.495786  -0.300858
H    -0.357053  0.865594  -0.525168
N    -0.707186  0.595491  1.998059
C    -0.995290  0.290502  3.407992
C    -1.565978  1.476511  4.230983
O    -2.642392  1.349390  4.814991
H    -1.330796  0.183045  1.315826
H    -1.833173  -0.416167  3.388932
C    0.207488  -0.406759  4.104747
C    -0.009658  -0.615271  5.570858
C    -0.777477  -1.592326  6.165246
C    0.474604  0.222121  6.636354
N    -0.795092  -1.409503  7.532623
C    -0.040831  -0.302838  7.856320
C    1.296889  1.361459  6.686059
C    0.233747  0.277477  9.097723
C    1.571193  1.942180  7.917976
C    1.043357  1.408059  9.111727
H    1.110003  0.195369  3.943127
H    0.373079  -1.364963  3.589678
H    -1.331557  -2.408490  5.713189
H    -1.302261  -1.984928  8.190156
H    1.712641  1.785177  5.771754
H    -0.172534  -0.136553  10.021008
H    2.207525  2.825717  7.967102
H    1.275309  1.888431  10.061899
N    -0.791708  2.586286  4.271771
C    -1.121858  3.730780  5.096172
H    0.078143  2.570019  3.730860
H    -0.905506  4.661494  4.556644
H    -0.550650  3.721773  6.037828
H    -2.188887  3.689213  5.339724
