36
Energy: -23361.4208708 eV PBE+vdW (tier 2 basis)
C    -4.070952  -0.433058  1.880058
C    -2.766271  0.042616  2.485261
O    -2.272264  1.134128  2.229937
H    -4.134700  -1.526065  1.802285
H    -4.195018  0.016327  0.890204
H    -4.896694  -0.094053  2.522788
N    -2.172081  -0.856034  3.358357
C    -1.176496  -0.407019  4.324598
C    0.114675  -1.245259  4.326891
O    0.926539  -1.155937  5.246341
H    -2.759963  -1.633226  3.647058
H    -0.888855  0.599186  3.978596
C    -1.760909  -0.286373  5.754064
C    -2.985202  0.573713  5.784893
C    -3.023832  1.949302  5.841189
C    -4.345625  0.141600  5.604156
N    -4.323801  2.391696  5.703658
C    -5.160902  1.310349  5.545179
C    -4.963179  -1.115632  5.473633
C    -6.542442  1.250134  5.343566
C    -6.336537  -1.179989  5.270494
C    -7.118208  -0.008443  5.201111
H    -0.966554  0.108149  6.399182
H    -1.987966  -1.293305  6.138972
H    -2.209441  2.658053  5.948233
H    -4.609745  3.360806  5.693611
H    -4.377277  -2.034026  5.543438
H    -7.148983  2.154922  5.296065
H    -6.822473  -2.150114  5.168765
H    -8.192522  -0.090418  5.039495
N    0.282302  -2.045711  3.238748
C    1.481530  -2.827047  3.017768
H    -0.437839  -1.997647  2.525557
H    2.095751  -2.753549  3.921951
H    2.061030  -2.443922  2.165121
H    1.236904  -3.882153  2.833776
