36
Energy: -23361.555253 eV PBE+vdW (tier 2 basis)
C    -1.145646  0.418844  0.196593
C    -0.717834  0.254297  1.639681
O    0.444310  0.483112  2.008393
H    -0.895044  1.436517  -0.127259
H    -2.216362  0.244523  0.035755
H    -0.568078  -0.273748  -0.428848
N    -1.684947  -0.164446  2.493637
C    -1.528152  -0.272168  3.941181
C    -0.826145  -1.592411  4.381203
O    -1.337908  -2.380622  5.178198
H    -2.603401  -0.399583  2.125555
H    -0.860108  0.548528  4.249673
C    -2.898457  -0.099735  4.625638
C    -4.009929  -0.876952  3.982876
C    -4.354718  -2.188445  4.230157
C    -4.895444  -0.414945  2.942950
N    -5.401993  -2.559463  3.412507
C    -5.757833  -1.501024  2.606182
C    -5.046800  0.804286  2.254345
C    -6.742351  -1.397186  1.620407
C    -6.023505  0.908259  1.270852
C    -6.862366  -0.180286  0.956562
H    -3.150797  0.970250  4.622167
H    -2.780811  -0.404999  5.672205
H    -3.900473  -2.888741  4.921939
H    -5.835826  -3.472296  3.405139
H    -4.408373  1.657166  2.488673
H    -7.392981  -2.237639  1.377013
H    -6.148601  1.848140  0.733654
H    -7.619182  -0.066315  0.181124
N    0.402090  -1.745894  3.828458
C    1.243890  -2.894778  4.092030
H    0.727852  -0.997162  3.205996
H    2.208509  -2.585551  4.518559
H    1.436465  -3.467141  3.172926
H    0.727256  -3.539284  4.811123
