36
Energy: -23360.9799027 eV PBE+vdW (tier 2 basis)
C    -0.095430  -0.525074  -0.134369
C    -0.234592  -0.876818  1.337613
O    0.145815  -1.947666  1.798203
H    -0.565608  -1.316220  -0.730952
H    0.970856  -0.511926  -0.392997
H    -0.537707  0.441506  -0.407507
N    -0.819319  0.086553  2.117680
C    -0.996811  -0.057422  3.555368
C    -1.929063  -1.205164  4.011008
O    -1.612551  -1.876487  4.986712
H    -1.115363  0.952330  1.682317
H    -0.035450  -0.345818  4.002641
C    -1.427991  1.313468  4.136101
C    -1.756944  1.295225  5.594666
C    -0.861949  1.340879  6.639910
C    -3.062175  1.154753  6.181613
N    -1.536476  1.238744  7.837938
C    -2.887563  1.121493  7.595327
C    -4.364244  1.054626  5.661758
C    -3.960845  0.993594  8.480681
C    -5.434521  0.927384  6.538249
C    -5.235563  0.895590  7.933606
H    -2.301319  1.684313  3.574646
H    -0.609716  2.022631  3.935088
H    0.219848  1.421718  6.621376
H    -1.102275  1.224985  8.750146
H    -4.537505  1.072072  4.585557
H    -3.806911  0.967451  9.559741
H    -6.447753  0.848710  6.144514
H    -6.095335  0.791660  8.594806
N    -3.116486  -1.421438  3.365530
C    -3.705695  -0.765577  2.213610
H    -3.626290  -2.200618  3.769314
H    -4.774335  -1.010037  2.190528
H    -3.258950  -1.088875  1.260934
H    -3.628465  0.327409  2.278502
