36
Energy: -23360.9701954 eV PBE+vdW (tier 2 basis)
C    -0.442533  -0.146668  1.169801
C    -0.293232  -1.477857  1.875876
O    0.716774  -1.749818  2.523916
H    -0.980472  0.562143  1.815571
H    -0.969899  -0.236410  0.215068
H    0.563551  0.251397  1.007429
N    -1.306077  -2.413259  1.801396
C    -2.663419  -2.380438  1.277297
C    -2.722860  -2.462067  -0.262784
O    -1.894525  -1.923967  -0.992032
H    -1.073447  -3.230576  2.356262
H    -3.130163  -3.287406  1.684581
C    -3.527571  -1.185842  1.787766
C    -3.640031  -1.170346  3.277290
C    -2.861885  -0.452407  4.158729
C    -4.514178  -1.984692  4.081069
N    -3.208870  -0.765974  5.456317
C    -4.216948  -1.704998  5.447021
C    -5.522295  -2.921134  3.790526
C    -4.889757  -2.325377  6.502655
C    -6.191922  -3.542980  4.837786
C    -5.878542  -3.249105  6.180072
H    -4.525860  -1.268024  1.331383
H    -3.103582  -0.246717  1.412851
H    -2.066005  0.257576  3.961761
H    -2.774670  -0.379291  6.282876
H    -5.784912  -3.155540  2.758580
H    -4.649627  -2.097085  7.541360
H    -6.975246  -4.269182  4.621793
H    -6.421289  -3.752923  6.979207
N    -3.779357  -3.152464  -0.796663
C    -4.863977  -3.845257  -0.122676
H    -3.798927  -3.114560  -1.811188
H    -5.394098  -4.458727  -0.859115
H    -5.594951  -3.156283  0.329103
H    -4.493835  -4.521201  0.659875
