36
Energy: -23361.4049158 eV PBE+vdW (tier 2 basis)
C    -6.116272  -1.737898  3.509639
C    -4.949848  -0.783981  3.352155
O    -4.602108  -0.353469  2.248459
H    -6.325008  -2.012261  4.550882
H    -5.908656  -2.648372  2.933725
H    -7.010708  -1.273622  3.076384
N    -4.319250  -0.419714  4.507817
C    -3.156322  0.467958  4.503532
C    -1.891746  -0.387450  4.246362
O    -1.255543  -0.908977  5.162038
H    -4.547659  -0.904232  5.368903
H    -3.306077  1.155204  3.660635
C    -3.066648  1.271759  5.810761
C    -2.230956  2.512185  5.693514
C    -2.712499  3.762849  5.370709
C    -0.806948  2.658692  5.866008
N    -1.675222  4.672158  5.328204
C    -0.493951  4.030001  5.632234
C    0.236014  1.778019  6.208398
C    0.807070  4.532015  5.728205
C    1.529247  2.275850  6.306427
C    1.814278  3.636151  6.068878
H    -2.670593  0.614391  6.599624
H    -4.091205  1.553111  6.095944
H    -3.731360  4.079122  5.170286
H    -1.772495  5.659310  5.136384
H    0.029797  0.721279  6.372136
H    1.024824  5.584758  5.545114
H    2.344038  1.601283  6.569191
H    2.840942  3.992018  6.152997
N    -1.602023  -0.531791  2.927171
C    -0.542221  -1.401729  2.455318
H    -2.317418  -0.219458  2.272355
H    -0.006785  -0.929153  1.622438
H    -0.930217  -2.376166  2.120609
H    0.153529  -1.570838  3.283562
