36
Energy: -23361.1148443 eV PBE+vdW (tier 2 basis)
C    0.005622  -0.403493  0.069761
C    0.319521  -0.648408  1.534514
O    1.439363  -0.953123  1.935561
H    0.910791  -0.047472  -0.431443
H    -0.807118  0.319019  -0.079902
H    -0.295207  -1.354212  -0.393323
N    -0.747299  -0.499075  2.383282
C    -0.725061  -0.893688  3.789028
C    0.516813  -0.386915  4.564737
O    1.154683  -1.140876  5.292003
H    -1.664055  -0.404793  1.960783
H    -1.596797  -0.393238  4.245125
C    -0.891498  -2.417170  3.995497
C    -2.064622  -2.976405  3.252228
C    -3.377191  -3.011151  3.672498
C    -2.053397  -3.544934  1.928954
N    -4.176621  -3.557604  2.684628
C    -3.394632  -3.900030  1.602802
C    -1.036406  -3.808311  0.993419
C    -3.738239  -4.484594  0.380139
C    -1.374845  -4.389787  -0.222319
C    -2.711473  -4.720937  -0.527892
H    -0.981382  -2.600346  5.073711
H    0.039180  -2.908301  3.684171
H    -3.809559  -2.696298  4.617039
H    -5.168494  -3.731378  2.768024
H    0.002159  -3.566388  1.221437
H    -4.769635  -4.750161  0.146085
H    -0.594452  -4.602236  -0.952888
H    -2.943273  -5.177179  -1.489917
N    0.805645  0.950423  4.516201
C    0.212354  2.005891  3.717387
H    1.659508  1.169752  5.019591
H    0.595132  2.028825  2.684939
H    0.437935  2.968632  4.192198
H    -0.878897  1.906536  3.677286
