24
Energy: -577769.9654757  eV PBE+vdW (tier 2 basis)
C    0.079395  -0.460515  -0.003910
C    0.200278  -0.679496  1.468126
O    1.096410  -1.560481  1.805123
H    1.063023  -0.215925  -0.425245
H    -0.648479  0.321641  -0.244065
H    -0.241754  -1.405545  -0.469210
N    -0.574505  0.022902  2.289507
C    -1.096867  -0.188833  3.648827
C    -2.574277  0.420979  3.499415
O    -2.774553  1.116407  2.505929
H    -1.273546  0.677821  1.843335
H    -1.187585  -1.262187  3.878862
C    -0.377816  0.601945  4.773930
S    0.847228  -0.386856  5.822439
H    -1.094082  0.940388  5.533909
H    0.147524  1.475282  4.372239
H    1.842170  0.544261  5.913118
N    -3.474073  0.157510  4.451441
C    -3.372277  -0.707325  5.624717
H    -4.373042  0.614257  4.292786
H    -4.335301  -1.206257  5.777722
H    -3.137160  -0.135234  6.533525
H    -2.624245  -1.495261  5.477881
Hg    1.606731  -1.533098  3.828220
