24
Energy: -577769.6161249  eV PBE+vdW (tier 2 basis)
C    -0.379995  1.371366  -0.230940
C    -0.271904  0.194976  0.691322
O    0.893038  -0.109944  1.084644
H    -0.003279  2.261484  0.294172
H    -1.410027  1.557402  -0.556364
H    0.270467  1.210730  -1.100236
N    -1.410353  -0.442669  1.040903
C    -1.631417  -1.354628  2.172433
C    -1.504412  -2.837243  1.732909
O    -0.355770  -3.359615  1.552234
H    -2.251092  -0.086201  0.589826
H    -0.810030  -1.199327  2.893641
C    -2.940101  -1.003799  2.893629
S    -2.785135  0.665877  3.628498
H    -3.116286  -1.725856  3.703223
H    -3.806666  -1.018274  2.213283
H    -3.948518  0.618004  4.325919
N    -2.584782  -3.567356  1.534594
C    -2.563761  -4.975355  1.109995
H    -3.494996  -3.127872  1.645811
H    -3.520366  -5.429789  1.381326
H    -1.744519  -5.497160  1.614706
H    -2.420944  -5.040835  0.023771
Hg    1.498910  -2.118220  1.922414
