24
Energy: -577769.2050039  eV PBE+vdW (tier 2 basis)
C    0.200961  0.441387  0.242031
C    -0.104549  0.199963  1.677787
O    0.782406  0.450697  2.550813
H    0.081138  1.513191  0.016213
H    -0.423942  -0.160515  -0.426384
H    1.259926  0.207191  0.065896
N    -1.297899  -0.296476  2.094163
C    -2.612669  0.087231  1.606302
C    -3.056534  1.311687  2.463247
O    -2.210637  1.991128  3.134694
H    -1.283631  -0.619432  3.063354
H    -2.508160  0.438716  0.568796
C    -3.545162  -1.161691  1.637747
S    -5.249601  -0.930487  1.041401
H    -3.664077  -1.523171  2.669113
H    -3.073578  -1.960083  1.052456
H    -4.955484  -0.803310  -0.280262
N    -4.315983  1.706574  2.405544
C    -4.906775  2.808314  3.168069
H    -4.922314  1.197280  1.739173
H    -5.976283  2.608246  3.287636
H    -4.780978  3.752041  2.618571
H    -4.424426  2.891083  4.145823
Hg    -0.195616  1.592472  4.307922
