24
Energy: -577769.1515857  eV PBE+vdW (tier 2 basis)
C    -2.629215  0.769867  -0.892061
C    -1.456482  1.120236  -0.044720
O    -1.155429  2.339438  0.128180
H    -3.563439  0.964460  -0.342886
H    -2.600613  -0.268595  -1.239997
H    -2.640581  1.442666  -1.761244
N    -0.673583  0.164884  0.528781
C    -1.195517  -0.985359  1.270763
C    -1.492448  -0.469932  2.704256
O    -0.875712  0.556307  3.128369
H    0.171225  0.552190  0.956372
H    -2.117301  -1.328619  0.782299
C    -0.148651  -2.111201  1.303988
S    0.342695  -2.485799  -0.409392
H    -0.541839  -3.017385  1.784096
H    0.739272  -1.790032  1.871609
H    1.293402  -3.403687  -0.089182
N    -2.336750  -1.113774  3.503259
C    -3.021618  -2.390933  3.312288
H    -2.456764  -0.668816  4.417715
H    -4.057790  -2.287052  3.656393
H    -2.535772  -3.174747  3.910145
H    -3.024900  -2.686155  2.259171
Hg    -0.761276  2.875181  2.358416
