24
Energy: -577769.5805864  eV PBE+vdW (tier 2 basis)
C    -0.051049  -0.021163  -0.044166
C    0.081736  -0.103808  1.449278
O    1.231577  -0.433034  1.881505
H    -1.083143  0.141258  -0.374032
H    0.330723  -0.952284  -0.484178
H    0.589922  0.793486  -0.409780
N    -1.009401  0.165599  2.187504
C    -1.336359  0.004886  3.633204
C    -0.811744  1.187185  4.482833
O    0.399925  1.288208  4.871190
H    -1.817120  0.423828  1.625214
H    -2.432435  0.064286  3.651520
C    -0.983676  -1.383143  4.206970
S    -1.944915  -1.866212  5.655259
H    0.099966  -1.487089  4.459812
H    -1.189862  -2.151947  3.450366
H    -1.582839  -0.833035  6.460168
N    -1.682637  2.119496  4.826707
C    -1.356207  3.321233  5.605594
H    -2.659568  1.978010  4.576599
H    -0.332599  3.635655  5.382515
H    -1.445298  3.111884  6.679694
H    -2.061395  4.111465  5.331550
Hg    1.953396  -0.061764  3.950679
