24
Energy: -577769.4725140  eV PBE+vdW (tier 2 basis)
C    0.286332  1.392194  0.898851
C    -0.308367  0.779587  2.120358
O    0.232407  0.871913  3.266198
H    1.277971  0.954037  0.713474
H    0.446421  2.462936  1.089581
H    -0.327032  1.271232  -0.000187
N    -1.481000  0.115772  2.005956
C    -2.203623  -0.531122  3.089483
C    -1.236958  -1.247951  4.061619
O    -0.262811  -1.906934  3.600058
H    -1.913070  0.085502  1.082298
H    -2.756828  0.232990  3.665778
C    -3.199504  -1.553527  2.512490
S    -4.593140  -0.686263  1.727278
H    -3.598764  -2.169958  3.333371
H    -2.703325  -2.232573  1.800226
H    -5.178772  -1.795255  1.202959
N    -1.526086  -1.191286  5.357784
C    -0.723778  -1.835897  6.390567
H    -2.296119  -0.596876  5.661621
H    -1.325628  -1.927282  7.300283
H    0.161393  -1.220814  6.634172
H    -0.397567  -2.823672  6.049625
Hg    1.775849  -0.780752  3.871160
