24
Energy: -577769.4259044  eV PBE+vdW (tier 2 basis)
C    0.302909  -1.625881  1.055821
C    -0.259402  -0.458696  1.809639
O    0.566383  0.396999  2.239574
H    1.145323  -2.049053  1.616108
H    0.699736  -1.264132  0.095544
H    -0.446804  -2.402848  0.864317
N    -1.599073  -0.394232  1.978984
C    -2.352877  0.757669  2.463568
C    -2.367787  0.852937  4.018161
O    -1.667389  1.759049  4.581296
H    -2.127256  -1.174090  1.594145
H    -1.806189  1.664365  2.156151
C    -3.751916  0.862101  1.812540
S    -3.697836  1.570283  0.134751
H    -4.364814  1.566547  2.390377
H    -4.284412  -0.096694  1.795535
H    -3.249124  0.463946  -0.510858
N    -3.100739  0.068390  4.792296
C    -4.076745  -0.969701  4.448517
H    -3.010248  0.281346  5.788997
H    -3.763430  -1.531138  3.563623
H    -5.074670  -0.539298  4.294654
H    -4.126837  -1.667165  5.291242
Hg    0.296196  2.256294  3.554020
