24
Energy: -577769.2220017  eV PBE+vdW (tier 2 basis)
C    -0.857267  0.630799  -0.070341
C    -0.347169  0.535045  1.342195
O    0.393772  1.498756  1.712764
H    -1.945435  0.795411  -0.056315
H    -0.632942  -0.285391  -0.632566
H    -0.386902  1.479902  -0.574291
N    -0.667453  -0.490443  2.132500
C    -1.548006  -1.615714  1.837923
C    -2.159911  -2.028228  3.197970
O    -1.558990  -1.782516  4.235155
H    -0.354621  -0.495934  3.111295
H    -2.324519  -1.313044  1.122687
C    -0.737154  -2.822552  1.271552
S    -1.779195  -4.309808  1.088444
H    0.115002  -3.051713  1.920635
H    -0.360326  -2.587249  0.267519
H    -1.290736  -5.002878  2.149236
N    -3.318737  -2.760632  3.152865
C    -3.922532  -3.352442  4.334185
H    -3.878960  -2.734025  2.301689
H    -4.703322  -2.678081  4.728670
H    -3.161063  -3.500696  5.104341
H    -4.405911  -4.299490  4.064286
Hg    1.367851  2.097109  3.733549
