24
Energy: -577769.3765524  eV PBE+vdW (tier 2 basis)
C    0.290274  0.940187  0.352798
C    0.001503  -0.076765  1.414250
O    1.020141  -0.536678  2.029559
H    1.123073  0.596834  -0.272132
H    0.608542  1.873580  0.841741
H    -0.590569  1.143123  -0.267930
N    -1.278272  -0.418006  1.636232
C    -1.841390  -1.115925  2.784400
C    -1.745605  -2.660053  2.667985
O    -0.886791  -3.280001  3.398135
H    -1.996029  0.097924  1.098712
H    -1.213347  -0.897795  3.664208
C    -3.263736  -0.544221  3.161537
S    -4.068837  0.553146  1.949101
H    -3.128413  0.087031  4.047756
H    -3.944733  -1.349239  3.455557
H    -4.883715  -0.358995  1.367859
N    -2.515200  -3.399334  1.890156
C    -3.646741  -3.020347  1.044360
H    -2.314849  -4.401543  1.949821
H    -3.723841  -3.761372  0.241606
H    -3.484039  -2.036560  0.594427
H    -4.585329  -3.033393  1.615337
Hg    1.003899  -2.122599  3.585524
