24
Energy: -577770.3814356  eV PBE+vdW (tier 2 basis)
C    -0.745656  0.402876  -0.024885
C    -0.561763  0.090137  1.428249
O    0.615673  -0.052960  1.857639
H    -0.216763  -0.347653  -0.626119
H    -0.264642  1.369855  -0.233734
H    -1.795777  0.453497  -0.333072
N    -1.685417  -0.003176  2.187147
C    -1.855160  -0.059389  3.650465
C    -0.911957  0.903356  4.415481
O    0.159337  0.511043  4.972148
H    -2.550334  0.122345  1.667044
H    -2.866291  0.345775  3.814315
C    -1.986705  -1.473842  4.277557
S    -0.699606  -2.801145  4.106585
H    -2.899097  -1.955101  3.900096
H    -2.094398  -1.373668  5.366716
H    -0.860093  -3.050920  2.777151
N    -1.276109  2.173325  4.534860
C    -2.525788  2.824622  4.124434
H    -0.598343  2.747286  5.041854
H    -3.383957  2.435065  4.688583
H    -2.693669  2.716612  3.046226
H    -2.434548  3.891525  4.346457
Hg    1.165065  -1.143465  3.775803
