24
Energy: -577769.4356652  eV PBE+vdW (tier 2 basis)
C    -0.523788  1.279803  0.345885
C    -0.201521  0.587469  1.635523
O    0.991468  0.686343  2.050778
H    0.275440  1.096060  -0.381174
H    -0.556527  2.363833  0.533726
H    -1.488426  0.960871  -0.067248
N    -1.192361  -0.078907  2.264164
C    -1.167703  -0.574923  3.638720
C    -0.464315  -1.956518  3.767680
O    0.679733  -2.008642  4.336984
H    -2.097931  -0.039304  1.801069
H    -0.521215  0.097675  4.224853
C    -2.565096  -0.524278  4.301748
S    -3.217896  1.167441  4.496384
H    -2.523764  -1.018070  5.281072
H    -3.318113  -1.049305  3.701415
H    -2.493993  1.498437  5.596240
N    -0.997432  -3.096866  3.358163
C    -2.314942  -3.390430  2.787793
H    -0.400375  -3.908600  3.537923
H    -2.652725  -2.582439  2.132896
H    -3.054032  -3.580417  3.577272
H    -2.216424  -4.298282  2.183161
Hg    2.033936  -0.262951  3.839974
