24
Energy: -577769.4769591  eV PBE+vdW (tier 2 basis)
C    -0.392616  0.830784  0.276234
C    -0.466638  0.326575  1.689395
O    0.464596  0.720808  2.459910
H    -0.521298  1.922257  0.283616
H    -1.141436  0.374444  -0.380818
H    0.611825  0.628163  -0.118612
N    -1.490301  -0.485582  2.007471
C    -1.785904  -1.316091  3.205909
C    -2.243029  -0.484141  4.426929
O    -1.431936  -0.125877  5.353724
H    -2.109049  -0.672945  1.222250
H    -2.656705  -1.908279  2.898726
C    -0.675142  -2.325364  3.556377
S    -1.209314  -3.390194  4.937336
H    0.256753  -1.836168  3.885468
H    -0.429258  -2.929248  2.676415
H    -1.589548  -4.451846  4.182107
N    -3.519698  -0.166825  4.563541
C    -4.670785  -0.631209  3.780659
H    -3.722526  0.395661  5.393858
H    -4.579183  -0.332198  2.729558
H    -5.567233  -0.160356  4.193402
H    -4.787998  -1.720737  3.860509
Hg    0.527424  0.724365  4.691038
