24
Energy: -577769.4986465  eV PBE+vdW (tier 2 basis)
C    -0.437690  -0.661056  0.194175
C    -0.311502  -0.049632  1.558003
O    0.867515  0.073233  2.009962
H    -1.481656  -0.833390  -0.092462
H    0.121226  -1.604661  0.165765
H    0.030195  0.016121  -0.535509
N    -1.442628  0.327767  2.190577
C    -1.548203  1.172184  3.386897
C    -1.373527  0.382503  4.715626
O    -0.312627  0.586896  5.413938
H    -2.300225  0.160500  1.668418
H    -0.692967  1.865249  3.379296
C    -2.808654  2.065278  3.332383
S    -3.069565  2.935560  4.911236
H    -3.721487  1.477729  3.171676
H    -2.720659  2.779700  2.505198
H    -2.158315  3.922243  4.715505
N    -2.240373  -0.508333  5.166003
C    -3.596578  -0.821122  4.714142
H    -1.952690  -0.939643  6.048689
H    -3.662907  -0.820836  3.622628
H    -4.324147  -0.116612  5.141941
H    -3.843565  -1.826414  5.070632
Hg    1.493032  0.647739  4.101282
