24
Energy: -577769.7345758  eV PBE+vdW (tier 2 basis)
C    -0.769452  0.140948  -0.275111
C    -0.235994  -0.117635  1.098879
O    0.946036  -0.599404  1.153810
H    -1.795046  0.527472  -0.261545
H    -0.719306  -0.783025  -0.865726
H    -0.116523  0.875037  -0.770706
N    -1.015143  0.179594  2.155506
C    -0.636809  0.334271  3.568871
C    -0.840604  -0.972024  4.378621
O    0.129977  -1.808344  4.544718
H    -1.960077  0.479534  1.919731
H    0.448285  0.533001  3.602798
C    -1.263643  1.619406  4.176649
S    -3.075444  1.676969  4.399041
H    -0.935718  2.483546  3.586145
H    -0.855738  1.747780  5.188661
H    -3.424184  2.001319  3.128619
N    -2.004363  -1.228096  4.925664
C    -2.338984  -2.427826  5.701475
H    -2.717931  -0.481163  4.831265
H    -3.422566  -2.570479  5.655391
H    -2.036190  -2.293268  6.748639
H    -1.820681  -3.297915  5.287295
Hg    1.635099  -1.640702  2.966312
