24
Energy: -577770.0984112  eV PBE+vdW (tier 2 basis)
C    -0.405521  -1.118615  0.268550
C    -0.256716  -0.794448  1.718085
O    0.032697  -1.815020  2.470149
H    0.483988  -1.654385  -0.086747
H    -0.585406  -0.223724  -0.336543
H    -1.259196  -1.805311  0.154589
N    -0.411793  0.465942  2.117111
C    -0.827616  1.103247  3.376687
C    -1.742170  2.304179  2.812344
O    -1.599346  2.587668  1.626587
H    -0.659863  1.170207  1.372648
H    -1.461193  0.431649  3.977435
C    0.304400  1.751347  4.214434
S    1.178313  0.769858  5.559897
H    -0.068918  2.625043  4.768045
H    1.129998  2.089686  3.573761
H    0.127505  0.624927  6.418402
N    -2.543945  2.913772  3.686523
C    -3.419885  4.033514  3.304902
H    -2.682552  2.508156  4.607297
H    -3.563839  4.679240  4.176351
H    -4.391839  3.660233  2.958727
H    -2.943295  4.599302  2.499666
Hg    0.767205  -1.289897  4.353282
