24
Energy: -577770.3355566  eV PBE+vdW (tier 2 basis)
C    -0.068549  1.130317  2.227244
C    -0.171237  -0.292631  1.773783
O    0.876426  -0.995575  1.780823
H    -1.024897  1.664348  2.217823
H    0.655049  1.656428  1.590009
H    0.342770  1.142672  3.246578
N    -1.398377  -0.734800  1.394065
C    -1.872296  -2.098018  1.093822
C    -1.309756  -3.170855  2.060487
O    -0.355108  -3.945031  1.742153
H    -2.129311  -0.028368  1.428195
H    -2.950724  -2.058548  1.315870
C    -1.882995  -2.507857  -0.402403
S    -0.337237  -2.333744  -1.447353
H    -2.598909  -1.868209  -0.934984
H    -2.216046  -3.548399  -0.491291
H    -0.356552  -3.583640  -1.986623
N    -1.896874  -3.317760  3.240797
C    -3.102756  -2.666452  3.765635
H    -1.463940  -4.035334  3.826855
H    -2.987022  -1.576280  3.785999
H    -3.247872  -3.010703  4.793371
H    -3.993013  -2.947736  3.186836
Hg    1.196223  -2.840825  0.489304
