24
Energy: -577769.3796591  eV PBE+vdW (tier 2 basis)
C    -0.698889  -2.031933  0.194499
C    -0.645100  -1.465087  1.583387
O    -0.273899  -2.273362  2.490093
H    -1.488465  -2.797330  0.162857
H    0.249832  -2.533984  -0.031051
H    -0.911016  -1.270760  -0.565519
N    -0.996622  -0.175411  1.741977
C    -1.351875  0.618408  2.938934
C    -0.128253  1.040062  3.784487
O    0.329323  0.344492  4.755438
H    -1.254430  0.273075  0.866861
H    -1.757223  1.547652  2.520914
C    -2.474686  0.002284  3.809031
S    -4.030324  -0.264502  2.896552
H    -2.659763  0.646482  4.678353
H    -2.210377  -0.991243  4.192349
H    -4.485923  1.012230  2.973336
N    0.429930  2.223319  3.572369
C    0.020610  3.305958  2.669432
H    1.210970  2.428512  4.201119
H    -0.200922  2.924215  1.667212
H    0.860588  4.002820  2.588646
H    -0.842136  3.853328  3.072779
Hg    0.402652  -1.886225  4.593946
