24
Energy: -577768.9549327  eV PBE+vdW (tier 2 basis)
C    0.001655  0.347461  0.080985
C    -0.085326  -0.013906  1.522190
O    0.974332  -0.011640  2.220334
H    -0.820111  0.999309  -0.233339
H    0.002296  -0.568300  -0.532171
H    0.960682  0.848379  -0.095135
N    -1.265928  -0.276435  2.167892
C    -2.319192  -1.201696  1.751684
C    -1.684236  -2.632106  1.798223
O    -0.439758  -2.727067  1.601338
H    -1.134865  -0.268480  3.182057
H    -3.092545  -1.130245  2.531734
C    -2.974681  -0.914199  0.394427
S    -3.846247  0.679336  0.508639
H    -3.707024  -1.699348  0.157929
H    -2.244451  -0.899079  -0.426370
H    -4.445096  0.609179  -0.710134
N    -2.435803  -3.701514  2.038433
C    -3.883191  -3.823943  2.198678
H    -1.902428  -4.573763  2.093167
H    -4.091747  -4.439923  3.081894
H    -4.315582  -4.322767  1.319626
H    -4.355191  -2.845714  2.326298
Hg    1.491425  -2.130953  3.009636
