24
Energy: -577769.7481898  eV PBE+vdW (tier 2 basis)
C    1.193887  0.659628  1.310762
C    0.137011  -0.325563  1.710344
O    0.332922  -1.274715  2.458695
H    1.439517  1.281303  2.183955
H    0.887612  1.305894  0.480316
H    2.105241  0.111916  1.042267
N    -1.150498  -0.136273  1.179575
C    -2.219808  -0.979088  1.669597
C    -2.981640  -1.696902  0.539524
O    -4.108784  -2.278724  0.722648
H    -1.368707  0.769886  0.768121
H    -1.665344  -1.773768  2.216355
C    -3.144298  -0.226244  2.664138
S    -3.519769  -1.265182  4.159061
H    -4.081538  0.122651  2.215635
H    -2.607773  0.636106  3.084602
H    -4.562117  -0.531292  4.649166
N    -2.426589  -1.718341  -0.655468
C    -2.941810  -2.429633  -1.826470
H    -1.576645  -1.160138  -0.756801
H    -2.091231  -2.800980  -2.407367
H    -3.532212  -1.746233  -2.451823
H    -3.574900  -3.260743  -1.504416
Hg    -4.807552  -2.978625  2.757816
