24
Energy: -577768.9646033  eV PBE+vdW (tier 2 basis)
C    -0.408118  -2.102269  0.027813
C    -0.063268  -1.401338  1.297258
O    0.941650  -1.821303  1.954904
H    -0.621310  -1.403330  -0.787952
H    0.427029  -2.753709  -0.251132
H    -1.283865  -2.751010  0.191784
N    -0.723405  -0.307604  1.769002
C    -2.174466  -0.091831  1.890150
C    -2.706232  -1.109775  2.947100
O    -1.990239  -2.089797  3.298002
H    -0.203470  0.138322  2.526961
H    -2.275776  0.918855  2.312422
C    -2.958046  -0.122216  0.563690
S    -2.254543  0.981595  -0.700640
H    -4.004887  0.165831  0.735673
H    -2.976131  -1.118219  0.106716
H    -2.448558  2.153025  -0.038119
N    -3.930730  -0.931169  3.436540
C    -4.566699  -1.786474  4.439241
H    -4.496915  -0.169518  3.065971
H    -5.098825  -1.153422  5.158299
H    -3.804116  -2.385594  4.942664
H    -5.289503  -2.458433  3.954696
Hg    0.339028  -2.336644  4.110352
