24
Energy: -577769.0806164  eV PBE+vdW (tier 2 basis)
C    -0.203395  -0.097577  -0.129844
C    -0.115978  0.022308  1.351926
O    1.009916  -0.124074  1.915214
H    0.222863  0.799867  -0.604032
H    -1.231243  -0.263460  -0.471961
H    0.427572  -0.939331  -0.449413
N    -1.215941  0.249345  2.118948
C    -2.214824  1.277815  1.859592
C    -1.695629  2.554545  2.587940
O    -0.855642  2.442266  3.532533
H    -1.025191  0.151393  3.118950
H    -2.269839  1.459866  0.778771
C    -3.610726  0.862628  2.399052
S    -4.408392  -0.469558  1.461682
H    -4.309793  1.705181  2.331091
H    -3.542393  0.578374  3.459495
H    -3.579292  -1.473090  1.851794
N    -2.155670  3.758458  2.257736
C    -3.235693  4.131254  1.348013
H    -1.729465  4.520848  2.792298
H    -2.940453  5.044136  0.816699
H    -4.155456  4.346873  1.911765
H    -3.429588  3.343768  0.614117
Hg    1.358867  1.398836  3.645127
