24
Energy: -577769.0028649  eV PBE+vdW (tier 2 basis)
C    0.141923  0.248093  0.175200
C    -0.003281  -0.070152  1.623830
O    1.016743  -0.078942  2.364586
H    -0.696942  0.840296  -0.206744
H    0.243819  -0.678248  -0.410860
H    1.072109  0.814202  0.038918
N    -1.231717  -0.254292  2.231406
C    -2.249882  -1.187846  1.812388
C    -1.562208  -2.630326  1.918756
O    -0.348147  -2.685581  1.641639
H    -1.150471  -0.182327  3.248652
H    -3.049508  -1.135744  2.567207
C    -2.875001  -1.012458  0.407133
S    -4.139623  0.275140  0.377582
H    -3.410255  -1.930123  0.127542
H    -2.114008  -0.842546  -0.365743
H    -3.359053  1.293192  0.830472
N    -2.320055  -3.637882  2.331016
C    -1.822162  -4.989459  2.598194
H    -3.305593  -3.460190  2.520488
H    -1.635858  -5.125292  3.673099
H    -0.900910  -5.153657  2.032744
H    -2.588603  -5.708116  2.285326
Hg    1.649706  -2.220030  3.173949
