24
Energy: -577769.3561569  eV PBE+vdW (tier 2 basis)
C    0.932087  0.455330  0.769760
C    0.422287  -0.244074  1.982668
O    1.184830  -0.866206  2.788956
H    1.711049  1.166493  1.079767
H    0.157201  0.986690  0.207354
H    1.418342  -0.271528  0.102509
N    -0.900697  -0.200854  2.248687
C    -1.564318  -0.804175  3.392487
C    -1.055180  -2.232651  3.682618
O    -0.717671  -2.989405  2.721582
H    -1.485885  0.345063  1.615943
H    -1.361424  -0.191595  4.289522
C    -3.083790  -0.843300  3.135740
S    -3.765582  0.838385  3.288202
H    -3.569680  -1.485940  3.884370
H    -3.303814  -1.272352  2.145311
H    -5.010000  0.537703  2.831272
N    -1.057875  -2.654498  4.942808
C    -1.401563  -1.916794  6.163029
H    -0.765653  -3.626685  5.058920
H    -1.170444  -2.554093  7.020779
H    -2.468846  -1.664895  6.197443
H    -0.800132  -1.000192  6.244487
Hg    1.567295  -3.095708  2.282743
