24
Energy: -577769.4608869  eV PBE+vdW (tier 2 basis)
C    0.058947  -1.606368  1.096177
C    -0.431057  -0.383220  1.811457
O    0.438388  0.374244  2.326134
H    0.874420  -2.064351  1.666991
H    0.469680  -1.296783  0.122935
H    -0.740468  -2.338401  0.928757
N    -1.766731  -0.168763  1.855954
C    -2.421060  1.071028  2.263294
C    -2.487553  1.247213  3.809297
O    -1.773555  2.154466  4.349686
H    -2.338091  -0.864750  1.380783
H    -1.783484  1.911912  1.939690
C    -3.773828  1.260775  1.561260
S    -3.468643  1.594704  -0.211929
H    -4.289066  2.127663  1.999844
H    -4.429482  0.386781  1.666231
H    -4.759699  1.873023  -0.526408
N    -3.268482  0.520928  4.594999
C    -4.285585  -0.483052  4.273597
H    -3.194559  0.777031  5.583221
H    -4.362934  -1.161394  5.130046
H    -3.998412  -1.071533  3.397875
H    -5.265426  -0.013649  4.114630
Hg    0.307677  2.386500  3.444482
