24
Energy: -577769.8676685  eV PBE+vdW (tier 2 basis)
C    1.416893  -0.731713  0.485235
C    0.509365  -0.397762  1.627024
O    -0.022083  -1.390877  2.229500
H    1.857480  0.159492  0.024196
H    0.841894  -1.285344  -0.271528
H    2.210206  -1.404160  0.837884
N    0.304043  0.902121  1.926942
C    -0.664830  1.409052  2.894480
C    -1.467535  2.713866  2.559984
O    -2.070202  3.174200  3.529764
H    0.896795  1.569237  1.435280
H    -1.490454  0.675905  2.891325
C    -0.077288  1.562629  4.325022
S    -1.064336  0.746378  5.652502
H    -0.043569  2.618246  4.628244
H    0.928937  1.133320  4.414006
H    -2.281485  1.227090  5.246660
N    -1.506148  3.167720  1.304968
C    -2.285221  4.348575  0.910530
H    -0.991274  2.682964  0.576650
H    -2.835554  4.123682  -0.009535
H    -1.618874  5.202800  0.736588
H    -2.983970  4.592509  1.715361
Hg    -1.020748  -1.308307  4.205047
