24
Energy: -577769.5030362  eV PBE+vdW (tier 2 basis)
C    -0.402397  -1.031393  0.173145
C    -0.021009  -0.376649  1.467160
O    1.167690  -0.598819  1.864520
H    -0.353353  -2.122052  0.310245
H    0.332402  -0.769798  -0.598493
H    -1.412155  -0.762042  -0.157345
N    -0.950468  0.370534  2.090579
C    -1.093331  0.823732  3.496217
C    -0.348784  2.145058  3.801779
O    0.905265  2.229630  4.035927
H    -1.816397  0.438183  1.561835
H    -2.162993  1.059660  3.575574
C    -0.807680  -0.260032  4.565403
S    -1.777980  -1.788042  4.358478
H    -0.994687  0.166120  5.560011
H    0.236495  -0.598305  4.554818
H    -2.940243  -1.315247  4.877094
N    -1.082243  3.241868  3.892091
C    -0.555749  4.575313  4.205478
H    -2.092854  3.152907  3.806916
H    0.449896  4.680138  3.787703
H    -0.510804  4.716939  5.293672
H    -1.227128  5.321254  3.770049
Hg    2.315503  0.676042  3.284143
