24
Energy: -577769.0284787  eV PBE+vdW (tier 2 basis)
C    -0.148666  -0.265657  -0.204792
C    -0.178819  0.172483  1.217751
O    0.568677  1.119176  1.595332
H    -0.679310  0.466593  -0.832639
H    -0.570993  -1.267177  -0.340474
H    0.895555  -0.262440  -0.548051
N    -0.972406  -0.433377  2.145407
C    -2.381870  -0.759328  1.983727
C    -3.123871  0.568997  2.320055
O    -2.619263  1.357448  3.166844
H    -0.765210  -0.116747  3.095576
H    -2.571184  -1.066100  0.947614
C    -2.714397  -1.934328  2.961788
S    -4.376579  -2.657697  2.873478
H    -2.523059  -1.624651  3.998404
H    -2.033262  -2.759331  2.715959
H    -4.986120  -1.814518  3.747825
N    -4.271789  0.874401  1.707450
C    -5.065801  0.031990  0.830375
H    -4.645374  1.795057  1.952263
H    -4.578663  -0.097938  -0.148041
H    -6.045625  0.494378  0.685489
H    -5.201405  -0.977099  1.271255
Hg    -0.466429  2.652997  3.067003
