24
Energy: -577770.5301891  eV PBE+vdW (tier 2 basis)
C    -0.642357  1.165666  -0.423479
C    -1.050743  0.426186  0.814601
O    -0.101072  0.066104  1.578742
H    -0.167431  2.109971  -0.118692
H    -1.478165  1.386425  -1.096020
H    0.119621  0.581822  -0.955546
N    -2.375950  0.213900  0.989673
C    -3.264077  -0.259797  2.094687
C    -3.047090  0.539783  3.400128
O    -2.008376  0.376640  4.093473
H    -2.917417  0.573378  0.207284
H    -4.259298  0.004741  1.710016
C    -3.402023  -1.805587  2.260885
S    -2.360489  -2.847989  3.409163
H    -3.257457  -2.293385  1.287849
H    -4.424540  -2.033199  2.593101
H    -2.798938  -2.337925  4.594559
N    -4.003855  1.396569  3.741040
C    -3.963263  2.250316  4.933532
H    -4.823264  1.480075  3.144351
H    -2.978772  2.168844  5.399730
H    -4.737730  1.933666  5.643038
H    -4.150649  3.288555  4.636692
Hg    -0.499662  -1.239760  3.252194
