24
Energy: -577769.6471282  eV PBE+vdW (tier 2 basis)
C    -2.147253  -0.219295  -0.328095
C    -1.395558  -0.576608  0.918753
O    -0.349338  -1.278303  0.764644
H    -1.484384  0.370898  -0.977711
H    -3.055580  0.358474  -0.122380
H    -2.398542  -1.137890  -0.873793
N    -1.869304  -0.124124  2.097733
C    -1.170290  -0.076606  3.392034
C    -1.460809  -1.345124  4.239331
O    -0.684917  -2.356444  4.188915
H    -2.745675  0.390978  2.038212
H    -0.087696  -0.098100  3.192486
C    -1.467937  1.259461  4.089402
S    -0.575294  1.358100  5.680896
H    -2.549304  1.405904  4.255590
H    -1.129716  2.075587  3.437186
H    -0.524136  2.712962  5.726403
N    -2.519654  -1.375184  5.028016
C    -2.907916  -2.521759  5.860010
H    -3.062357  -0.521030  5.138222
H    -2.406834  -2.465938  6.835501
H    -2.618780  -3.450235  5.359095
H    -3.991663  -2.489635  6.006195
Hg    0.643938  -2.496090  2.375355
