24
Energy: -577769.4475168  eV PBE+vdW (tier 2 basis)
C    0.689626  1.169209  0.772835
C    0.338764  0.647465  2.124397
O    1.157550  -0.039922  2.814582
H    1.640122  1.716053  0.847071
H    -0.074353  1.823021  0.339126
H    0.864452  0.326119  0.088185
N    -0.877883  0.945433  2.630692
C    -1.425942  0.575140  3.923152
C    -0.913249  -0.784490  4.407387
O    -0.986443  -1.789699  3.631034
H    -1.478756  1.556145  2.071109
H    -1.155137  1.342554  4.667186
C    -2.988767  0.523520  3.833107
S    -3.786906  2.042600  3.253735
H    -3.383520  0.266263  4.826170
H    -3.299979  -0.259058  3.128591
H    -3.444506  2.834592  4.304695
N    -0.511728  -0.887014  5.668758
C    -0.082730  -2.138340  6.284949
H    -0.433302  -0.037765  6.226447
H    0.976376  -2.340609  6.047943
H    -0.703830  -2.964403  5.924899
H    -0.170934  -2.045827  7.372092
Hg    1.047071  -2.349991  2.719857
