24
Energy: -577768.9567103  eV PBE+vdW (tier 2 basis)
C    -1.151917  1.499518  -0.165410
C    -0.112767  1.031370  0.793416
O    1.082182  1.434683  0.623875
H    -2.114735  1.681692  0.322646
H    -1.272015  0.752214  -0.967487
H    -0.799077  2.420148  -0.646321
N    -0.379443  0.223762  1.851900
C    -1.186867  -0.999317  1.879314
C    -0.485391  -2.055647  0.980017
O    0.617460  -1.818597  0.390430
H    0.371482  0.222187  2.542465
H    -1.093013  -1.359349  2.916811
C    -2.697614  -0.803999  1.593620
S    -3.653763  -2.142428  2.411669
H    -2.929130  -0.795131  0.523113
H    -3.021788  0.147409  2.036642
H    -4.664749  -2.193654  1.506372
N    -1.083832  -3.225659  0.816768
C    -0.510713  -4.396881  0.155235
H    -2.051515  -3.297148  1.177106
H    -0.911254  -5.295859  0.636260
H    0.579406  -4.373832  0.234145
H    -0.797998  -4.407639  -0.906416
Hg    2.484633  -0.386557  0.703739
