24
Energy: -577769.6110590  eV PBE+vdW (tier 2 basis)
C    -0.142764  -0.043912  -0.107432
C    0.004173  -0.007947  1.383016
O    1.130280  0.374192  1.828442
H    -1.053242  -0.567739  -0.422844
H    0.740593  -0.512897  -0.555614
H    -0.187976  0.993303  -0.474102
N    -1.056743  -0.363712  2.135693
C    -1.310848  -0.052423  3.549290
C    -0.867831  -1.217901  4.474840
O    0.323717  -1.267067  4.935054
H    -1.862423  -0.683520  1.601052
H    -0.668015  0.797428  3.829296
C    -2.777126  0.391928  3.753299
S    -3.216974  1.918997  2.856081
H    -2.979503  0.528551  4.823116
H    -3.481213  -0.364524  3.372759
H    -2.672948  2.786772  3.746677
N    -1.725115  -2.163646  4.805738
C    -1.406628  -3.313757  5.664644
H    -2.693298  -2.062304  4.509672
H    -1.524844  -3.039153  6.720978
H    -0.374057  -3.628409  5.486660
H    -2.096335  -4.126598  5.420046
Hg    1.866765  0.003955  3.914248
