15
Energy: -244826.3868768  eV PBE+vdW (tier 2 basis)
N    0.451593  -0.499192  0.148945
C    0.278032  0.082264  1.505875
C    1.530878  -0.173493  2.332155
O    2.330834  -1.075897  2.016639
H    -0.512555  -0.789236  -0.125194
H    0.666429  0.264605  -0.501155
H    0.100103  1.168199  1.441491
C    -0.936033  -0.564761  2.250092
S    -2.427295  -0.529553  1.188868
H    -1.130258  -0.006126  3.173801
H    -0.713667  -1.601986  2.530090
H    -2.751705  -1.833593  1.342188
O    1.772525  0.508867  3.421228
H    1.124311  1.219528  3.602504
Ba    2.502316  -2.404220  -0.031335
