15
Energy: -244826.4812652  eV PBE+vdW (tier 2 basis)
N    1.438059  0.416292  0.375328
C    1.403650  0.951381  1.759656
C    2.820655  1.012424  2.309594
O    3.714271  0.277216  1.845171
H    0.522604  -0.073033  0.268656
H    1.383054  1.203789  -0.279114
H    0.950631  1.955116  1.781081
C    0.561652  0.018374  2.701462
S    -0.981004  -0.578999  1.954721
H    0.363135  0.530823  3.650034
H    1.126485  -0.893950  2.942013
H    -1.651508  0.599713  1.979930
O    3.122028  1.781071  3.324254
H    2.386593  2.351321  3.626980
Ba    3.739694  -1.087537  -0.188766
