15
Energy: -244826.3576569  eV PBE+vdW (tier 2 basis)
N    0.051629  1.221584  0.702770
C    0.240213  0.033067  1.583330
C    1.725055  -0.050325  1.949882
O    2.447841  0.962379  1.880186
H    0.266916  0.921863  -0.258846
H    -0.967590  1.373147  0.660204
H    -0.266832  0.256830  2.539468
C    -0.378881  -1.266399  1.016534
S    -2.117184  -1.060315  0.502576
H    -0.320541  -2.087811  1.746277
H    0.158104  -1.587932  0.111542
H    -2.653248  -1.111781  1.746440
O    2.258136  -1.158602  2.386110
H    1.638768  -1.917807  2.386104
Ba    1.885048  3.270190  1.249328
