15
Energy: -244826.9513009  eV PBE+vdW (tier 2 basis)
N    -0.121658  0.283929  0.478153
C    -0.212695  -0.734999  1.553506
C    1.179727  -0.908966  2.165429
O    2.189966  -0.732888  1.472466
H    -1.011149  0.299959  -0.032261
H    -0.057329  1.214019  0.907235
H    -0.930874  -0.437389  2.338037
C    -0.713184  -2.081677  0.979839
S    0.246872  -2.794861  -0.416735
H    -1.726383  -1.939361  0.578824
H    -0.792541  -2.845233  1.762675
H    1.142124  -3.504109  0.315802
O    1.321902  -1.315697  3.403612
H    0.484513  -1.376479  3.906100
Ba    2.245706  -0.291246  -1.004685
