15
Energy: -244827.2328893  eV PBE+vdW (tier 2 basis)
N    0.139675  -0.288031  -0.031626
C    0.022110  0.244594  1.369526
C    1.403680  0.288601  2.026756
O    2.367419  -0.352211  1.487282
H    0.290855  0.445477  -0.733861
H    0.927167  -0.954278  -0.088369
H    -0.390141  1.259785  1.314785
C    -0.947966  -0.667148  2.177075
S    -2.402663  -1.197166  1.217749
H    -1.240009  -0.149239  3.096483
H    -0.449040  -1.604038  2.462069
H    -3.032691  0.004464  1.189902
O    1.526317  0.930493  3.115294
H    -0.788544  -0.772218  -0.219837
Ba    3.959829  0.391914  3.387774
