15
Energy: -244826.9013242  eV PBE+vdW (tier 2 basis)
N    2.641129  -6.081063  0.543339
C    2.829590  -7.373239  1.314304
C    4.337730  -7.707359  1.066729
O    4.798266  -8.732892  1.701159
H    1.906852  -6.118040  -0.174285
H    2.458920  -5.271186  1.147623
H    2.657086  -7.167059  2.377738
C    1.852017  -8.446127  0.798642
S    1.832898  -10.062953  1.660091
H    2.071304  -8.701268  -0.248481
H    0.818877  -8.075464  0.837806
H    1.261877  -9.652174  2.819391
O    4.948230  -6.983960  0.285848
H    3.610465  -5.985465  0.084035
Ba    5.011761  -10.885754  2.493063
