15
Energy: -244826.3677673  eV PBE+vdW (tier 2 basis)
N    0.039618  -0.699031  -0.006763
C    0.062333  -0.295667  1.388245
C    1.198428  0.653505  1.825885
O    1.960030  1.165217  0.943956
H    -0.476257  -0.049516  -0.598531
H    0.976420  -0.795315  -0.403353
H    -0.870065  0.248859  1.608328
C    0.067257  -1.579251  2.247472
S    -1.104757  -2.693092  1.356132
H    -0.324910  -1.450309  3.263436
H    1.043139  -2.076497  2.292728
H    -1.162219  -3.672093  2.314778
O    1.318303  0.922696  3.069290
H    -0.258348  -3.402030  0.567033
Ba    3.092027  2.647527  2.641363
