15
Energy: -244826.8613637  eV PBE+vdW (tier 2 basis)
N    -0.044927  -0.351787  0.016526
C    0.088427  0.102998  1.472481
C    1.596251  0.104518  1.785298
O    2.412970  0.037999  0.800716
H    -0.805993  0.136652  -0.472874
H    0.862252  -0.164017  -0.454157
H    -0.248901  1.150482  1.502210
C    -0.799548  -0.735868  2.407482
S    -1.278836  0.123686  3.936026
H    -0.342330  -1.711091  2.623689
H    -1.758733  -0.925875  1.903325
H    -0.087769  -0.008107  4.562470
O    1.988889  0.206578  2.984740
H    -0.229840  -1.363065  -0.045204
Ba    4.428387  0.369457  2.404320
