15
Energy: -244826.9149853  eV PBE+vdW (tier 2 basis)
N    0.706843  -1.083850  -0.086600
C    0.253631  -0.521523  1.207955
C    1.471636  -0.405346  2.132484
O    2.400452  -1.219030  2.041281
H    -0.117998  -1.327316  -0.644711
H    1.171313  -0.343571  -0.624521
H    -0.210385  0.472779  1.083045
C    -0.812305  -1.423338  1.873631
S    -0.341655  -3.195502  2.092019
H    -1.740176  -1.395295  1.289961
H    -1.054490  -1.046672  2.875332
H    -1.149466  -3.713998  1.135720
O    1.519062  0.508376  3.069585
H    0.776905  1.145758  3.049857
Ba    2.511400  -3.221085  0.538763
