15
Energy: -244826.8614594  eV PBE+vdW (tier 2 basis)
N    -0.059524  -0.036536  -0.012644
C    -0.026156  -0.023847  1.518040
C    1.454774  0.123321  1.913756
O    1.807180  -0.076312  3.113450
H    0.809249  0.424266  -0.348337
H    -0.069075  -0.998787  -0.379641
H    -0.537970  0.898906  1.831827
C    -0.770378  -1.234723  2.106493
S    -1.410216  -0.962796  3.786169
H    -0.156298  -2.144212  2.054899
H    -1.676174  -1.414168  1.508422
H    -0.222341  -1.083008  4.420982
O    2.284816  0.483830  1.007195
H    -0.885395  0.449522  -0.385459
Ba    4.191505  0.635542  2.763853
