15
Energy: -244826.7715276  eV PBE+vdW (tier 2 basis)
N    2.540785  -6.150506  0.314955
C    2.779782  -7.307998  1.184162
C    4.301289  -7.566617  1.094752
O    4.857837  -8.561245  1.625849
H    2.084526  -6.381233  -0.569468
H    2.013410  -5.403773  0.767010
H    2.577823  -7.018991  2.228969
C    1.932432  -8.543794  0.827046
S    2.044705  -9.856341  2.123245
H    2.214148  -8.956249  -0.150054
H    0.877052  -8.247547  0.800262
H    1.193678  -10.746650  1.557389
O    4.949716  -6.679099  0.439426
H    4.158529  -6.043311  0.139280
Ba    5.105414  -10.794823  2.426487
