15
Energy: -244827.0777985  eV PBE+vdW (tier 2 basis)
N    -0.406161  -0.018763  -0.080271
C    -0.230375  0.321952  1.392302
C    1.273026  0.323251  1.694218
O    1.722949  1.175945  2.506701
H    -1.357515  -0.348730  -0.300910
H    -0.211794  0.792396  -0.686214
H    -0.668600  1.310663  1.566035
C    -0.913565  -0.776366  2.246306
S    -0.216713  -1.063681  3.914209
H    -0.796541  -1.756343  1.761289
H    -1.986830  -0.575385  2.351647
H    -0.537263  0.139452  4.451789
O    1.942406  -0.655933  1.228884
H    0.276061  -0.762772  -0.318320
Ba    3.305913  -0.554687  3.433333
