15
Energy: -244827.1334016  eV PBE+vdW (tier 2 basis)
N    -0.129503  -1.198365  0.232132
C    -0.292042  -0.153612  1.321963
C    1.116801  0.144075  1.852204
O    2.033889  -0.694238  1.568156
H    0.814412  -1.620254  0.391990
H    -0.858279  -1.924038  0.243504
H    -0.751615  0.736948  0.875493
C    -1.158969  -0.637641  2.503559
S    -0.340047  -1.634992  3.810526
H    -2.059613  -1.164887  2.160817
H    -1.505525  0.254866  3.038976
H    -0.198350  -2.797995  3.129344
O    1.246568  1.086927  2.679615
H    -0.128756  -0.773477  -0.705573
Ba    2.979028  -0.199318  3.956299
