15
Energy: -244826.8664095  eV PBE+vdW (tier 2 basis)
N    -0.126632  -0.474964  0.006888
C    0.022648  -0.004023  1.456703
C    1.540529  0.073920  1.721758
O    2.321840  0.107077  0.707543
H    -0.934862  -0.045515  -0.461360
H    0.750960  -0.221933  -0.490072
H    -0.363291  1.025816  1.484320
C    -0.781696  -0.884359  2.427118
S    -1.024529  -0.104244  4.058085
H    -0.265475  -1.839505  2.596069
H    -1.764463  -1.111842  1.994291
H    -2.235195  0.432006  3.777368
O    1.967550  0.131916  2.911005
H    -0.239695  -1.497244  -0.046620
Ba    4.360311  0.488896  2.293905
