15
Energy: -244827.0216581  eV PBE+vdW (tier 2 basis)
N    -0.106754  -0.115854  -0.128717
C    -0.086732  0.115304  1.372430
C    1.380270  0.119381  1.827193
O    2.133346  -0.780120  1.335843
H    -1.016201  -0.463554  -0.467066
H    0.107432  0.748520  -0.648455
H    -0.568720  1.077083  1.579391
C    -0.802185  -1.064266  2.065515
S    -0.326493  -1.177969  3.847317
H    -0.513230  -2.005878  1.580458
H    -1.890801  -0.938621  2.010003
H    -0.813828  -2.431290  4.014659
O    1.699600  0.881634  2.781685
H    0.630195  -0.811088  -0.352607
Ba    3.210097  -0.898280  3.716350
