15
Energy: -244826.9100726  eV PBE+vdW (tier 2 basis)
N    1.042781  -0.176722  0.110463
C    0.850198  0.040104  1.595703
C    2.304980  0.287338  2.110999
O    2.417627  0.457116  3.387415
H    0.814211  -1.126356  -0.208479
H    0.524591  0.492113  -0.471210
H    0.257801  0.956044  1.727812
C    0.146865  -1.154296  2.255805
S    -0.329077  -0.737301  3.986497
H    0.784265  -2.048321  2.241588
H    -0.794204  -1.373304  1.734521
H    -1.031322  -1.868276  4.238770
O    3.204593  0.286816  1.278110
H    2.102061  -0.014741  0.022847
Ba    2.383630  0.076784  5.670158
