15
Energy: -244827.2109113  eV PBE+vdW (tier 2 basis)
N    -0.383578  0.315727  0.388821
C    0.212906  0.023530  1.738256
C    1.731759  0.252672  1.644756
O    2.462921  -0.129178  2.607702
H    -0.471457  -0.633428  -0.079710
H    -1.307906  0.761043  0.436600
H    -0.165744  0.768525  2.454983
C    -0.199775  -1.390621  2.204337
S    -0.218277  -2.627635  0.863513
H    -1.230019  -1.371310  2.582652
H    0.445559  -1.703696  3.031606
H    1.123863  -2.780150  0.750448
O    2.196559  0.867083  0.625644
H    0.270932  0.906089  -0.152539
Ba    4.554256  0.924349  1.688929
