24
Energy:  -42917.6348092  eV PBE+vdW (tier 2 basis)
C    -0.287270  -0.605934  0.157866
C    -0.259954  -0.011630  1.523569
O    0.840791  0.128296  2.148908
H    -1.297359  -0.710168  -0.251129
H    0.203637  -1.588102  0.173891
H    0.305697  0.034226  -0.512045
N    -1.410325  0.387656  2.085075
C    -1.511802  1.135007  3.348878
C    -1.286113  0.184899  4.555871
O    -0.070717  0.046519  4.942016
H    -2.263689  0.264297  1.543749
H    -0.639933  1.805834  3.390679
C    -2.749935  2.034631  3.344195
S    -2.755222  2.964549  4.920968
H    -3.677028  1.461771  3.222807
H    -2.656493  2.728163  2.498116
H    -3.876288  3.675017  4.658764
N    -2.230516  -0.509462  5.158978
C    -3.682097  -0.535862  4.950990
H    -1.881764  -1.072618  5.936504
H    -3.926948  -0.683005  3.894186
H    -4.135977  0.389715  5.330209
H    -4.081205  -1.384350  5.513105
Ca    1.842511  0.091554  4.019852
