24
Energy:  -42916.9556617  eV PBE+vdW (tier 2 basis)
C    0.969908  0.905375  0.467811
C    0.255279  -0.200913  1.161307
O    0.739785  -1.401694  1.125372
H    0.473853  1.871955  0.598000
H    1.028238  0.673324  -0.605646
H    2.001603  0.972073  0.838989
N    -0.864255  0.041971  1.802975
C    -1.781808  -0.886221  2.453191
C    -3.063709  0.021193  2.645270
O    -2.923382  1.231289  2.465837
H    -1.300152  0.995272  1.831572
H    -2.012784  -1.724764  1.780334
C    -1.291162  -1.387477  3.826582
S    -0.342310  -2.971190  3.931002
H    -2.128298  -1.541293  4.516849
H    -0.629638  -0.646554  4.293444
H    -1.349499  -3.835921  3.651080
N    -4.219935  -0.559576  2.997937
C    -4.533557  -1.972595  3.174965
H    -4.980977  0.105597  3.130899
H    -3.882161  -2.602827  2.557595
H    -5.561582  -2.150904  2.841922
H    -4.458520  -2.282565  4.227494
Ca    1.349279  -3.250097  1.692894
