24
Energy:  -42917.6855472  eV PBE+vdW (tier 2 basis)
C    0.054857  -0.433010  0.087018
C    -0.028083  -0.439436  1.576994
O    0.940069  -0.900595  2.264675
H    -0.825949  -0.002199  -0.399633
H    0.187318  -1.468079  -0.260086
H    0.949723  0.121213  -0.227048
N    -1.133747  0.046378  2.154027
C    -1.568050  -0.004849  3.564511
C    -0.714496  0.846135  4.510104
O    0.513918  0.561632  4.723954
H    -1.855168  0.355981  1.507625
H    -2.577346  0.418927  3.544322
C    -1.715455  -1.447289  4.118646
S    -2.973925  -2.425513  3.248823
H    -2.063837  -1.379889  5.158566
H    -0.757717  -1.983230  4.133960
H    -2.205712  -2.774319  2.190416
N    -1.278859  1.832058  5.185545
C    -2.660686  2.331696  5.121286
H    -0.659941  2.289652  5.856730
H    -2.708469  3.252664  5.708723
H    -3.362921  1.608854  5.554694
H    -2.947011  2.571031  4.091056
Ca    2.110484  -0.618810  3.992095
