24
Energy:  -42918.2817095  eV PBE+vdW (tier 2 basis)
C    0.072276  1.191417  2.251461
C    -0.153493  -0.238437  1.889942
O    0.775107  -1.086673  2.001139
H    0.885978  1.588932  1.628702
H    0.416897  1.244408  3.293454
H    -0.813734  1.822725  2.130697
N    -1.374246  -0.594786  1.440374
C    -1.839476  -1.933311  1.026973
C    -1.589130  -3.008967  2.106267
O    -0.519724  -3.689404  2.117640
H    -2.057691  0.153851  1.362271
H    -2.930091  -1.823592  0.950213
C    -1.427299  -2.372503  -0.392851
S    0.373492  -2.378928  -0.830636
H    -1.897618  -1.690311  -1.111110
H    -1.819654  -3.380400  -0.572644
H    0.334540  -3.466303  -1.638063
N    -2.535025  -3.235317  3.006086
C    -3.839496  -2.578502  3.159530
H    -2.313498  -3.981372  3.666933
H    -4.297011  -2.954224  4.078887
H    -4.509098  -2.821796  2.324363
H    -3.728320  -1.492452  3.258053
Ca    1.501317  -3.088059  1.653317
