24
Energy:  -42916.1993763  eV PBE+vdW (tier 2 basis)
C    0.055345  -1.020199  0.922199
C    -1.077093  -1.325388  1.835571
O    -1.351067  -2.598839  2.063795
H    0.946241  -1.563807  1.267514
H    0.284700  0.046624  0.866983
H    -0.183003  -1.370287  -0.091278
N    -1.798751  -0.443610  2.462681
C    -1.780635  1.019850  2.466646
C    -2.343681  1.321174  3.898327
O    -2.932625  0.396079  4.480147
H    -2.469960  -0.715636  3.232022
H    -0.756350  1.398126  2.345275
C    -2.734202  1.618792  1.412643
S    -2.205779  1.218066  -0.293917
H    -2.747019  2.707563  1.548607
H    -3.749679  1.240919  1.586155
H    -3.406831  1.447883  -0.870130
N    -2.178015  2.558000  4.368095
C    -2.699621  3.015817  5.657110
H    -1.660277  3.227271  3.806029
H    -3.413827  3.833601  5.504035
H    -1.876449  3.367889  6.289588
H    -3.204102  2.178490  6.145344
Ca    -1.738887  -4.519956  2.324503
