24
Energy:  -42917.7194239  eV PBE+vdW (tier 2 basis)
C    0.549835  1.093776  0.831858
C    -0.043110  0.125365  1.796060
O    0.688778  -0.441453  2.678228
H    1.382525  0.617807  0.296893
H    0.976150  1.935326  1.397238
H    -0.176393  1.478223  0.108947
N    -1.349392  -0.135408  1.732203
C    -2.111323  -0.937782  2.684149
C    -1.799142  -2.442753  2.506257
O    -0.835317  -2.909134  3.212082
H    -1.948350  0.330861  1.028449
H    -1.714782  -0.727654  3.688716
C    -3.609079  -0.490896  2.704981
S    -4.258091  0.273304  1.173592
H    -3.736127  0.233225  3.515037
H    -4.248951  -1.345199  2.951314
H    -4.189139  1.557662  1.595440
N    -2.440757  -3.253922  1.686801
C    -3.511496  -2.989862  0.720089
H    -2.115872  -4.221245  1.737196
H    -3.448604  -3.751712  -0.062903
H    -3.385283  -2.008397  0.252628
H    -4.498615  -3.060368  1.194370
Ca    1.066536  -2.167763  3.830374
