24
Energy:  -42916.9687457  eV PBE+vdW (tier 2 basis)
C    0.301522  -0.354737  0.049758
C    0.147337  -0.566471  1.515458
O    1.068063  -1.199355  2.173809
H    1.245232  0.169250  -0.154002
H    -0.528567  0.213449  -0.380843
H    0.361251  -1.333967  -0.447100
N    -0.917618  -0.113902  2.133627
C    -1.320195  -0.263172  3.527258
C    -2.767242  0.372862  3.508448
O    -3.102476  0.966535  2.482033
H    -1.673835  0.425360  1.642918
H    -1.403013  -1.332544  3.778431
C    -0.397083  0.471053  4.524701
S    0.710040  -0.723511  5.410007
H    -0.977714  0.949825  5.320742
H    0.195112  1.239890  4.018397
H    1.356041  0.147014  6.226637
N    -3.546013  0.237190  4.590174
C    -3.306069  -0.503403  5.824425
H    -4.449344  0.700228  4.495684
H    -4.240216  -0.982210  6.137454
H    -2.970188  0.156321  6.637139
H    -2.568225  -1.299628  5.674154
Ca    2.506399  -1.719700  3.509311
