24
Energy:  -42916.9429365  eV PBE+vdW (tier 2 basis)
C    1.191195  0.714530  1.215089
C    0.178683  -0.327354  1.582454
O    0.419488  -1.361914  2.179348
H    1.448608  1.284653  2.119794
H    0.842914  1.414374  0.446886
H    2.108795  0.219104  0.878829
N    -1.158474  -0.068217  1.174935
C    -2.172408  -0.942572  1.714743
C    -2.918136  -1.717364  0.634897
O    -3.958929  -2.409345  0.956520
H    -1.404999  0.881927  0.906052
H    -1.551055  -1.702619  2.252747
C    -3.098377  -0.230729  2.723069
S    -3.761402  -1.408460  3.997798
H    -3.929326  0.299928  2.243673
H    -2.495914  0.483228  3.295439
H    -4.635674  -0.572275  4.614231
N    -2.437450  -1.701981  -0.583206
C    -2.928471  -2.445090  -1.740753
H    -1.604513  -1.115238  -0.690565
H    -2.158590  -3.153488  -2.070928
H    -3.140972  -1.744960  -2.557182
H    -3.838487  -2.986787  -1.474515
Ca    -5.261529  -3.104408  2.390880
