24
Energy:  -42917.8263597  eV PBE+vdW (tier 2 basis)
C    -0.029492  0.504337  0.128977
C    -0.002314  0.416485  1.618120
O    1.088000  0.591934  2.253679
H    0.225319  1.536534  -0.156053
H    -1.000823  0.248369  -0.306584
H    0.746677  -0.142020  -0.299852
N    -1.146790  0.162566  2.265040
C    -1.424953  0.275761  3.712928
C    -0.913055  -0.974401  4.470828
O    0.320489  -1.294996  4.337828
H    -1.964429  0.011702  1.676907
H    -0.817097  1.112856  4.096392
C    -2.920675  0.660066  3.813744
S    -3.695476  0.784164  5.459449
H    -3.535815  -0.091230  3.294454
H    -3.052672  1.610930  3.281171
H    -2.852428  1.710008  5.978770
N    -1.727210  -1.642513  5.251214
C    -1.373771  -2.817799  6.046805
H    -2.633988  -1.182033  5.448482
H    -0.468672  -3.280781  5.647938
H    -2.204622  -3.530227  6.003163
H    -1.213193  -2.526368  7.093295
Ca    2.178990  -0.547344  3.662306
