24
Energy:  -42917.8573063  eV PBE+vdW (tier 2 basis)
C    -0.124520  -0.033361  -0.032931
C    -0.060663  -0.083139  1.455123
O    1.068877  -0.075087  2.050742
H    -1.147745  -0.041622  -0.421194
H    0.427854  -0.885767  -0.451621
H    0.387484  0.876798  -0.376772
N    -1.203421  -0.131348  2.143818
C    -1.377845  0.037044  3.595256
C    -0.835984  -1.178481  4.386940
O    0.416900  -1.258356  4.614818
H    -2.061230  0.075761  1.616972
H    -0.754466  0.885406  3.924395
C    -2.858138  0.381572  3.886335
S    -3.583733  1.623834  2.768260
H    -2.963433  0.687805  4.933671
H    -3.512967  -0.488656  3.724240
H    -2.819413  2.669655  3.168297
N    -1.671450  -2.090312  4.841004
C    -1.298617  -3.270074  5.626783
H    -2.660188  -1.970741  4.633904
H    -2.088998  -3.466693  6.357962
H    -0.355770  -3.080993  6.145668
H    -1.192857  -4.143414  4.970111
Ca    2.237969  -0.660212  3.688827
