24
Energy:  -42917.7186574  eV PBE+vdW (tier 2 basis)
C    -0.793580  -2.273672  0.301924
C    -0.715566  -1.536861  1.595986
O    -0.375881  -2.152774  2.658521
H    -1.598570  -3.019915  0.382031
H    0.138684  -2.827510  0.133070
H    -0.997384  -1.627727  -0.557968
N    -1.014000  -0.232063  1.602629
C    -1.264363  0.676192  2.739292
C    -0.009942  0.994861  3.561021
O    0.590649  0.079791  4.221349
H    -1.314992  0.136724  0.704364
H    -1.601993  1.604160  2.266033
C    -2.412486  0.204572  3.675408
S    -3.953229  -0.195782  2.799129
H    -2.588211  0.971698  4.440223
H    -2.133153  -0.716036  4.203686
H    -4.413361  1.073831  2.700349
N    0.408634  2.244830  3.658515
C    -0.112779  3.454325  3.005197
H    1.199099  2.374467  4.291950
H    -0.184879  3.317688  1.920405
H    0.593556  4.266607  3.197351
H    -1.087063  3.739689  3.420860
Ca    0.734812  -2.024094  4.436676
