24
Energy:  -42916.9693331  eV PBE+vdW (tier 2 basis)
C    -0.308249  0.060015  -0.159947
C    -0.193712  0.132165  1.320046
O    0.569273  0.987502  1.877081
H    -0.511083  1.047591  -0.593556
H    -1.037272  -0.675603  -0.509977
H    0.684118  -0.239280  -0.538050
N    -0.889365  -0.721583  2.112180
C    -2.344142  -0.919855  1.996100
C    -3.003515  0.476192  2.061139
O    -2.379526  1.421763  2.677110
H    -0.560030  -0.733450  3.079809
H    -2.583722  -1.412459  1.046395
C    -2.765997  -1.849383  3.170509
S    -4.501673  -2.366964  3.239844
H    -2.476599  -1.395371  4.128926
H    -2.183711  -2.774206  3.056733
H    -4.952455  -1.322028  3.972732
N    -4.171362  0.726956  1.506826
C    -5.034595  -0.106120  0.660397
H    -4.508619  1.679111  1.665078
H    -5.201499  0.421665  -0.286814
H    -5.995678  -0.262738  1.162385
H    -4.584943  -1.082093  0.474745
Ca    -0.521509  2.405307  3.089908
