24
Energy:  -42918.3036672  eV PBE+vdW (tier 2 basis)
C    0.122510  0.874948  0.535569
C    -0.269581  0.172293  1.793009
O    0.490122  0.192840  2.801991
H    0.313105  1.933267  0.759252
H    -0.622262  0.802047  -0.263340
H    1.072994  0.450812  0.181284
N    -1.444155  -0.485960  1.807752
C    -2.044656  -1.333145  2.857992
C    -2.518850  -0.507301  4.067132
O    -1.680960  0.102705  4.795997
H    -1.979461  -0.436861  0.945073
H    -2.935992  -1.743148  2.367263
C    -1.224788  -2.599927  3.226612
S    0.123128  -2.598390  4.483906
H    -0.740599  -2.964888  2.312083
H    -1.917851  -3.384939  3.550886
H    -0.628258  -2.922494  5.564854
N    -3.813040  -0.454767  4.348597
C    -4.946609  -1.062999  3.637259
H    -4.035976  0.105426  5.172628
H    -5.860953  -0.780803  4.166384
H    -4.880696  -2.157683  3.639069
H    -5.021397  -0.684694  2.610448
Ca    0.481229  0.173660  4.940302
