24
Energy:  -42916.9312659  eV PBE+vdW (tier 2 basis)
C    -0.005487  -0.136752  0.018643
C    0.002145  -0.035759  1.506828
O    1.106626  0.115307  2.129920
H    -0.831476  0.427609  -0.428127
H    -0.108138  -1.187180  -0.299033
H    0.948653  0.236909  -0.366486
N    -1.134162  -0.110196  2.239047
C    -2.175809  -1.132326  2.071691
C    -1.490474  -2.525635  2.252449
O    -0.260800  -2.605583  2.600036
H    -1.003800  0.190816  3.204774
H    -2.839715  -1.000221  2.939788
C    -3.072170  -0.989221  0.821048
S    -4.014686  0.564743  0.786117
H    -3.857621  -1.756963  0.857789
H    -2.522175  -1.156890  -0.111605
H    -2.973061  1.382630  0.504983
N    -2.215636  -3.610112  2.077755
C    -1.740166  -4.984829  2.277793
H    -3.190710  -3.490675  1.812850
H    -2.512859  -5.669973  1.920050
H    -1.556736  -5.173348  3.342776
H    -0.818867  -5.151485  1.709479
Ca    1.628147  -1.713151  3.128213
