24
Energy:  -42917.8290267  eV PBE+vdW (tier 2 basis)
C    -1.256749  -0.218396  -0.454498
C    -0.883355  -0.541833  0.952590
O    0.003031  -1.423357  1.198513
H    -1.526377  -1.137842  -0.989864
H    -0.369261  0.193122  -0.958523
H    -2.075587  0.503917  -0.534037
N    -1.487787  0.120548  1.946738
C    -1.122400  0.116877  3.377355
C    -1.682187  -1.147218  4.076260
O    -1.245774  -2.288324  3.695287
H    -2.200210  0.794909  1.673477
H    -0.025273  0.022001  3.436980
C    -1.532969  1.483632  3.946120
S    -1.061108  1.636675  5.713997
H    -2.616037  1.639428  3.824918
H    -1.008882  2.254590  3.366892
H    -1.537801  2.894925  5.860191
N    -2.563650  -1.020018  5.041242
C    -3.159552  -2.114274  5.807869
H    -2.718767  -0.067103  5.396003
H    -2.944090  -3.067743  5.321978
H    -4.243214  -1.959414  5.860553
H    -2.751141  -2.112654  6.826762
Ca    0.193140  -3.152450  2.399199
