24
Energy:  -42918.2829476  eV PBE+vdW (tier 2 basis)
C    0.070874  1.204309  1.989982
C    -0.152624  -0.227852  1.635130
O    0.824140  -1.001555  1.433142
H    -0.852815  1.769437  2.150080
H    0.651411  1.680981  1.187809
H    0.687616  1.252834  2.898181
N    -1.424589  -0.665587  1.536639
C    -1.908537  -2.021597  1.208737
C    -1.317827  -3.105446  2.135735
O    -0.225705  -3.684110  1.855381
H    -2.147413  0.030762  1.698389
H    -2.983210  -1.977864  1.432543
C    -1.879847  -2.397184  -0.287184
S    -0.270013  -2.341757  -1.204052
H    -2.540334  -1.704766  -0.822817
H    -2.288246  -3.408564  -0.398222
H    -0.469103  -3.458971  -1.944083
N    -1.995222  -3.448712  3.221796
C    -3.271208  -2.920738  3.721987
H    -1.558262  -4.192143  3.768414
H    -3.225198  -1.834226  3.859951
H    -3.461022  -3.375393  4.698180
H    -4.102207  -3.188809  3.056826
Ca    1.546339  -2.950049  0.864453
