24
Energy:  -42917.9595980  eV PBE+vdW (tier 2 basis)
C    0.943123  1.372682  0.772186
C    0.524676  0.064823  1.350629
O    1.297180  -0.947929  1.289545
H    1.844853  1.714680  1.301417
H    0.172819  2.147001  0.846559
H    1.225444  1.237828  -0.280280
N    -0.668472  -0.031721  1.949180
C    -1.157245  -1.207783  2.683415
C    -1.580595  -2.324649  1.698976
O    -0.677535  -3.143420  1.303544
H    -1.269953  0.789882  1.933538
H    -0.290007  -1.625263  3.219485
C    -2.169041  -0.805210  3.775685
S    -3.792411  -0.129960  3.269703
H    -1.681780  -0.109180  4.470157
H    -2.418079  -1.702636  4.357269
H    -3.392185  1.120149  2.933203
N    -2.825850  -2.389379  1.291950
C    -3.381063  -3.387037  0.377601
H    -3.454239  -1.652071  1.661423
H    -4.339708  -3.734984  0.777663
H    -2.692992  -4.230240  0.283889
H    -3.553590  -2.934421  -0.607548
Ca    1.415650  -3.039162  0.965812
