24
Energy:  -42917.1014509  eV PBE+vdW (tier 2 basis)
C    -0.785236  2.006981  -0.311158
C    0.134926  1.451715  0.717359
O    1.345825  1.848521  0.802062
H    -1.045472  3.052471  -0.087365
H    -1.696937  1.414327  -0.432740
H    -0.236311  2.028448  -1.264076
N    -0.288092  0.500948  1.582995
C    -1.521105  0.633337  2.351580
C    -1.217993  1.638373  3.512501
O    -0.106331  2.273073  3.543326
H    0.470198  0.036050  2.086438
H    -2.278694  1.105029  1.708461
C    -2.056211  -0.743160  2.798849
S    -2.602541  -1.772358  1.402138
H    -2.954640  -0.617088  3.417510
H    -1.319779  -1.272495  3.419615
H    -1.377491  -2.228439  1.052588
N    -2.134293  1.828132  4.437850
C    -2.010673  2.755940  5.569521
H    -3.002265  1.302772  4.360595
H    -2.877034  2.618487  6.221321
H    -1.990047  3.792558  5.211931
H    -1.096658  2.541924  6.134345
Ca    1.782369  2.827711  2.665889
