24
Energy:  -42917.6755702  eV PBE+vdW (tier 2 basis)
C    -0.487377  1.226122  0.477201
C    -0.248460  0.477522  1.741482
O    0.942326  0.261368  2.156080
H    0.001800  0.700567  -0.354905
H    -0.011155  2.214017  0.551468
H    -1.550410  1.351085  0.248967
N    -1.293071  0.032981  2.444602
C    -1.184755  -0.546704  3.784623
C    -0.423202  -1.887979  3.743023
O    0.792526  -1.888136  4.149300
H    -2.234935  0.406570  2.239286
H    -0.537098  0.110459  4.386322
C    -2.569950  -0.594864  4.495344
S    -3.696760  0.762958  4.048633
H    -2.405960  -0.621881  5.578025
H    -3.133710  -1.495796  4.236014
H    -3.028378  1.758072  4.682064
N    -0.954823  -3.014812  3.301662
C    -2.259548  -3.285337  2.687030
H    -0.333487  -3.820995  3.389916
H    -2.661447  -2.390972  2.204949
H    -2.968598  -3.670450  3.430996
H    -2.115143  -4.052250  1.918417
Ca    2.373614  -0.663546  3.404501
