24
Energy:  -42917.3217386  eV PBE+vdW (tier 2 basis)
C    0.084216  0.638831  0.299374
C    -0.175157  0.240935  1.710650
O    0.652851  0.541027  2.632497
H    0.028490  1.731048  0.181411
H    -0.581707  0.155997  -0.421039
H    1.123109  0.360080  0.068533
N    -1.286989  -0.458338  2.044538
C    -2.625501  -0.049014  1.613629
C    -3.010818  1.207967  2.463163
O    -2.122388  1.775444  3.198609
H    -1.252634  -0.847551  2.988960
H    -2.560809  0.279348  0.565867
C    -3.599011  -1.247274  1.703353
S    -5.284091  -0.972407  1.057225
H    -3.747017  -1.547907  2.750542
H    -3.141581  -2.095896  1.180696
H    -4.944977  -0.889381  -0.252912
N    -4.236482  1.661066  2.376216
C    -4.758826  2.832088  3.084467
H    -4.884415  1.080203  1.804738
H    -5.758989  3.045004  2.698236
H    -4.112527  3.699594  2.910972
H    -4.824812  2.634689  4.161865
Ca    -0.163802  1.966482  4.028514
