24
Energy:  -42917.6881914  eV PBE+vdW (tier 2 basis)
C    0.494894  1.449881  0.592550
C    0.301899  0.586881  1.797905
O    1.101342  -0.391623  1.999423
H    1.468616  1.953609  0.685484
H    -0.285309  2.207739  0.470141
H    0.545935  0.826416  -0.309188
N    -0.709304  0.884437  2.609452
C    -1.178079  0.449912  3.929115
C    -0.691848  -0.878318  4.499719
O    -0.476998  -1.915637  3.792344
H    -1.333314  1.648933  2.295234
H    -0.875244  1.239852  4.636977
C    -2.747383  0.423304  3.889600
S    -3.489113  1.885703  3.102772
H    -3.137636  0.295963  4.905670
H    -3.083412  -0.431680  3.288011
H    -3.274985  2.749425  4.125886
N    -0.617634  -0.926284  5.822418
C    -0.358597  -2.131159  6.613162
H    -0.767050  -0.061515  6.338020
H    0.709371  -2.210155  6.855915
H    -0.682861  -3.013728  6.055259
H    -0.925665  -2.064945  7.547119
Ca    1.008373  -2.446013  2.365011
