24
Energy:  -42917.1424801  eV PBE+vdW (tier 2 basis)
C    -1.119548  1.319558  -0.209558
C    -0.102052  0.971316  0.823495
O    1.115833  1.313897  0.665484
H    -2.067747  1.635386  0.238105
H    -1.323412  0.451335  -0.857483
H    -0.722487  2.119779  -0.842380
N    -0.429525  0.283461  1.945864
C    -1.218011  -0.958285  1.962751
C    -0.479995  -2.001601  1.062381
O    0.675536  -1.722144  0.575327
H    0.315731  0.297716  2.642637
H    -1.129075  -1.323506  2.998877
C    -2.725181  -0.781302  1.673655
S    -3.651905  -2.205290  2.382278
H    -2.935061  -0.716932  0.601285
H    -3.058557  0.142852  2.160962
H    -4.640946  -2.215956  1.458657
N    -1.059880  -3.158501  0.858306
C    -0.489940  -4.264192  0.084534
H    -2.000979  -3.267138  1.289232
H    -1.189615  -5.102869  0.123549
H    0.468714  -4.575857  0.515890
H    -0.340870  -3.967782  -0.960777
Ca    2.326554  -0.412661  0.216840
