24
Energy:  -42917.0600644  eV PBE+vdW (tier 2 basis)
C    0.068766  1.441475  0.156593
C    -0.391813  0.683330  1.352535
O    -0.053739  1.085242  2.537718
H    -0.249890  2.489821  0.233946
H    -0.307242  1.016597  -0.779046
H    1.168276  1.438273  0.134949
N    -1.134616  -0.387815  1.201615
C    -1.633222  -1.329062  2.196629
C    -2.274699  -2.450728  1.279643
O    -2.363222  -2.212255  0.075212
H    -1.441408  -0.734347  0.259005
H    -0.789017  -1.773307  2.749171
C    -2.673628  -0.728695  3.165975
S    -1.922056  -0.371061  4.824426
H    -3.469784  -1.452223  3.376245
H    -3.127758  0.175806  2.748415
H    -3.022690  0.105501  5.459632
N    -2.681615  -3.568741  1.889855
C    -3.284134  -4.693059  1.164217
H    -2.456675  -3.711569  2.869650
H    -4.058240  -5.149599  1.789013
H    -2.524226  -5.444425  0.915084
H    -3.731268  -4.316497  0.240420
Ca    -0.080803  1.703731  4.472030
