24
Energy:  -42916.5990994  eV PBE+vdW (tier 2 basis)
C    -0.209117  0.370258  -0.087601
C    -0.336077  0.114317  1.370785
O    0.691972  0.185104  2.140427
H    -1.161680  0.285628  -0.620460
H    0.507985  -0.344762  -0.516425
H    0.207562  1.374385  -0.248511
N    -1.517317  -0.198068  1.905098
C    -1.622770  -0.521508  3.330303
C    -2.692165  -1.479402  3.913635
O    -2.390127  -1.858841  5.050517
H    -2.330472  -0.246507  1.296118
H    -0.714770  -1.104273  3.538639
C    -1.601425  0.757018  4.218882
S    -0.405628  0.619221  5.609250
H    -2.581362  0.954070  4.669345
H    -1.314210  1.645712  3.644483
H    -0.822452  -0.647587  5.940510
N    -3.823379  -1.833429  3.284869
C    -4.367432  -1.398926  2.000031
H    -4.390471  -2.478071  3.835053
H    -5.407542  -1.733033  1.941177
H    -3.837811  -1.853500  1.149503
H    -4.391634  -0.302871  1.916092
Ca    1.801879  0.241104  3.910805
