24
Energy:  -42918.4184157  eV PBE+vdW (tier 2 basis)
C    -0.825267  0.401258  -0.393614
C    -0.489665  0.515437  1.057734
O    0.709063  0.436392  1.443004
H    -0.340709  1.228711  -0.931758
H    -1.899527  0.420107  -0.603376
H    -0.393108  -0.527480  -0.789294
N    -1.507926  0.711360  1.920786
C    -1.499460  0.900884  3.386649
C    -0.559772  2.030326  3.863860
O    0.682126  1.831965  4.006973
H    -2.429203  0.761229  1.493712
H    -2.524021  1.234739  3.608686
C    -1.359925  -0.390970  4.222991
S    0.161653  -1.422097  4.177698
H    -2.188115  -1.067640  3.979926
H    -1.467984  -0.127422  5.284233
H    -0.100275  -2.091011  3.027881
N    -1.124486  3.191267  4.159003
C    -0.419600  4.373206  4.660975
H    -2.130185  3.280181  4.032733
H    0.617205  4.109672  4.879287
H    -0.912657  4.723611  5.574973
H    -0.451243  5.170477  3.907996
Ca    2.054079  0.423799  3.114940
