24
Energy:  -42916.9353092  eV PBE+vdW (tier 2 basis)
C    -0.099421  0.387130  0.072338
C    -0.090005  0.010668  1.510315
O    1.017036  -0.040434  2.149899
H    -1.034181  0.886255  -0.214330
H    0.034474  -0.502887  -0.563844
H    0.761086  1.041403  -0.112243
N    -1.224363  -0.257902  2.209262
C    -2.276473  -1.213660  1.832824
C    -1.676782  -2.640831  2.000747
O    -0.405994  -2.789934  2.093160
H    -1.057226  -0.243246  3.216694
H    -3.068614  -1.087374  2.587128
C    -2.919323  -1.002252  0.454421
S    -3.615635  0.690925  0.402713
H    -3.730199  -1.729076  0.337191
H    -2.202198  -1.174733  -0.357842
H    -4.305729  0.506790  -0.747204
N    -2.465648  -3.694871  2.075756
C    -3.931460  -3.772687  2.068871
H    -1.974265  -4.586646  2.158142
H    -4.234587  -4.542970  2.786055
H    -4.294528  -4.056274  1.072848
H    -4.380283  -2.822274  2.370987
Ca    1.561307  -2.062528  2.584127
