24
Energy:  -42917.9968710  eV PBE+vdW (tier 2 basis)
C    0.106886  0.334047  -0.098976
C    -0.000435  0.253250  1.385248
O    1.031539  0.412931  2.118671
H    0.874449  -0.366480  -0.453340
H    0.450906  1.343992  -0.367234
H    -0.837999  0.131316  -0.613103
N    -1.196369  0.024637  1.935107
C    -1.527271  0.083399  3.369618
C    -1.022161  -1.171361  4.126063
O    0.222010  -1.230531  4.419630
H    -1.993482  -0.112578  1.309058
H    -0.951916  0.916329  3.804804
C    -3.012188  0.431502  3.537189
S    -4.076459  -0.779503  2.643029
H    -3.183510  1.435655  3.130081
H    -3.261658  0.448749  4.605120
H    -5.254593  -0.182224  2.937672
N    -1.870877  -2.115330  4.464060
C    -1.544850  -3.334452  5.204750
H    -2.845717  -1.997606  4.143747
H    -0.549584  -3.245326  5.645216
H    -1.577281  -4.198416  4.528451
H    -2.289954  -3.476207  5.995377
Ca    2.052515  -0.347793  3.801763
