24
Energy:  -42917.6230599  eV PBE+vdW (tier 2 basis)
C    -0.129589  -0.549744  0.279590
C    -0.231733  0.058843  1.635022
O    0.814568  0.292634  2.324022
H    0.426840  -1.494584  0.341856
H    0.458382  0.122685  -0.362400
H    -1.102110  -0.730235  -0.189516
N    -1.439312  0.372421  2.126823
C    -1.645676  1.135294  3.373037
C    -1.370649  0.244091  4.608108
O    -0.190660  0.289585  5.101843
H    -2.249265  0.193329  1.536663
H    -0.840726  1.882487  3.417638
C    -2.954313  1.938546  3.359109
S    -3.070972  3.028406  4.816873
H    -3.854229  1.323581  3.257807
H    -2.926185  2.612097  2.491584
H    -3.660345  2.138498  5.648625
N    -2.255345  -0.581291  5.137070
C    -3.628403  -0.894603  4.728689
H    -1.910783  -1.075491  5.961873
H    -4.343282  -0.176264  5.149961
H    -3.872403  -1.888700  5.115431
H    -3.719683  -0.924848  3.639382
Ca    1.739873  0.491262  4.226910
