24
Energy:  -42917.1909204  eV PBE+vdW (tier 2 basis)
C    0.043426  -0.139991  0.038649
C    0.003600  -0.016549  1.524323
O    1.082523  0.165074  2.179572
H    -0.790562  0.383501  -0.440338
H    -0.003294  -1.199586  -0.261918
H    0.993659  0.265143  -0.323984
N    -1.157818  -0.093370  2.221405
C    -2.167235  -1.154774  2.061689
C    -1.464710  -2.520531  2.352483
O    -0.242135  -2.541252  2.747546
H    -1.047015  0.211120  3.189114
H    -2.873669  -0.988141  2.888605
C    -2.987448  -1.079461  0.749942
S    -4.488282  -2.121089  0.716451
H    -2.408916  -1.422176  -0.115663
H    -3.264103  -0.032378  0.577806
H    -5.175596  -1.456039  1.678026
N    -2.169360  -3.616637  2.217096
C    -1.684973  -4.972564  2.487573
H    -3.138664  -3.481192  1.864642
H    -2.477008  -5.676399  2.219605
H    -1.448830  -5.086987  3.552602
H    -0.791885  -5.189795  1.890089
Ca    1.616307  -1.620582  3.261137
