24
Energy:  -42917.6306610  eV PBE+vdW (tier 2 basis)
C    -0.097461  1.492148  0.566581
C    -0.198614  0.659757  1.804301
O    0.859153  0.422065  2.483453
H    0.679089  1.086309  -0.094241
H    0.230408  2.500753  0.859294
H    -1.040933  1.573430  0.017700
N    -1.401227  0.199594  2.138390
C    -2.001992  -0.470410  3.295835
C    -1.108721  -1.184923  4.304916
O    -0.038025  -1.800942  3.993697
H    -2.169133  0.414210  1.478220
H    -2.549868  0.313399  3.846216
C    -3.062754  -1.496624  2.762965
S    -4.199936  -0.743261  1.545348
H    -3.664254  -1.846626  3.610026
H    -2.563623  -2.363912  2.317006
H    -3.746868  -1.420748  0.465280
N    -1.584494  -1.223480  5.541445
C    -1.013335  -1.995891  6.646513
H    -2.425649  -0.686773  5.743465
H    -1.830641  -2.363985  7.274956
H    -0.357051  -1.363370  7.258787
H    -0.451832  -2.845709  6.249354
Ca    1.885763  -1.189011  3.325496
