24
Energy:  -42917.8237305  eV PBE+vdW (tier 2 basis)
C    -0.309423  1.269163  -0.204672
C    -0.321720  0.085000  0.699077
O    0.763418  -0.526887  0.977589
H    0.323895  2.045507  0.249480
H    -1.305924  1.682936  -0.388310
H    0.155885  0.999255  -1.162018
N    -1.484774  -0.317204  1.219237
C    -1.669329  -1.303497  2.300148
C    -1.460261  -2.748368  1.787263
O    -0.268169  -3.176449  1.636400
H    -2.288849  0.296538  1.069128
H    -0.866613  -1.146706  3.041000
C    -3.018141  -1.052302  2.987729
S    -3.056993  0.685305  3.576612
H    -3.126071  -1.746556  3.830493
H    -3.855956  -1.202158  2.289345
H    -4.397546  0.739141  3.750623
N    -2.506353  -3.507774  1.536105
C    -2.467756  -4.895288  1.067221
H    -3.426966  -3.099219  1.685375
H    -3.180413  -5.486420  1.652571
H    -1.460528  -5.296224  1.198039
H    -2.751485  -4.938371  0.007908
Ca    1.688131  -2.373726  1.355369
