24
Energy:  -42917.6621830  eV PBE+vdW (tier 2 basis)
C    0.348406  0.885892  0.404528
C    -0.064111  -0.066611  1.472352
O    0.814602  -0.669578  2.179672
H    1.013942  0.376818  -0.305690
H    0.933937  1.695837  0.863305
H    -0.500361  1.317366  -0.135069
N    -1.363361  -0.277550  1.686927
C    -1.925315  -1.038264  2.798481
C    -1.685957  -2.553615  2.609572
O    -0.638085  -3.039675  3.164500
H    -2.079609  0.264687  1.167728
H    -1.321665  -0.813643  3.690251
C    -3.382045  -0.547713  3.127472
S    -4.195879  0.544280  1.913373
H    -3.313502  0.071004  4.029334
H    -4.035686  -1.386843  3.383643
H    -4.845822  -0.402296  1.198131
N    -2.472310  -3.355835  1.915891
C    -3.663580  -3.056066  1.118371
H    -2.177263  -4.333592  1.931386
H    -3.753168  -3.826617  0.346447
H    -3.561921  -2.086151  0.622723
H    -4.570326  -3.078853  1.736357
Ca    1.375078  -2.343982  3.331314
