25
Energy: -608765.3836642  eV PBE+vdW (tier 2 basis)
C    0.152967  0.523146  0.068615
C    -0.528351  0.538317  1.409542
O    -0.649354  1.570118  2.083895
H    -0.462256  1.099476  -0.635765
H    1.117884  1.036240  0.150261
H    0.304199  -0.482692  -0.339073
N    -1.020154  -0.657425  1.862650
C    -1.923384  -0.772062  3.005257
C    -1.167019  -0.702235  4.374272
O    -1.251455  -1.564082  5.313668
H    -0.852576  -1.492062  1.311309
H    -2.556161  0.130342  3.008155
C    -2.827334  -2.003532  2.770208
C    -3.486606  -2.419631  4.056144
O    -3.266974  -3.592408  4.521609
O    -4.077690  -1.530365  4.769046
H    -2.250770  -2.857569  2.394607
H    -3.582652  -1.733742  2.020007
N    -0.413146  0.371645  4.508570
C    0.376957  0.668182  5.696019
H    -0.428144  1.037027  3.702116
H    0.934930  -0.218836  6.016218
H    1.077155  1.471774  5.452429
H    -0.266880  0.998545  6.522946
Pb    -2.960183  -2.528172  6.552293
