25
Energy: -608765.6116471  eV PBE+vdW (tier 2 basis)
C    1.127424  -2.016968  1.788092
C    -0.075017  -1.139962  1.952924
O    -0.769257  -1.221094  2.999899
H    1.820232  -1.665717  1.015724
H    0.765689  -3.016895  1.505134
H    1.651185  -2.105819  2.745653
N    -0.345927  -0.278798  0.950678
C    -1.583753  0.490002  0.729408
C    -1.954302  1.365464  1.943354
O    -2.736646  1.004266  2.860773
H    0.248819  -0.371280  0.132861
H    -1.320591  1.195751  -0.070113
C    -2.766352  -0.364153  0.191840
C    -2.816357  -1.779391  0.789185
O    -2.137915  -2.668557  0.309387
O    -3.607804  -1.929106  1.850960
H    -2.624361  -0.479803  -0.889054
H    -3.705425  0.175183  0.364687
N    -1.433559  2.592328  1.956682
C    -1.690107  3.559964  3.021987
H    -0.837172  2.873654  1.186121
H    -1.335860  3.172791  3.984934
H    -2.764312  3.766336  3.098341
H    -1.158543  4.485247  2.785599
Pb    -2.990088  -1.167443  3.766947
