25
Energy: -608764.9107007  eV PBE+vdW (tier 2 basis)
C    0.143595  -2.693286  0.642351
C    -0.105772  -1.769920  1.782459
O    -0.201807  -2.178708  2.967995
H    1.210604  -2.967090  0.678775
H    -0.033457  -2.218985  -0.328036
H    -0.447435  -3.606638  0.747766
N    -0.068701  -0.399335  1.589756
C    -0.992579  0.477855  0.843827
C    -1.563366  1.415328  1.940164
O    -1.688396  0.997379  3.126132
H    0.092818  0.015836  2.508618
H    -0.441582  1.062624  0.091932
C    -2.205644  -0.207424  0.123797
C    -3.052192  -0.847395  1.211717
O    -2.650618  -2.017844  1.607941
O    -3.874217  -0.169070  1.866948
H    -1.853535  -0.940152  -0.609373
H    -2.767375  0.576850  -0.396667
N    -1.910761  2.645658  1.591742
C    -2.578087  3.578425  2.499714
H    -1.733142  2.942925  0.637564
H    -2.730865  4.524438  1.974303
H    -1.960434  3.751919  3.388307
H    -3.547785  3.170829  2.810140
Pb    -2.421270  -1.290218  3.776128
