25
Energy: -608765.1216694  eV PBE+vdW (tier 2 basis)
C    -0.149563  -0.802179  0.208111
C    -0.304683  0.143573  1.348196
O    0.660660  0.913522  1.686128
H    -0.781250  -0.483528  -0.634971
H    0.895823  -0.807402  -0.110180
H    -0.467075  -1.815037  0.483125
N    -1.445269  0.206702  2.068171
C    -2.840136  0.112496  1.567632
C    -3.125103  -1.204167  0.780734
O    -3.319415  -1.192518  -0.428134
H    -1.363117  0.864078  2.844561
H    -3.456181  0.103080  2.475222
C    -3.218079  1.366116  0.705756
C    -2.065712  2.335453  0.739940
O    -1.230134  2.353771  -0.230005
O    -1.817601  3.002782  1.811388
H    -4.119510  1.835745  1.115048
H    -3.403226  1.034241  -0.322695
N    -3.124714  -2.314830  1.555288
C    -3.394117  -3.647608  1.028951
H    -2.994165  -2.212593  2.556023
H    -4.336694  -4.040846  1.430682
H    -2.579922  -4.335794  1.287902
H    -3.475475  -3.571953  -0.059206
Pb    0.438169  3.180477  1.191763
