25
Energy: -608765.0730964  eV PBE+vdW (tier 2 basis)
C    1.039464  -0.009627  0.350779
C    -0.126094  -0.154615  1.300859
O    -1.278615  0.131215  0.996826
H    1.321792  1.051409  0.302555
H    0.718014  -0.307817  -0.652510
H    1.924102  -0.589177  0.641105
N    0.202151  -0.646760  2.554042
C    -0.631170  -0.634682  3.743553
C    -1.327849  -1.965846  4.119833
O    -1.447824  -2.245256  5.367137
H    1.185941  -0.822427  2.725770
H    0.059547  -0.499187  4.587187
C    -1.624974  0.577882  3.824299
C    -2.260690  0.467310  5.180283
O    -3.413811  -0.084560  5.287662
O    -1.544809  0.684004  6.225556
H    -2.369570  0.540971  3.027251
H    -1.032199  1.496175  3.739592
N    -1.769805  -2.855246  3.244308
C    -1.824858  -2.828766  1.781997
H    -2.146908  -3.688164  3.695036
H    -2.041755  -1.820102  1.416629
H    -2.629770  -3.501998  1.472042
H    -0.880602  -3.183727  1.349895
Pb    -2.545706  -1.196007  7.135316
