25
Energy: -608765.1846505  eV PBE+vdW (tier 2 basis)
C    -0.249693  -1.506034  -0.171113
C    0.150453  -0.478615  0.862697
O    1.301544  -0.228150  1.161404
H    -0.718063  -2.379287  0.306656
H    -0.956669  -1.107441  -0.912080
H    0.656066  -1.841294  -0.682458
N    -0.885625  0.241126  1.488638
C    -2.300541  -0.055426  1.440089
C    -3.045322  0.793451  0.371344
O    -4.242185  0.547525  0.008030
H    -0.544487  0.793315  2.273659
H    -2.456890  -1.096882  1.123427
C    -2.909376  0.079962  2.870732
C    -4.395246  -0.097496  2.740702
O    -5.154935  0.933463  2.753052
O    -4.846521  -1.241955  2.372941
H    -2.686188  1.065454  3.296877
H    -2.470602  -0.706735  3.495899
N    -2.336056  1.752787  -0.196482
C    -2.796298  2.650236  -1.246326
H    -1.370131  1.812198  0.133837
H    -2.104088  2.609273  -2.095365
H    -3.792292  2.340815  -1.572215
H    -2.836569  3.679903  -0.869577
Pb    -6.269288  -0.066195  0.972629
