25
Energy: -608765.2168608  eV PBE+vdW (tier 2 basis)
C    0.630511  -1.539657  1.456092
C    0.278931  -0.113868  1.730229
O    0.962199  0.831075  1.262254
H    -0.160652  -2.239263  1.747638
H    0.904938  -1.674963  0.405146
H    1.517350  -1.777249  2.064212
N    -0.770197  0.173243  2.575401
C    -2.150850  -0.234723  2.284150
C    -2.298609  -0.576498  0.788553
O    -1.623091  0.025117  -0.090215
H    -0.742974  1.172493  2.815771
H    -2.468003  -1.087121  2.903544
C    -3.101137  0.982301  2.605521
C    -2.651020  2.116010  1.696160
O    -1.533422  2.699220  2.039619
O    -3.152895  2.276556  0.561241
H    -2.990639  1.240101  3.665820
H    -4.138495  0.698302  2.400194
N    -3.179892  -1.515528  0.459739
C    -3.513062  -1.857918  -0.922687
H    -3.671368  -1.993360  1.208303
H    -4.164566  -2.735492  -0.916374
H    -2.600474  -2.086734  -1.484213
H    -4.030532  -1.022086  -1.409728
Pb    -0.635055  2.271044  -0.052370
