25
Energy: -608765.6481544  eV PBE+vdW (tier 2 basis)
C    0.595669  0.852949  -0.315299
C    0.056378  -0.378160  0.363175
O    0.504484  -1.496601  0.030767
H    1.688436  0.783692  -0.358082
H    0.226510  0.860498  -1.350248
H    0.308888  1.792845  0.169017
N    -0.886260  -0.147262  1.314076
C    -1.716645  -1.021080  2.166094
C    -0.913774  -2.171664  2.810047
O    -0.353579  -3.089982  2.167992
H    -1.116535  0.834995  1.420580
H    -2.028145  -0.360836  2.986413
C    -3.049143  -1.497250  1.495298
C    -2.709701  -2.553477  0.468771
O    -2.707404  -3.772269  0.810773
O    -2.165204  -2.147591  -0.623761
H    -3.527668  -0.624920  1.033765
H    -3.703929  -1.909943  2.271623
N    -0.863420  -2.157606  4.146088
C    -0.198442  -3.201795  4.921282
H    -1.290608  -1.386061  4.645374
H    0.890804  -3.140431  4.801958
H    -0.534612  -4.188230  4.582731
H    -0.455687  -3.070360  5.975607
Pb    -0.460414  -3.690463  -0.178042
