25
Energy: -608765.7309324  eV PBE+vdW (tier 2 basis)
C    0.502206  -0.460218  0.889743
C    -0.080143  -0.177533  2.241423
O    0.284023  -0.892181  3.238013
H    0.344234  -1.520179  0.652479
H    1.587176  -0.293106  0.922661
H    0.068958  0.158413  0.097667
N    -0.976127  0.797667  2.331201
C    -1.799508  1.205028  3.464682
C    -3.041049  1.868213  2.799053
O    -2.960774  2.235532  1.626265
H    -1.295456  1.286355  1.479159
H    -2.085823  0.317406  4.047117
C    -1.083445  2.221662  4.401819
C    0.071043  1.486559  5.022594
O    -0.176789  0.596237  5.912382
O    1.243951  1.605316  4.522170
H    -1.783511  2.544780  5.181796
H    -0.737225  3.090601  3.831207
N    -4.121476  2.011398  3.587890
C    -5.357553  2.646669  3.142586
H    -4.093758  1.624355  4.525128
H    -5.598250  3.506015  3.780352
H    -6.188569  1.931113  3.171322
H    -5.213194  2.988690  2.114121
Pb    1.615057  -0.628788  5.081171
