25
Energy: -608765.5321354  eV PBE+vdW (tier 2 basis)
C    -0.216729  0.081863  -0.012105
C    0.046794  -0.387315  1.395303
O    1.184353  -0.817519  1.677302
H    -0.260246  -0.802325  -0.663266
H    0.628993  0.693130  -0.345617
H    -1.145717  0.651097  -0.127583
N    -1.013715  -0.281063  2.240764
C    -1.281262  -0.657750  3.643031
C    -0.174528  -0.212764  4.617551
O    1.040224  -0.477274  4.448249
H    -1.838519  0.093033  1.784451
H    -2.178976  -0.080283  3.890484
C    -1.684115  -2.158164  3.852343
C    -0.425119  -2.986398  3.733324
O    0.011522  -3.225412  2.550794
O    0.288508  -3.160774  4.767036
H    -2.424682  -2.425365  3.089606
H    -2.123740  -2.265868  4.851065
N    -0.553046  0.473871  5.702543
C    -1.889538  0.918100  6.094275
H    0.215964  0.685485  6.335279
H    -2.567254  0.071113  6.262103
H    -2.322446  1.601981  5.352660
H    -1.798508  1.465064  7.036890
Pb    2.067780  -2.348462  3.289515
