25
Energy: -608765.2882142  eV PBE+vdW (tier 2 basis)
C    0.282339  -0.522086  0.478090
C    -0.308617  -0.020663  1.755152
O    0.459330  0.261369  2.744597
H    0.481942  -1.599302  0.568379
H    1.244211  -0.019925  0.323631
H    -0.365271  -0.349711  -0.387337
N    -1.625259  0.146053  1.889077
C    -2.694593  -0.652799  1.298988
C    -3.981038  0.164030  1.579379
O    -3.989112  0.947357  2.526945
H    -1.977356  0.640044  2.722485
H    -2.524475  -0.790908  0.224777
C    -2.785582  -2.073478  2.010615
C    -1.740483  -2.108530  3.103853
O    -0.587772  -2.606500  2.856735
O    -1.953717  -1.477904  4.198311
H    -2.596816  -2.876323  1.291198
H    -3.781857  -2.203428  2.448833
N    -5.027769  -0.099350  0.771761
C    -6.337862  0.519825  0.940475
H    -4.893226  -0.730521  -0.010724
H    -6.311825  1.126346  1.850076
H    -7.113920  -0.249049  1.037766
H    -6.574172  1.165590  0.085426
Pb    0.349897  -1.210133  4.529510
