25
Energy: -608765.6360931  eV PBE+vdW (tier 2 basis)
C    0.152582  -0.305808  0.262882
C    -0.004566  -0.045758  1.730074
O    1.036187  -0.025935  2.474562
H    -0.802984  -0.370340  -0.266798
H    0.707825  -1.243179  0.129047
H    0.756827  0.495835  -0.182507
N    -1.235130  0.127281  2.195321
C    -1.689481  0.269885  3.574833
C    -3.159481  -0.228931  3.534577
O    -3.748079  -0.229763  2.451743
H    -2.048215  0.034645  1.566513
H    -1.060575  -0.346878  4.230681
C    -1.652294  1.748883  4.065130
C    -0.200957  2.132863  4.124403
O    0.528830  1.626097  5.050299
O    0.327135  2.777752  3.152141
H    -2.100997  1.813489  5.063365
H    -2.204720  2.391978  3.371245
N    -3.735930  -0.592264  4.698238
C    -3.098476  -0.829604  5.989372
H    -4.700914  -0.895907  4.590166
H    -3.867033  -0.790458  6.767696
H    -2.357225  -0.057638  6.224008
H    -2.611195  -1.814491  6.032063
Pb    2.288307  1.573243  3.531179
