25
Energy: -608765.0448757  eV PBE+vdW (tier 2 basis)
C    0.437556  -0.579682  0.844701
C    -0.294682  0.472320  1.650273
O    0.201502  1.551133  1.913605
H    0.040962  -1.597831  0.927398
H    0.427545  -0.283127  -0.213319
H    1.485851  -0.572907  1.163245
N    -1.575171  0.182461  2.161524
C    -2.525186  -0.847666  1.775918
C    -2.239695  -2.205506  2.477019
O    -2.909327  -3.269005  2.279788
H    -1.974311  1.008067  2.604107
H    -3.491299  -0.550088  2.214139
C    -2.772601  -0.901484  0.231841
C    -3.725874  -2.022240  -0.054899
O    -3.293577  -3.088736  -0.618965
O    -4.898062  -1.989939  0.472594
H    -1.846020  -1.060343  -0.324637
H    -3.208315  0.063703  -0.053960
N    -1.292201  -2.191631  3.401072
C    -0.942193  -3.336026  4.234207
H    -0.835968  -1.291557  3.545315
H    -1.786049  -3.621396  4.875038
H    -0.668951  -4.193571  3.608190
H    -0.090142  -3.060536  4.860805
Pb    -4.565298  -4.230223  0.941759
