25
Energy: -608764.9727941  eV PBE+vdW (tier 2 basis)
C    0.309287  -0.171473  0.850771
C    -0.307557  0.590501  1.972673
O    0.105402  1.785374  2.202295
H    0.116955  -1.246162  0.896521
H    -0.036115  0.230459  -0.111678
H    1.390562  0.015730  0.900087
N    -1.225126  0.062629  2.802178
C    -2.437496  -0.739558  2.486422
C    -2.305956  -1.548043  1.171622
O    -1.833152  -2.677315  1.226160
H    -1.370055  0.653593  3.623987
H    -2.539132  -1.505226  3.263846
C    -3.677395  0.235691  2.575796
C    -3.184274  1.630596  2.287901
O    -2.905572  2.400000  3.276050
O    -2.848548  1.967473  1.096432
H    -4.092619  0.210093  3.588788
H    -4.453113  -0.080929  1.869103
N    -2.739483  -0.947577  0.037305
C    -2.653650  -1.615352  -1.254888
H    -3.001025  0.035198  0.063929
H    -2.834263  -2.686022  -1.116478
H    -3.410725  -1.199851  -1.927316
H    -1.659742  -1.493460  -1.710865
Pb    -1.339211  3.579628  2.011360
