25
Energy: -608765.5342426  eV PBE+vdW (tier 2 basis)
C    -1.790734  1.038006  1.099189
C    -1.546210  0.025929  2.173702
O    -2.507808  -0.622936  2.663769
H    -2.567042  0.672007  0.419186
H    -0.889286  1.296670  0.533112
H    -2.168688  1.948443  1.588272
N    -0.269264  -0.159907  2.569565
C    0.160363  -0.883934  3.775888
C    -0.449123  -2.297602  3.821873
O    -1.397588  -2.609753  4.593710
H    0.409888  0.489631  2.183853
H    1.240338  -1.033893  3.641725
C    -0.022111  -0.076300  5.089684
C    -1.276105  0.812521  5.087097
O    -1.247615  1.907370  4.555716
O    -2.360440  0.291566  5.661728
H    0.840270  0.593384  5.187596
H    -0.023948  -0.769757  5.938525
N    0.100222  -3.236007  3.049265
C    1.238154  -3.113437  2.139461
H    -0.330749  -4.153880  3.143655
H    1.070917  -2.321684  1.400028
H    1.347454  -4.061342  1.605474
H    2.171635  -2.921643  2.685546
Pb    -3.394527  -1.352451  4.736380
