25
Energy: -608765.4179195  eV PBE+vdW (tier 2 basis)
C    0.580855  0.611318  0.855663
C    -0.082833  0.941602  2.168447
O    0.169078  1.925434  2.846075
H    0.020100  1.095031  0.042753
H    0.618263  -0.465746  0.649998
H    1.593842  1.024611  0.852959
N    -1.043422  0.022493  2.609740
C    -1.938106  0.421068  3.680835
C    -1.290914  0.248327  5.073429
O    -1.761436  0.806873  6.118702
H    -1.370117  -0.683676  1.957071
H    -2.121723  1.504432  3.606295
C    -3.300052  -0.319383  3.541473
C    -4.122020  0.086993  4.735167
O    -4.219669  -0.708067  5.732515
O    -4.490298  1.312853  4.830523
H    -3.165192  -1.407649  3.531021
H    -3.776577  0.014037  2.611295
N    -0.190071  -0.475813  5.140606
C    0.591626  -0.677961  6.354258
H    0.161580  -0.814339  4.246195
H    1.386815  -1.396702  6.140752
H    -0.044687  -1.070699  7.155331
H    1.037234  0.269029  6.684781
Pb    -3.844278  1.187937  7.052118
