25
Energy: -608765.4976750  eV PBE+vdW (tier 2 basis)
C    -1.253439  -0.388515  -0.560986
C    -0.787506  -0.306931  0.867734
O    0.406654  -0.272859  1.184402
H    -2.332475  -0.552659  -0.660816
H    -0.992769  0.551604  -1.065356
H    -0.709256  -1.191367  -1.071283
N    -1.768099  -0.249731  1.829121
C    -1.402936  -0.055288  3.225286
C    -0.994732  -1.430926  3.826236
O    -1.759485  -2.240376  4.452035
H    -2.747331  -0.381767  1.595170
H    -0.482629  0.545149  3.211188
C    -2.459382  0.762014  4.000305
C    -3.591495  -0.141480  4.403301
O    -4.191334  -0.827146  3.492774
O    -3.783390  -0.400125  5.640867
H    -2.808108  1.570364  3.343894
H    -2.016723  1.206371  4.897457
N    0.262725  -1.758019  3.573710
C    0.869862  -3.033479  3.931360
H    0.738955  -1.144074  2.893501
H    0.586786  -3.818894  3.216777
H    1.957046  -2.915342  3.918756
H    0.547000  -3.331991  4.933429
Pb    -3.976937  -2.610533  4.988137
