25
Energy: -608765.0363412  eV PBE+vdW (tier 2 basis)
C    0.448118  0.296563  0.735966
C    -0.203585  0.738943  1.998447
O    0.317960  1.677310  2.705485
H    -0.221068  0.454502  -0.121584
H    1.363690  0.871659  0.580457
H    0.654087  -0.780290  0.784384
N    -1.335550  0.176993  2.457019
C    -2.505469  -0.302710  1.699603
C    -2.193563  -1.594646  0.895822
O    -1.175790  -2.234399  1.126182
H    -1.586924  0.528270  3.379161
H    -3.214648  -0.609855  2.480221
C    -3.164788  0.880588  0.890066
C    -2.596132  2.179380  1.421393
O    -2.840309  2.545810  2.625734
O    -1.723027  2.798848  0.720856
H    -4.253190  0.863613  1.028453
H    -2.935875  0.812768  -0.178984
N    -3.143187  -1.949914  -0.003724
C    -3.073649  -3.193733  -0.763099
H    -3.987066  -1.394589  -0.086034
H    -3.783323  -3.935179  -0.372684
H    -3.295684  -3.002381  -1.819237
H    -2.059719  -3.592825  -0.669581
Pb    -0.783308  3.711277  2.678680
