25
Energy: -608765.4849384  eV PBE+vdW (tier 2 basis)
C    -2.733469  1.292321  1.577759
C    -2.237812  0.318080  2.608233
O    -3.026064  -0.035576  3.518005
H    -3.709283  0.958812  1.207163
H    -2.048357  1.432206  0.734874
H    -2.884724  2.259943  2.076470
N    -0.958927  -0.096020  2.468536
C    -0.041913  -0.848278  3.349358
C    -0.462687  -2.305847  3.577679
O    -1.657117  -2.670952  3.750306
H    -0.492939  0.309616  1.664247
H    0.881728  -0.894458  2.758421
C    0.342601  -0.095343  4.650961
C    -0.845013  0.276287  5.546343
O    -1.195841  1.430211  5.680298
O    -1.427734  -0.783392  6.116176
H    0.864944  0.824986  4.364819
H    1.037131  -0.724871  5.225327
N    0.505934  -3.226599  3.589646
C    1.938363  -3.061267  3.346279
H    0.169920  -4.167035  3.788372
H    2.134283  -2.688422  2.332192
H    2.410723  -4.043044  3.439134
H    2.401137  -2.392194  4.082400
Pb    -3.202883  -1.616167  5.205005
