25
Energy: -608765.4179721  eV PBE+vdW (tier 2 basis)
C    0.628892  0.581608  0.862527
C    -0.049096  0.960520  2.154648
O    0.213595  1.956416  2.810074
H    1.666627  0.927994  0.887811
H    0.125539  1.101144  0.034453
H    0.601937  -0.495767  0.657908
N    -1.036433  0.074035  2.604256
C    -1.940786  0.520248  3.648314
C    -1.320473  0.378628  5.058496
O    -1.803881  0.983587  6.071536
H    -1.368351  -0.640779  1.963747
H    -2.103816  1.603897  3.539201
C    -3.312320  -0.201446  3.505957
C    -4.150342  0.254999  4.669823
O    -4.280700  -0.506965  5.689011
O    -4.500073  1.489008  4.719763
H    -3.195677  -1.291582  3.531631
H    -3.765594  0.110474  2.556866
N    -0.236694  -0.368287  5.157324
C    0.553205  -0.569164  6.362876
H    0.104938  -0.738397  4.269990
H    1.505199  -0.028880  6.281795
H    0.755758  -1.637877  6.495894
H    -0.002250  -0.190314  7.223896
Pb    -3.896204  1.422900  6.955205
