25
Energy: -608765.6475190  eV PBE+vdW (tier 2 basis)
C    1.356933  -1.273864  1.832077
C    0.711936  -0.045824  2.398974
O    1.452697  0.885213  2.870312
H    1.967147  -0.991697  0.963580
H    0.633729  -2.036964  1.528155
H    2.037230  -1.694064  2.583946
N    -0.614007  0.003207  2.405572
C    -1.502306  0.995313  3.002642
C    -2.811812  0.201233  3.269120
O    -2.979944  -0.866257  2.674973
H    -1.167516  -0.812125  2.094383
H    -1.053095  1.369186  3.932698
C    -1.788964  2.196456  2.053740
C    -0.485079  2.925354  1.890963
O    0.243162  2.705702  0.860806
O    -0.031527  3.597514  2.885344
H    -2.529692  2.858213  2.517462
H    -2.164197  1.838070  1.088848
N    -3.715870  0.722679  4.121767
C    -3.646828  1.948438  4.906032
H    -4.563670  0.164995  4.197108
H    -4.099606  1.772084  5.888104
H    -2.607997  2.251561  5.072322
H    -4.183801  2.775881  4.419963
Pb    2.112078  2.979698  2.229108
