25
Energy: -608765.0358473  eV PBE+vdW (tier 2 basis)
C    -0.407622  -1.308790  0.662952
C    -0.318229  0.153956  0.922175
O    0.666421  0.837976  0.458683
H    -0.427457  -1.849948  1.617878
H    -1.341253  -1.556283  0.138989
H    0.438994  -1.620739  0.047383
N    -1.235416  0.809119  1.654515
C    -2.693992  0.605733  1.707312
C    -3.071970  -0.728764  2.406665
O    -2.243557  -1.326440  3.080897
H    -0.969894  1.778345  1.819064
H    -3.045247  1.396121  2.384505
C    -3.340974  0.863959  0.290653
C    -2.304339  1.547999  -0.574964
O    -1.705046  0.861492  -1.472947
O    -1.901902  2.730925  -0.286545
H    -4.223548  1.506976  0.397728
H    -3.632944  -0.073802  -0.194454
N    -4.360984  -1.115002  2.245116
C    -4.918316  -2.277872  2.927619
H    -4.998232  -0.525793  1.721910
H    -5.542777  -2.852931  2.234701
H    -5.521566  -1.977948  3.794970
H    -4.088755  -2.900253  3.275006
Pb    0.182157  2.261126  -1.299534
