25
Energy: -608764.9431106  eV PBE+vdW (tier 2 basis)
C    0.039305  -1.055887  0.494204
C    -0.249479  0.318919  0.970102
O    0.585844  1.268332  0.726856
H    0.747064  -1.498749  1.214132
H    0.528682  -1.018121  -0.483247
H    -0.839169  -1.704466  0.503149
N    -1.339112  0.640081  1.696405
C    -2.749102  0.216240  1.537525
C    -3.046436  -1.177602  2.136320
O    -2.162415  -2.018887  2.253753
H    -1.276114  1.599460  2.032645
H    -3.299089  0.970228  2.112459
C    -3.208050  0.334384  0.043114
C    -2.319358  1.362067  -0.628445
O    -1.486362  0.970229  -1.515572
O    -2.266983  2.560146  -0.173411
H    -4.258092  0.649865  0.007267
H    -3.107446  -0.619165  -0.486094
N    -4.332586  -1.407077  2.504958
C    -5.493050  -0.529819  2.430630
H    -4.480280  -2.353855  2.845841
H    -5.239831  0.499199  2.715534
H    -5.952043  -0.523162  1.430943
H    -6.243351  -0.884069  3.144566
Pb    -0.038589  2.738548  -0.941414
