25
Energy: -608765.5486930  eV PBE+vdW (tier 2 basis)
C    -1.889687  2.501953  0.245511
C    -1.289330  1.993847  1.528225
O    -0.072038  2.051870  1.752788
H    -2.984372  2.548154  0.254962
H    -1.572974  1.837286  -0.570131
H    -1.481493  3.495666  0.029785
N    -2.164179  1.464913  2.440415
C    -1.828771  0.679832  3.623747
C    -1.050390  1.402739  4.745764
O    -1.334956  1.131071  5.968915
H    -3.145874  1.462143  2.186346
H    -2.786678  0.420245  4.089419
C    -1.120608  -0.679525  3.259590
C    -0.873452  -1.341199  4.586597
O    0.264794  -1.193572  5.157878
O    -1.880044  -1.792998  5.242954
H    -0.181627  -0.493533  2.728886
H    -1.807693  -1.267915  2.641614
N    -0.100934  2.246904  4.416155
C    0.733710  2.954547  5.376686
H    0.097876  2.304976  3.386781
H    1.600040  2.340450  5.660772
H    0.154095  3.196290  6.272911
H    1.095516  3.876835  4.912649
Pb    -0.927933  -0.822979  7.131780
