25
Energy: -608765.2080379  eV PBE+vdW (tier 2 basis)
C    0.326038  -1.008338  0.479462
C    -0.102730  -0.497667  1.816225
O    0.727803  -0.498841  2.795693
H    -0.267324  -0.595824  -0.342818
H    0.244076  -2.104535  0.466295
H    1.382397  -0.754612  0.335566
N    -1.337302  -0.035808  2.016790
C    -2.577684  -0.496058  1.403358
C    -3.630253  0.548567  1.855590
O    -3.383811  1.250091  2.835614
H    -1.546393  0.459215  2.897525
H    -2.481692  -0.532312  0.312448
C    -2.969658  -1.938949  1.947541
C    -1.963007  -2.314456  3.013344
O    -0.958703  -3.041996  2.698317
O    -2.024494  -1.754663  4.163522
H    -2.943838  -2.676734  1.139819
H    -3.974801  -1.911788  2.384826
N    -4.792159  0.593869  1.170046
C    -5.140615  -0.128407  -0.048697
H    -5.455657  1.273961  1.530847
H    -4.498705  0.155016  -0.894976
H    -6.170337  0.128154  -0.313403
H    -5.100976  -1.217349  0.088975
Pb    0.283825  -2.048534  4.458091
