25
Energy: -608765.2159506  eV PBE+vdW (tier 2 basis)
C    0.496430  -1.541434  0.988015
C    0.304884  -0.120397  1.406892
O    0.975052  0.809972  0.892943
H    -0.288698  -2.207605  1.362360
H    0.585422  -1.614786  -0.100486
H    1.449122  -1.881768  1.423084
N    -0.568616  0.170932  2.431566
C    -2.005511  -0.121284  2.348725
C    -2.418772  -0.345002  0.879742
O    -1.845130  0.273987  -0.057100
H    -0.425044  1.145117  2.726976
H    -2.283782  -0.993290  2.959656
C    -2.794272  1.129245  2.897247
C    -2.408686  2.294938  1.999052
O    -3.071781  2.572560  0.974670
O    -1.208707  2.775356  2.189072
H    -2.495981  1.299825  3.938809
H    -3.870137  0.931377  2.848700
N    -3.409436  -1.204658  0.658132
C    -4.011625  -1.458157  -0.647924
H    -3.799844  -1.687902  1.462022
H    -4.990352  -0.966681  -0.718750
H    -4.136549  -2.537065  -0.789460
H    -3.351910  -1.060786  -1.422966
Pb    -0.697075  2.444505  -0.045976
