25
Energy: -608765.1831871  eV PBE+vdW (tier 2 basis)
C    0.385042  -1.061767  0.883536
C    0.213160  -0.001327  1.946807
O    1.127047  0.452038  2.607581
H    1.456064  -1.215974  0.730596
H    -0.057271  -2.015651  1.207115
H    -0.079356  -0.781317  -0.072242
N    -1.086609  0.497960  2.153566
C    -2.320781  -0.044226  1.630212
C    -2.802351  0.711620  0.361587
O    -3.747746  0.294458  -0.384729
H    -1.141384  1.087499  2.982448
H    -2.162151  -1.078962  1.293490
C    -3.392538  -0.096059  2.763500
C    -4.684445  -0.533603  2.134177
O    -5.587604  0.338207  1.880302
O    -4.756307  -1.716913  1.640540
H    -3.517372  0.889929  3.226948
H    -3.051452  -0.820940  3.512154
N    -2.129268  1.802322  0.042194
C    -2.399880  2.628893  -1.128275
H    -1.344809  2.019668  0.658505
H    -3.436760  2.984922  -1.112489
H    -1.723660  3.487241  -1.111382
H    -2.236808  2.056332  -2.049902
Pb    -5.824035  -0.738421  -0.167963
