24
Energy: -102286.780171 eV PBE+vdW (tier 2 basis)
N    0.462500  0.225912  -0.693314
C    0.706993  -0.496688  0.525853
C    2.032513  -0.160140  1.239387
O    2.927639  0.516000  0.621792
H    0.013376  1.124750  -0.532720
H    1.320271  0.390498  -1.220437
H    -0.084724  -0.265119  1.254539
C    0.686753  -2.059837  0.286348
C    -0.667516  -2.539279  -0.113520
C    -1.163231  -2.359275  -1.394234
C    -1.528426  -3.202924  0.888667
C    -2.465433  -2.774493  -1.716028
C    -2.884297  -3.606937  0.489924
C    -3.330351  -3.395921  -0.786316
H    1.020737  -2.560272  1.204434
H    1.408820  -2.276795  -0.514357
H    -0.550228  -1.881611  -2.155382
H    -1.569735  -2.611012  1.827244
H    -2.825446  -2.610539  -2.733709
H    -3.514206  -4.093822  1.235669
H    -4.329667  -3.701110  -1.092442
O    2.221492  -0.552002  2.447028
H    -1.002989  -4.113211  1.259859
Sr    4.272157  0.566825  2.530711
