24
Energy: -102288.022112 eV PBE+vdW (tier 2 basis)
N    0.052822  -0.602535  -0.156558
C    -0.088586  -0.348331  1.326866
C    1.366418  0.011556  1.763708
O    1.500370  0.388736  2.987174
H    1.125367  -0.528444  -0.256727
H    -0.398864  0.112286  -0.738311
H    -0.742601  0.520956  1.466319
C    -0.648113  -1.594195  2.049582
C    -0.712896  -1.492820  3.561492
C    -1.559588  -0.566449  4.204707
C    0.033893  -2.378161  4.363448
C    -1.661933  -0.531725  5.603634
C    -0.074608  -2.356297  5.764513
C    -0.922978  -1.431010  6.391979
H    -0.032696  -2.466135  1.782591
H    -1.665321  -1.792517  1.676096
H    -2.175068  0.114267  3.614571
H    0.681777  -3.118380  3.891607
H    -2.351829  0.168272  6.076243
H    0.477092  -3.085135  6.359502
H    -1.040716  -1.437180  7.475807
O    2.248348  -0.111970  0.916538
H    -0.278829  -1.524718  -0.462525
Sr    1.226542  0.273933  5.171742
