24
Energy: -102286.75991 eV PBE+vdW (tier 2 basis)
N    -0.814760  -1.198634  1.197494
C    0.307298  -0.737746  1.983308
C    1.518962  -0.205718  1.178228
O    1.403286  -0.033760  -0.085104
H    -0.558456  -1.956434  0.563603
H    -1.220197  -0.454059  0.631775
H    -0.021530  0.145134  2.562580
C    0.772959  -1.812038  2.996513
C    -0.153641  -2.103411  4.141758
C    0.452936  -2.561897  5.412530
C    -1.531694  -1.996061  4.074590
C    -0.436118  -2.935574  6.521985
C    -2.325517  -2.342886  5.181428
C    -1.794226  -2.826197  6.398134
H    1.763419  -1.540898  3.386881
H    0.919763  -2.763332  2.449805
H    1.147144  -1.775351  5.786222
H    -1.997440  -1.669857  3.144515
H    0.021715  -3.285116  7.448440
H    -3.408929  -2.240920  5.090755
H    -2.460072  -3.094881  7.216621
O    2.608141  0.107311  1.784480
H    1.176827  -3.382316  5.221404
Sr    3.525130  0.915644  -0.210946
