24
Energy: -102287.918294 eV PBE+vdW (tier 2 basis)
N    -0.211700  1.346506  1.060285
C    0.091982  0.654184  2.317439
C    1.594477  0.308908  2.234957
O    2.205433  -0.291062  3.153507
H    -0.541586  2.302680  1.188024
H    -0.876215  0.852324  0.464044
H    -0.022452  1.346696  3.165608
C    -0.784028  -0.605400  2.547652
C    -0.484024  -1.434732  3.778036
C    -0.121657  -2.792379  3.653093
C    -0.624354  -0.906170  5.080282
C    0.071062  -3.603204  4.785381
C    -0.422925  -1.708241  6.214347
C    -0.076068  -3.063965  6.073311
H    -0.719215  -1.248164  1.657749
H    -1.828154  -0.262866  2.612090
H    -0.028260  -3.234912  2.660018
H    -0.934067  0.131254  5.217128
H    0.302814  -4.661515  4.658088
H    -0.577337  -1.285539  7.207936
H    0.033691  -3.698275  6.953255
O    2.166261  0.687164  1.153127
H    1.350523  1.148306  0.658982
Sr    2.285799  -1.649598  4.962663
