24
Energy: -102286.386349 eV PBE+vdW (tier 2 basis)
N    0.103676  1.103995  0.293036
C    0.021529  0.389281  1.563763
C    1.446041  -0.129741  1.563513
O    2.424228  0.470543  2.064220
H    -0.111879  2.095373  0.349732
H    -0.382869  0.644755  -0.475036
H    -0.039386  1.104098  2.394290
C    -1.105400  -0.658112  1.705896
C    -1.132798  -1.689730  0.601446
C    -1.761580  -1.426062  -0.625888
C    -0.480136  -2.933391  0.766234
C    -1.716592  -2.357488  -1.664815
C    -0.442148  -3.868788  -0.280320
C    -1.044949  -3.572678  -1.501297
H    -2.046477  -0.090538  1.721308
H    -1.015641  -1.141973  2.689545
H    -2.335343  -0.506499  -0.755592
H    -0.115172  -3.223468  1.756060
H    -2.227656  -2.142010  -2.602654
H    0.024844  -4.840334  -0.120633
H    -1.029188  -4.300933  -2.310823
O    1.786695  -1.254554  0.872026
H    0.964149  -1.839132  0.616899
Sr    4.229687  -0.672368  1.161078
