24
Energy: -102287.005704 eV PBE+vdW (tier 2 basis)
N    -0.368062  -0.927251  2.826105
C    1.081740  -0.588214  3.078188
C    1.754834  -0.102620  1.807074
O    1.130884  -0.177018  0.687839
H    -0.562131  -0.867233  1.814567
H    -1.001113  -0.280382  3.312361
H    1.122542  0.208493  3.832506
C    1.697174  -1.889212  3.646001
C    0.516460  -2.562142  4.369620
C    0.212766  -1.974489  5.721094
C    -0.649533  -2.393119  3.390696
C    -1.055423  -1.761367  6.124921
C    -2.019072  -2.444668  3.974228
C    -2.184414  -2.109800  5.272075
H    2.542759  -1.664745  4.304262
H    2.062834  -2.532337  2.833067
H    1.051091  -1.805770  6.398709
H    -0.535237  -3.044042  2.515939
H    -1.256285  -1.390421  7.129290
H    -2.855305  -2.734457  3.340351
H    -3.182338  -2.116170  5.710788
O    2.940692  0.354002  1.883014
H    0.738605  -3.636553  4.494720
Sr    3.022531  0.794514  -0.416418
