24
Energy: -102287.739463 eV PBE+vdW (tier 2 basis)
N    -0.270673  0.483207  0.162834
C    0.052169  0.018337  1.565393
C    1.497781  -0.486650  1.563026
O    1.956500  -1.045806  2.606541
H    -0.849566  1.331222  0.147823
H    -0.797344  -0.292056  -0.311838
H    0.029026  0.896779  2.227704
C    -0.991144  -1.028703  2.028810
C    -1.198178  -2.101309  0.986898
C    -0.390436  -3.248681  0.954207
C    -2.178507  -1.935054  -0.009498
C    -0.555856  -4.201203  -0.051555
C    -2.334927  -2.886516  -1.023635
C    -1.518501  -4.016229  -1.048149
H    -1.931370  -0.501314  2.242108
H    -0.636094  -1.439685  2.982043
H    0.329510  -3.423489  1.756163
H    -2.881647  -1.098903  0.049438
H    0.049057  -5.107560  -0.046534
H    -3.113554  -2.755632  -1.773990
H    -1.650709  -4.767689  -1.825203
O    2.224498  -0.293199  0.523107
H    0.611096  0.646551  -0.352684
Sr    4.087868  -1.291416  1.648989
