24
Energy: -102288.082254 eV PBE+vdW (tier 2 basis)
N    1.466915  -0.306275  0.459749
C    0.355508  0.075448  1.372102
C    0.974205  0.341030  2.746095
O    1.986833  -0.274424  3.103937
H    2.024384  0.529099  0.248875
H    1.069995  -0.583849  -0.443446
H    -0.178215  0.972851  1.019362
C    -0.685598  -1.090856  1.478488
C    -0.047945  -2.430552  1.773008
C    0.217762  -2.839637  3.096325
C    0.361637  -3.276580  0.719868
C    0.920751  -4.025283  3.357296
C    1.063772  -4.463430  0.975549
C    1.363100  -4.831965  2.296965
H    -1.227120  -1.129967  0.523025
H    -1.429049  -0.833832  2.245110
H    -0.127596  -2.233057  3.934564
H    0.110544  -3.019876  -0.310611
H    1.101078  -4.330687  4.388271
H    1.350638  -5.113271  0.148371
H    1.891058  -5.763782  2.500274
O    0.403529  1.169535  3.588955
H    -0.354306  1.659047  3.210971
Sr    2.841358  -2.144793  1.878336
