24
Energy: -102286.712287 eV PBE+vdW (tier 2 basis)
N    1.434601  -2.972590  2.031507
C    1.090562  -1.598065  2.126615
C    2.167655  -0.762806  1.425690
O    1.829019  0.285330  0.773718
H    0.714397  -3.637464  2.294140
H    2.350195  -3.223443  2.395451
H    0.148822  -1.412850  1.591458
C    0.921662  -0.951598  3.604342
C    -0.247008  -1.503390  4.317486
C    -1.565361  -0.833710  4.211030
C    -0.163539  -2.678307  5.052959
C    -2.722171  -1.468768  4.864383
C    -1.301887  -3.227165  5.659639
C    -2.582512  -2.631267  5.570251
H    0.820385  0.133750  3.466301
H    1.851059  -1.162722  4.148958
H    -1.810620  -0.607948  3.151454
H    0.796478  -3.179422  5.175066
H    -3.690309  -0.972953  4.781263
H    -1.194858  -4.152432  6.229140
H    -3.433954  -3.096829  6.063942
O    3.391228  -1.134142  1.491653
H    -1.477236  0.199559  4.616310
Sr    4.001391  0.487233  -0.075756
