24
Energy: -102287.778287 eV PBE+vdW (tier 2 basis)
N    1.439252  -2.645517  -0.114072
C    1.239636  -1.149726  -0.186144
C    2.474089  -0.447224  0.356530
O    2.603871  0.801215  0.150320
H    1.827658  -3.041037  -0.978344
H    2.085383  -2.868332  0.660610
H    1.091077  -0.879109  -1.238530
C    -0.037643  -0.772533  0.628915
C    -1.183452  -1.676864  0.248428
C    -1.453998  -2.826256  1.015535
C    -1.936993  -1.434487  -0.910152
C    -2.464847  -3.713755  0.629631
C    -2.946677  -2.318478  -1.287127
C    -3.206992  -3.460828  -0.523179
H    -0.252636  0.281736  0.413972
H    0.180109  -0.856246  1.704202
H    -0.923826  -2.994009  1.957323
H    0.495956  -3.078057  0.064912
H    -2.682633  -4.587295  1.242675
H    -3.541237  -2.111611  -2.176075
H    -4.000887  -4.144448  -0.820670
O    3.324373  -1.111121  1.052488
H    -1.752684  -0.539134  -1.506700
Sr    4.591102  0.899115  1.394452
