14
Energy: -27354.8034 eV PBE+vdW (tier 2 basis)
N    0.195313  0.283496  0.134125
C    0.079164  0.102164  1.628192
C    1.480714  0.043797  2.207023
O    2.485868  -0.181944  1.483800
H    -0.594748  -0.212150  -0.296541
H    0.009215  1.270692  -0.084748
H    -0.439598  0.963085  2.075972
H    -0.749607  -1.302658  3.070181
C    -0.688286  -1.181619  1.982404
H    -1.715257  -1.111701  1.601055
H    -0.207917  -2.077187  1.563079
H    2.464963  0.122226  3.840244
O    1.548926  0.207867  3.490475
Ca    2.409251  -0.349067  -0.658261
