14
Energy: -27354.6492477 eV PBE+vdW (tier 2 basis)
N    0.257595  0.474814  0.427984
C    0.512219  0.079717  1.861555
C    1.933866  -0.479040  1.942054
O    2.743291  -0.278408  1.005222
H    -0.296476  -0.278755  -0.002168
H    -0.389948  1.271630  0.434133
H    0.549383  1.013869  2.450754
H    -1.551245  -0.355975  2.351361
C    -0.568578  -0.835144  2.443182
H    -0.598262  -1.809614  1.937039
H    -0.423134  -1.006401  3.519658
H    1.679003  -1.277592  3.668787
O    2.360507  -1.128199  2.979701
Ca    2.358779  0.747097  -0.817261
