14
Energy: -27354.8077929 eV PBE+vdW (tier 2 basis)
N    0.183661  0.100129  0.195557
C    0.172703  0.212015  1.703024
C    1.494766  -0.331848  2.223610
O    2.458613  -0.578472  1.452512
H    -0.424561  -0.694133  -0.048440
H    -0.325750  0.909066  -0.179278
H    0.195565  1.287597  1.954005
H    -1.045546  -0.276226  3.435882
C    -1.060845  -0.422056  2.349595
H    -1.968640  0.056921  1.963169
H    -1.110095  -1.501562  2.149942
H    2.445312  -0.793529  3.810135
O    1.561191  -0.483357  3.508444
Ca    2.420627  -0.279542  -0.675159
