14
Energy: -27355.3687368 eV PBE+vdW (tier 2 basis)
N    -0.128325  0.131691  0.072025
C    -0.041908  -0.058533  1.582407
C    1.436299  -0.093157  1.978258
O    2.339501  0.186503  1.110840
H    -0.069645  -0.773173  -0.419070
H    0.652633  0.716579  -0.268489
H    -1.021116  0.569374  -0.197650
H    -0.459019  0.859153  2.027915
C    -0.843618  -1.275358  2.027667
H    -1.900680  -1.165372  1.754719
H    -0.791573  -1.361637  3.118895
H    -0.452307  -2.204516  1.591059
O    1.745438  -0.365046  3.181360
Ca    3.869320  -0.058508  2.736065
