23
Energy: -99209.0814388 eV PBE+vdW (tier 2 basis)
N    1.139169  -1.322277  0.786657
C    0.282273  -0.492350  1.698565
C    1.174862  -0.028458  2.840347
O    2.089853  -0.772562  3.256195
H    0.498159  -1.847658  0.177615
H    1.637052  -0.695648  0.142058
H    -0.130005  0.378936  1.163501
C    -0.905910  -1.350220  2.254843
C    -2.051816  -1.500781  1.228333
C    -1.466157  -0.809366  3.577537
C    -1.737359  -2.092288  -0.147672
H    -0.475913  -2.356857  2.453584
H    -2.530408  -0.516453  1.104322
H    -2.807712  -2.132519  1.716592
H    -0.732710  -0.793953  4.394688
H    -2.297655  -1.442860  3.907491
H    -1.876561  0.204227  3.458799
H    -1.166542  -1.411843  -0.799335
H    -2.670588  -2.288999  -0.689658
H    -1.220581  -3.064598  -0.081913
O    1.003355  1.119020  3.435832
H    0.271643  1.650262  3.061528
Sr    2.806290  -2.701536  2.234774
