23
Energy: -99209.8100975 eV PBE+vdW (tier 2 basis)
N    0.514128  -0.294850  0.112265
C    -0.064265  0.129165  1.455071
C    1.070050  0.758890  2.265658
O    2.210116  0.952512  1.706649
H    -0.140298  -0.133635  -0.662933
H    1.395447  0.223675  -0.050390
H    -0.784446  0.935427  1.246663
C    -0.789547  -1.043938  2.149586
C    0.171840  -2.216042  2.436652
C    -2.036663  -1.450213  1.352584
C    -0.423485  -3.297197  3.342866
H    -1.114692  -0.623845  3.114446
H    1.094308  -1.828746  2.903767
H    0.486351  -2.703055  1.492022
H    -2.690907  -0.591611  1.150087
H    -2.629923  -2.176925  1.917630
H    -1.788027  -1.933138  0.394222
H    0.326849  -4.063677  3.568451
H    -1.273572  -3.805232  2.872709
H    -0.766284  -2.870376  4.294759
O    0.843221  1.115267  3.462805
H    0.739277  -1.302138  0.135953
Sr    2.998009  2.018706  3.715984
