23
Energy: -99209.7320588 eV PBE+vdW (tier 2 basis)
N    -0.142379  0.246606  0.408826
C    0.138058  -0.174658  1.841588
C    1.621381  -0.538917  1.901577
O    2.232277  -0.536750  3.014719
H    0.023126  1.247834  0.246850
H    -1.129463  0.036655  0.180401
H    -0.056342  0.690075  2.490079
C    -0.799586  -1.356024  2.254729
C    -2.272304  -1.032078  1.900715
C    -0.633037  -1.652826  3.750213
C    -3.263638  -2.128755  2.303392
H    -0.490932  -2.243985  1.673841
H    -2.401473  -0.900797  0.807182
H    -2.560405  -0.077162  2.371686
H    0.408349  -1.835300  4.034945
H    -1.205111  -2.548002  4.014226
H    -1.009598  -0.821788  4.362755
H    -2.968891  -3.107779  1.902332
H    -4.258516  -1.893664  1.907895
H    -3.357757  -2.214409  3.391609
O    2.214701  -0.872503  0.810039
H    0.486761  -0.288524  -0.215453
Sr    4.233947  -1.295561  2.041046
