23
Energy: -99209.6037129 eV PBE+vdW (tier 2 basis)
N    0.106170  0.725913  0.571486
C    -0.165222  0.244857  1.995170
C    1.206735  0.127366  2.670460
O    1.292063  -0.255574  3.875020
H    0.056510  -0.062315  -0.089835
H    1.069042  1.110019  0.527820
H    -0.706551  1.056964  2.503344
C    -1.060116  -1.033375  1.951166
C    -2.114001  -1.090588  3.080748
C    -0.240649  -2.318337  1.781142
C    -1.633613  -1.283560  4.518123
H    -1.660103  -0.897481  1.032220
H    -2.787216  -1.918612  2.813082
H    -2.733570  -0.181776  3.017112
H    -0.910870  -3.160423  1.572407
H    0.320044  -2.568246  2.690649
H    0.470306  -2.268658  0.940577
H    -2.503071  -1.397687  5.176337
H    -1.055510  -0.427836  4.888504
H    -1.020244  -2.185974  4.637465
O    2.254161  0.451065  1.995606
H    -0.573933  1.433155  0.265346
Sr    3.629638  -0.030900  3.911051
