23
Energy: -99209.2767181 eV PBE+vdW (tier 2 basis)
N    -0.324431  0.183660  0.117262
C    -0.072305  -0.103216  1.562532
C    1.385568  -0.521581  1.707667
O    1.987676  -1.061014  0.759389
H    0.047140  1.114117  -0.105883
H    -1.338790  0.281149  -0.005372
H    -0.258944  0.791792  2.177849
C    -1.020773  -1.239141  2.080656
C    -0.908583  -2.553635  1.270733
C    -2.462763  -0.716606  2.161025
C    -1.683084  -3.735946  1.867690
H    -0.687857  -1.465449  3.107056
H    0.156005  -2.864737  1.211029
H    -1.309402  -2.384399  0.242923
H    -2.517362  0.232256  2.709218
H    -3.099606  -1.431327  2.693636
H    -2.919833  -0.569568  1.169949
H    -1.494106  -4.655267  1.301254
H    -2.764005  -3.558875  1.857863
H    -1.371696  -3.915173  2.904680
O    2.017058  -0.386670  2.844149
H    1.503784  0.083189  3.532391
Sr    0.899833  -1.712163  -1.190395
