23
Energy: -99208.2416122 eV PBE+vdW (tier 2 basis)
N    -0.687420  1.048814  0.491313
C    -0.792582  0.508397  1.849378
C    0.562878  0.966311  2.369780
O    0.766575  2.126523  2.844856
H    -0.393720  0.352609  -0.193003
H    -1.541971  1.497273  0.170478
H    -1.553444  1.079128  2.401081
C    -1.061344  -0.999387  2.024225
C    -2.386598  -1.386994  1.334955
C    -1.038775  -1.376236  3.512436
C    -2.665935  -2.891003  1.317980
H    -0.259084  -1.562351  1.492836
H    -2.379619  -1.017390  0.298655
H    -3.209106  -0.858880  1.846163
H    -0.125382  -1.049011  4.032976
H    -1.098152  -2.462020  3.642638
H    -1.898427  -0.934671  4.035977
H    -1.849247  -3.448020  0.837806
H    -3.580406  -3.096638  0.749485
H    -2.812599  -3.301617  2.324285
O    1.621390  0.209578  2.249298
H    1.366869  -0.690969  1.942772
Sr    1.647021  4.082791  3.274465
