23
Energy: -99209.60644 eV PBE+vdW (tier 2 basis)
N    0.598427  0.124325  0.478155
C    0.178318  -0.007936  1.940603
C    1.461530  -0.332335  2.710465
O    2.478784  -0.761996  2.049808
H    -0.120191  -0.266449  -0.147089
H    0.764637  1.100345  0.200222
H    -0.202856  0.968063  2.266923
C    -0.955373  -1.080771  2.057550
C    -1.958908  -0.803705  3.202043
C    -0.418964  -2.515420  2.023652
C    -1.524660  -1.079268  4.641339
H    -1.550169  -0.921053  1.138191
H    -2.836344  -1.426555  2.971834
H    -2.310609  0.235949  3.110997
H    0.212743  -2.721162  1.147143
H    -1.255820  -3.222881  1.985816
H    0.159445  -2.756627  2.926500
H    -2.381884  -0.931494  5.308868
H    -0.729535  -0.405042  4.978607
H    -1.190039  -2.115553  4.784385
O    1.500933  -0.195461  3.969451
H    1.487398  -0.400052  0.360173
Sr    3.696135  -1.019923  4.110364
