23
Energy: -99209.2428094 eV PBE+vdW (tier 2 basis)
N    0.052454  -0.252021  -0.151760
C    -0.012615  -0.060848  1.327399
C    1.421835  -0.018441  1.844463
O    2.341290  -0.575208  1.217148
H    0.333133  0.633233  -0.588774
H    -0.902154  -0.410447  -0.492877
H    -0.501829  0.894564  1.578380
C    -0.860156  -1.198236  2.006059
C    -0.522531  -2.636389  1.538061
C    -2.354954  -0.906180  1.796155
C    0.727353  -3.326378  2.114210
H    -0.653696  -1.141252  3.087255
H    -0.570550  -2.682234  0.425247
H    -1.379477  -3.269478  1.807804
H    -2.624737  0.101314  2.136126
H    -2.961084  -1.619181  2.368185
H    -2.662491  -1.003799  0.743595
H    1.675270  -2.758976  2.056151
H    0.870481  -4.328786  1.681884
H    0.608275  -3.487769  3.193989
O    1.709019  0.564238  2.979664
H    0.952481  1.028044  3.392478
Sr    1.854741  -2.131505  -0.460823
