23
Energy: -99209.2646097 eV PBE+vdW (tier 2 basis)
N    0.905380  -0.426536  0.252919
C    0.063817  0.027638  1.406035
C    1.013259  0.499591  2.502332
O    2.139756  -0.022635  2.623507
H    1.220913  0.399080  -0.269984
H    0.291201  -0.919936  -0.405027
H    -0.596960  0.855509  1.104851
C    -0.847151  -1.140261  1.913286
C    -1.772977  -0.689309  3.063531
C    -0.068308  -2.418110  2.261414
C    -2.954573  -1.631146  3.311703
H    -1.493806  -1.368037  1.047524
H    -2.175745  0.308034  2.816402
H    -1.191430  -0.578034  3.993625
H    0.435223  -2.868672  1.381281
H    -0.758192  -3.207035  2.585673
H    0.627881  -2.277059  3.107895
H    -3.605369  -1.216655  4.090122
H    -2.637449  -2.622606  3.659519
H    -3.563316  -1.760781  2.407088
O    0.663359  1.414872  3.364264
H    -0.229503  1.783689  3.205848
Sr    2.908056  -1.752396  1.291250
