23
Energy: -99209.103548 eV PBE+vdW (tier 2 basis)
N    0.541115  -0.912754  0.015972
C    0.257822  -0.351110  1.377711
C    1.582745  -0.282546  2.120110
O    2.461908  -1.147343  1.910629
H    0.806435  -0.144550  -0.611928
H    -0.359764  -1.237745  -0.357763
H    -0.186617  0.654740  1.300901
C    -0.744503  -1.279325  2.143283
C    -2.135256  -1.225096  1.470774
C    -0.820111  -0.944924  3.637219
C    -3.095993  -2.319955  1.940375
H    -0.344491  -2.312173  2.043035
H    -2.051196  -1.301907  0.371483
H    -2.571713  -0.231587  1.660949
H    0.129049  -1.097310  4.167146
H    -1.556019  -1.590741  4.127437
H    -1.154694  0.090945  3.798968
H    -4.035979  -2.257046  1.379620
H    -3.349348  -2.224127  3.002472
H    -2.681704  -3.325149  1.778657
O    1.833005  0.637166  3.009928
H    1.101651  1.276532  3.130320
Sr    2.444608  -2.691416  0.214367
