23
Energy: -99209.1140168 eV PBE+vdW (tier 2 basis)
N    0.661008  -0.512398  0.012405
C    0.174990  -0.135991  1.390320
C    1.394008  0.261836  2.224303
O    2.532058  0.332533  1.701154
H    -0.066249  -0.232651  -0.654124
H    0.640929  -1.540021  -0.033232
H    -0.423050  0.785139  1.282077
C    -0.738236  -1.248272  2.014402
C    -1.883832  -0.716862  2.909053
C    0.071827  -2.390173  2.645421
C    -1.534744  0.000110  4.216295
H    -1.260268  -1.660994  1.134341
H    -2.501466  -1.593188  3.152196
H    -2.529074  -0.062941  2.303314
H    0.572735  -2.102438  3.579156
H    0.844240  -2.788025  1.968184
H    -0.591656  -3.230258  2.882338
H    -0.844522  -0.567512  4.861149
H    -2.437530  0.141233  4.824343
H    -1.177161  1.037713  4.062199
O    1.285344  0.566289  3.477297
H    0.356317  0.485034  3.830202
Sr    3.124095  0.224004  -0.485161
