23
Energy: -99209.2477496 eV PBE+vdW (tier 2 basis)
N    0.214249  0.527598  0.863963
C    -0.077644  -0.308816  2.072484
C    1.190098  -1.062362  2.447457
O    2.088488  -1.262649  1.608287
H    0.556718  1.440241  1.185994
H    -0.688551  0.744605  0.425950
H    -0.367984  0.345923  2.910076
C    -1.265244  -1.313833  1.853862
C    -0.945410  -2.616787  1.085528
C    -2.496080  -0.579753  1.303398
C    -0.439347  -2.527396  -0.368094
H    -1.526603  -1.641254  2.873166
H    -1.881885  -3.190373  1.077994
H    -0.245831  -3.235610  1.665911
H    -3.373546  -1.233838  1.378026
H    -2.410824  -0.313265  0.237896
H    -2.725047  0.332658  1.870471
H    0.655236  -2.710251  -0.415343
H    -0.727937  -1.594173  -0.883461
H    -0.847496  -3.335645  -0.987344
O    1.343466  -1.565853  3.644974
H    0.622542  -1.340654  4.267101
Sr    2.014503  -0.621823  -0.621556
