23
Energy: -99209.6323744 eV PBE+vdW (tier 2 basis)
N    0.108338  0.124662  0.119603
C    -0.235350  0.189779  1.601693
C    1.045763  0.544710  2.351382
O    0.958119  1.251791  3.402761
H    0.227006  1.060092  -0.293375
H    -0.626797  -0.363367  -0.412014
H    -0.953774  1.008122  1.731060
C    -0.891133  -1.155128  2.055314
C    -1.147878  -1.176488  3.585767
C    -0.164886  -2.408368  1.547195
C    -0.026785  -1.721670  4.477147
H    -1.887851  -1.126443  1.583227
H    -2.028527  -1.814209  3.745400
H    -1.449308  -0.174854  3.924783
H    -0.179117  -2.509269  0.452121
H    -0.682053  -3.299203  1.924722
H    0.879449  -2.469142  1.879136
H    0.171560  -2.785583  4.301989
H    -0.300442  -1.607716  5.532765
H    0.936942  -1.194775  4.336715
O    2.160711  0.068091  1.936393
H    0.997537  -0.389260  0.002459
Sr    3.156321  0.715282  4.027498
