23
Energy: -99209.1269841 eV PBE+vdW (tier 2 basis)
N    0.881918  -0.023300  0.385798
C    0.083262  0.225079  1.635361
C    1.015083  0.811040  2.693554
O    2.168179  1.196464  2.402694
H    0.250208  0.100860  -0.412061
H    1.090229  -1.031839  0.372712
H    -0.631643  1.036063  1.408556
C    -0.726324  -1.010569  2.122147
C    0.202009  -2.181637  2.508665
C    -1.806599  -1.386059  1.099259
C    -0.508245  -3.322174  3.243065
H    -1.264257  -0.687983  3.035343
H    1.024633  -1.810353  3.145693
H    0.675852  -2.599282  1.600255
H    -2.434224  -0.525903  0.829537
H    -2.472228  -2.150982  1.513059
H    -1.377250  -1.808785  0.178937
H    0.214330  -4.088110  3.547124
H    -1.258567  -3.814405  2.613286
H    -1.009067  -2.960297  4.151211
O    0.613281  0.975422  3.922025
H    -0.286044  0.617770  4.079435
Sr    3.159204  1.261126  0.346137
