23
Energy: -99209.2863556 eV PBE+vdW (tier 2 basis)
N    0.548155  0.037885  0.299845
C    -0.025022  0.079157  1.679216
C    1.140523  0.209752  2.653743
O    2.257756  -0.259204  2.366897
H    0.820354  0.989473  0.027379
H    -0.211751  -0.200445  -0.346137
H    -0.700915  0.942149  1.797119
C    -0.854005  -1.210332  2.010944
C    -0.060583  -2.541458  1.930777
C    -2.158574  -1.238857  1.202317
C    0.095675  -3.221139  0.554407
H    -1.135604  -1.093994  3.069764
H    -0.581911  -3.267598  2.570749
H    0.910067  -2.433885  2.457251
H    -2.003359  -1.319239  0.116392
H    -2.761203  -0.341305  1.388332
H    -2.764088  -2.104812  1.499058
H    0.776749  -4.086200  0.605788
H    0.393783  -2.559138  -0.285052
H    -0.859314  -3.630201  0.201394
O    0.979514  0.750848  3.833288
H    0.092622  1.139245  3.975741
Sr    2.612298  -1.574305  0.468040
