23
Energy: -99209.1458495 eV PBE+vdW (tier 2 basis)
N    -0.273692  0.113737  -0.011537
C    -0.328276  0.050082  1.490782
C    0.934309  0.709107  2.044390
O    1.699507  1.365697  1.302111
H    -1.239040  0.175831  -0.351785
H    0.035774  -0.814703  -0.330857
H    -1.152332  0.711121  1.812974
C    -0.629267  -1.379414  2.035087
C    -1.007144  -1.377768  3.538337
C    0.492762  -2.373151  1.709711
C    -1.867763  -2.579555  3.947042
H    -1.541525  -1.684377  1.494279
H    -1.556099  -0.454676  3.792375
H    -0.093647  -1.417750  4.168606
H    0.696977  -2.470882  0.631669
H    0.214593  -3.379640  2.042380
H    1.435987  -2.114620  2.213314
H    -2.098105  -2.535816  5.017612
H    -1.358431  -3.532653  3.760259
H    -2.819286  -2.581694  3.399826
O    1.214048  0.645640  3.310706
H    0.581181  0.063810  3.801286
Sr    1.449322  1.875137  -0.903643
