23
Energy: -99209.7523725 eV PBE+vdW (tier 2 basis)
N    0.635624  -0.275496  0.233863
C    -0.011507  0.181951  1.535976
C    1.086797  0.835116  2.373116
O    0.800434  1.319990  3.510711
H    0.071707  -0.031400  -0.589670
H    0.766626  -1.297816  0.239035
H    -0.734601  0.969161  1.276182
C    -0.765697  -1.001531  2.199499
C    -1.783367  -0.535462  3.259690
C    0.194272  -2.065447  2.743703
C    -2.822786  0.471347  2.768979
H    -1.356386  -1.441838  1.374260
H    -1.249680  -0.140221  4.135858
H    -2.294099  -1.445894  3.605553
H    0.746263  -1.697579  3.620332
H    0.932129  -2.430355  2.009919
H    -0.371333  -2.947394  3.066171
H    -2.394708  1.463319  2.558683
H    -3.589356  0.627896  3.536975
H    -3.342124  0.120197  1.865923
O    2.278616  0.904448  1.893886
H    1.574812  0.160219  0.164093
Sr    2.996364  2.079790  3.866260
