23
Energy: -99209.2873954 eV PBE+vdW (tier 2 basis)
N    0.939146  -0.576030  0.217441
C    0.356885  -0.239770  1.556197
C    1.490405  -0.271602  2.573678
O    2.479965  -1.011055  2.394396
H    0.159441  -0.765146  -0.422743
H    1.379756  0.267418  -0.168542
H    -0.094838  0.763094  1.540073
C    -0.764427  -1.264164  1.936059
C    -1.443121  -0.954423  3.287135
C    -0.293272  -2.726274  1.883379
C    -2.021854  0.455303  3.432086
H    -1.527253  -1.125625  1.149701
H    -0.755547  -1.183509  4.117948
H    -2.265681  -1.675832  3.394773
H    0.493502  -2.948128  2.626404
H    0.003902  -3.047901  0.864168
H    -1.122517  -3.400941  2.132880
H    -1.268534  1.263687  3.459201
H    -2.582320  0.538904  4.370182
H    -2.711755  0.700691  2.613221
O    1.430764  0.426515  3.673389
H    0.615965  0.970811  3.740069
Sr    2.681212  -2.482096  0.623166
