16
Energy: -32482.8514595 eV PBE+vdW (tier 2 basis)
N    -0.213217  0.216071  0.038044
C    -0.085981  -0.067469  1.438868
C    1.364884  -0.230693  1.943685
O    2.316804  -0.639339  1.362731
H    0.302933  -0.446556  -0.541072
H    0.088551  1.159185  -0.201001
H    -0.552231  0.757105  2.002039
C    -0.891295  -1.385731  1.770684
C    -0.396619  -1.993444  3.055459
O    0.551019  -2.863274  2.993273
O    -0.721710  -1.495518  4.192408
H    -0.725629  -2.095957  0.953104
H    -1.952576  -1.122326  1.824348
O    1.525118  0.074605  3.365428
H    0.783048  0.654222  3.627339
Ca    1.372901  -1.925881  4.747665
