16
Energy: -32483.8288066 eV PBE+vdW (tier 2 basis)
N    -0.762384  0.894281  0.202117
C    -0.466101  0.554326  1.618213
C    0.720005  -0.414610  1.572912
O    1.041656  -1.031008  0.550857
H    -1.671809  1.360443  0.148130
H    -0.065529  1.557794  -0.144420
H    -0.174928  1.427298  2.221877
C    -1.716656  -0.106181  2.297741
C    -2.108836  -1.214946  1.332747
O    -2.839888  -0.925320  0.328800
O    -1.375540  -2.262463  1.331943
H    -2.504254  0.648313  2.405912
H    -1.435153  -0.493251  3.282463
O    1.365821  -0.506265  2.719834
H    2.081667  -1.170988  2.640779
Ca    -0.910068  -1.505424  -0.730904
