16
Energy: -32483.2469285 eV PBE+vdW (tier 2 basis)
N    -0.165626  -0.159916  -0.208561
C    -0.154577  -0.136682  1.296214
C    1.089202  0.502245  1.921731
O    1.115246  0.915232  3.053034
H    0.725030  -0.568744  -0.516594
H    -0.111207  0.813924  -0.522125
H    -1.015793  0.463569  1.613183
C    -0.329285  -1.565896  1.899484
C    -1.349021  -2.206452  0.997084
O    -2.525704  -1.697138  0.937124
O    -0.943451  -2.982229  0.060342
H    -0.677587  -1.466027  2.933043
H    0.607423  -2.133796  1.874669
O    2.143245  0.503515  1.064288
H    2.907894  0.884965  1.541348
Ca    -2.074790  -1.598570  -1.185262
