16
Energy: -32483.6724635 eV PBE+vdW (tier 2 basis)
N    -0.748708  0.557122  0.073880
C    -0.106751  0.316076  1.419518
C    1.406317  0.111991  1.110441
O    2.094049  -0.467736  1.998405
H    -0.143825  1.170716  -0.491051
H    -1.706446  0.917905  0.130892
H    -0.294506  1.170253  2.080277
C    -0.680277  -1.010111  2.003177
C    -0.032977  -2.144010  1.200107
O    -0.011258  -1.981109  -0.085951
O    0.702438  -3.006258  1.746737
H    -1.777301  -1.021147  1.928271
H    -0.405890  -1.100217  3.057660
O    1.790945  0.256353  -0.090087
H    -0.705571  -0.410439  -0.371181
Ca    2.318760  -2.088387  0.382905
