16
Energy: -32483.99561 eV PBE+vdW (tier 2 basis)
N    0.135320  0.860206  0.504282
C    0.259827  -0.053446  1.646666
C    1.786527  -0.228487  1.895993
O    2.277998  -0.935291  2.796465
H    -0.252617  0.407948  -0.323067
H    -0.424408  1.685063  0.711777
H    -0.120943  0.431640  2.558170
C    -0.512906  -1.386363  1.461280
C    -0.119117  -2.340600  2.568484
O    -0.337256  -1.999305  3.784002
O    0.628694  -3.340254  2.296339
H    -0.276571  -1.841081  0.491127
H    -1.586893  -1.165565  1.508440
O    2.527487  0.479168  1.101149
H    1.810844  0.946749  0.517103
Ca    1.742015  -2.679383  4.076791
