16
Energy: -32483.369137 eV PBE+vdW (tier 2 basis)
N    0.125849  -0.981389  -0.211597
C    -0.144662  -0.168991  1.021390
C    1.183223  0.323861  1.605161
O    2.256211  -0.143459  1.290323
H    0.963397  -1.543124  0.003679
H    0.471354  -0.321822  -0.916620
H    -0.762881  0.687052  0.724891
C    -0.923419  -0.971052  2.114365
C    -1.857001  -1.847280  1.323596
O    -2.760924  -1.294963  0.599865
O    -1.515731  -3.062458  1.100589
H    -1.454528  -0.263943  2.760174
H    -0.249511  -1.590823  2.716052
O    0.986991  1.295900  2.510409
H    1.857682  1.550519  2.878541
Ca    -1.812051  -2.468029  -0.970818
