16
Energy: -32483.7878602 eV PBE+vdW (tier 2 basis)
N    -0.080707  0.205107  0.078624
C    0.077283  0.013579  1.569187
C    1.647050  -0.135359  1.691776
O    2.293296  0.477923  0.834733
H    0.839857  0.670217  -0.168529
H    -0.900067  0.750887  -0.203798
H    -0.211422  0.960181  2.045567
C    -0.778759  -1.143504  2.102198
C    -0.030405  -2.445757  1.877273
O    0.616841  -2.570131  0.770788
O    0.157471  -3.251185  2.838571
H    -1.766206  -1.160535  1.616931
H    -0.953860  -1.015869  3.175245
O    2.105583  -0.899481  2.615978
H    -0.086722  -0.728009  -0.365290
Ca    2.299768  -3.018067  2.269747
