16
Energy: -32483.5318114 eV PBE+vdW (tier 2 basis)
N    0.709690  -0.298130  0.101085
C    0.272730  0.016579  1.455265
C    1.603047  0.062746  2.240404
O    2.174384  -0.930087  2.714311
H    0.770723  -1.308561  -0.032636
H    0.086942  0.095408  -0.601364
H    -0.140669  1.036008  1.449588
C    -0.823320  -0.900670  2.084097
C    -0.232840  -2.240768  2.440591
O    -0.105159  -2.569179  3.669671
O    0.358045  -2.930192  1.527865
H    -1.616188  -1.010867  1.332287
H    -1.250827  -0.444048  2.984306
O    2.226355  1.223143  2.352437
H    1.731843  1.936653  1.907286
Ca    1.920324  -3.136199  3.071675
