16
Energy: -32483.5643457 eV PBE+vdW (tier 2 basis)
N    -0.205732  -0.208774  -0.166693
C    -0.296341  -0.091315  1.271577
C    1.060098  -0.310003  1.940371
O    1.257213  -0.253653  3.170562
H    0.466695  0.438886  -0.575106
H    -1.111569  -0.035568  -0.600181
H    -0.598884  0.907906  1.654256
C    -1.380887  -1.096019  1.782810
C    -1.391079  -1.098496  3.287555
O    -1.657293  -0.006525  3.910477
O    -0.898227  -2.094434  3.923953
H    -1.173504  -2.097046  1.391439
H    -2.346863  -0.744435  1.397164
O    2.058618  -0.501404  1.100836
H    2.893917  -0.589471  1.605708
Ca    0.084840  -0.543648  5.110272
