16
Energy: -32483.4137158 eV PBE+vdW (tier 2 basis)
N    -0.457792  0.141945  -0.081011
C    -0.077955  -0.002291  1.355261
C    1.181938  -0.862704  1.469489
O    1.890216  -0.941669  2.427414
H    -1.364291  0.616921  -0.134258
H    0.216859  0.755315  -0.545527
H    0.176281  0.962921  1.818594
C    -1.252598  -0.631456  2.176826
C    -1.665679  -1.830413  1.344836
O    -2.518543  -1.672088  0.408384
O    -0.865528  -2.831187  1.330188
H    -2.064661  0.097751  2.274532
H    -0.883072  -0.915261  3.167873
O    1.465268  -1.565887  0.277073
H    2.281483  -2.070447  0.473315
Ca    -0.722751  -2.280120  -0.806819
