16
Energy: -32483.621083 eV PBE+vdW (tier 2 basis)
N    0.033012  -1.083510  -0.039961
C    0.259671  -0.231677  1.152395
C    1.759203  -0.378615  1.485598
O    2.421022  -1.326788  1.062383
H    0.409073  -0.622691  -0.871701
H    -0.971667  -1.208192  -0.188832
H    0.039354  0.832078  0.958703
C    -0.649255  -0.706681  2.340556
C    -0.383801  -2.204291  2.430186
O    0.717980  -2.558605  2.969529
O    -1.020852  -2.985123  1.650535
H    -1.695269  -0.482736  2.100942
H    -0.366350  -0.189852  3.264583
O    2.348337  0.542437  2.228775
H    1.737441  1.260796  2.480481
Ca    1.112102  -3.270551  0.874829
