16
Energy: -32483.639361 eV PBE+vdW (tier 2 basis)
N    -0.018661  0.820495  0.312161
C    -0.287999  0.114232  1.555642
C    0.955226  -0.710465  1.926590
O    1.329488  -1.782808  1.405732
H    0.062015  0.196392  -0.489959
H    0.773114  1.458351  0.365442
H    -0.414183  0.861284  2.349366
C    -1.603875  -0.700135  1.466577
C    -1.368428  -1.977693  0.703563
O    -1.352445  -3.094317  1.329976
O    -0.942747  -1.921663  -0.510204
H    -2.327111  -0.058517  0.946277
H    -1.980348  -0.940204  2.466189
O    1.717264  -0.093011  2.818439
H    2.547267  -0.597706  2.949376
Ca    0.449303  -3.474122  0.162517
