16
Energy: -32483.9244347 eV PBE+vdW (tier 2 basis)
N    0.051188  1.160396  0.811528
C    0.315869  -0.105289  1.582849
C    1.529420  -0.728041  0.784410
O    2.049838  -1.806487  1.208883
H    -0.879699  1.191470  0.386257
H    0.854659  1.004565  0.041945
H    0.670198  0.157647  2.587103
C    -0.943381  -0.987806  1.698161
C    -0.499949  -2.338936  2.240529
O    0.074276  -2.375318  3.381220
O    -0.495336  -3.345793  1.460231
H    -1.415278  -1.136369  0.718154
H    -1.660284  -0.519125  2.385880
O    1.890966  -0.056192  -0.201708
H    0.199354  2.015457  1.353184
Ca    1.557160  -3.626180  2.270376
