16
Energy: -32482.9927671 eV PBE+vdW (tier 2 basis)
N    -0.398504  0.690747  0.498413
C    -0.094519  -0.104881  1.655228
C    1.412406  -0.022822  1.872818
O    2.252722  0.185164  1.053705
H    -1.397828  0.735086  0.311366
H    0.096780  0.389124  -0.339636
H    -0.586017  0.336685  2.534444
C    -0.568408  -1.620378  1.593792
C    -0.192024  -2.260832  2.891438
O    0.839369  -3.021873  2.970264
O    -0.738111  -1.819825  3.975959
H    -0.103498  -2.135540  0.746492
H    -1.657851  -1.597687  1.473385
O    1.829943  -0.201015  3.248200
H    2.780827  0.033732  3.190962
Ca    1.225713  -1.976684  4.833170
