29
Energy: -38243.9354945 eV PBE+vdW (tier 2 basis)
C    0.262608  1.763404  1.789917
C    -0.418342  0.453550  1.984202
O    0.199336  -0.545182  2.458361
H    1.112552  1.628230  1.106765
H    0.679878  2.092283  2.751691
H    -0.398174  2.542211  1.395798
N    -1.727717  0.337526  1.651018
C    -2.401446  -0.931255  1.886229
C    -2.162341  -1.928596  0.729455
O    -1.240048  -2.785347  0.879417
H    -2.217720  1.143974  1.272575
H    -1.817546  -1.337284  2.710095
C    -3.806886  -0.917196  2.489153
C    -4.116288  -2.300991  3.125851
C    -3.136540  -2.796482  4.174963
O    -1.911157  -2.975978  3.998259
O    -3.714370  -3.062496  5.323905
H    -4.599740  -0.692860  1.762234
H    -3.850938  -0.132583  3.257469
H    -4.138583  -3.078697  2.344056
H    -5.114043  -2.279087  3.576568
N    -2.900196  -1.851251  -0.366168
C    -2.744850  -2.699343  -1.552051
H    -3.624421  -1.137777  -0.402840
H    -2.461299  -2.081347  -2.412488
H    -3.694065  -3.202925  -1.768574
H    -1.967540  -3.441929  -1.359647
H    -3.069828  -3.423076  5.971187
Ca    -0.008298  -2.740495  2.710600
