29
Energy: -38243.0947354 eV PBE+vdW (tier 2 basis)
C    0.628439  0.840092  0.376647
C    0.057722  1.018347  1.740670
O    0.514797  1.944238  2.516415
H    1.702445  0.622162  0.461663
H    0.533190  1.778490  -0.186534
H    0.142718  0.033458  -0.181041
N    -0.910281  0.227403  2.156595
C    -1.556944  0.235591  3.464949
C    -2.231174  -1.169168  3.532572
O    -2.575982  -1.684715  2.471730
H    -1.305831  -0.516681  1.556659
H    -0.789240  0.360217  4.244182
C    -2.628818  1.358868  3.536065
C    -3.060413  1.773555  4.944002
C    -2.072943  2.625614  5.698657
O    -1.002692  3.036003  5.203142
O    -2.321815  2.986176  6.935884
H    -3.515036  1.019469  2.983119
H    -2.261526  2.242317  2.995584
H    -3.322446  0.901851  5.567732
H    -3.994373  2.359853  4.883167
N    -2.450313  -1.688076  4.756407
C    -3.100167  -2.990298  4.939619
H    -1.950328  -1.297636  5.547865
H    -3.566461  -3.021139  5.929016
H    -2.374969  -3.809615  4.851507
H    -3.866295  -3.114656  4.168993
H    -3.181891  2.657934  7.268423
Ca    0.723056  3.396981  3.960775
