29
Energy: -38242.6462817 eV PBE+vdW (tier 2 basis)
C    -0.254601  0.209950  0.040305
C    -0.247743  0.021330  1.519423
O    0.828902  0.220681  2.190895
H    0.489703  -0.459418  -0.413659
H    0.048906  1.238466  -0.198821
H    -1.231967  0.013313  -0.412317
N    -1.361812  -0.356165  2.138992
C    -1.495602  -0.593187  3.583990
C    -2.610283  -1.645777  3.910497
O    -3.351862  -1.435021  4.859557
H    -2.199464  -0.462781  1.567657
H    -0.543598  -1.038226  3.909877
C    -1.785165  0.709211  4.365087
C    -1.014351  0.827412  5.719692
C    0.427691  0.913116  5.394322
O    1.205609  -0.042761  5.286521
O    0.962922  2.096347  4.960307
H    -2.851050  0.717112  4.629643
H    -1.577750  1.582604  3.732219
H    -1.198711  -0.056758  6.341800
H    -1.363914  1.717213  6.261163
N    -2.659747  -2.733808  3.110229
C    -3.617282  -3.818951  3.340826
H    -1.917289  -2.897002  2.438580
H    -3.826854  -4.319373  2.390545
H    -4.541621  -3.394446  3.743282
H    -3.223244  -4.548889  4.060027
H    0.361617  2.862728  5.049720
Ca    2.425509  0.574608  3.493806
