29
Energy: -38243.1147562 eV PBE+vdW (tier 2 basis)
C    -0.558493  1.765308  -0.360340
C    -0.251072  1.744144  1.097733
O    0.731837  2.417831  1.559212
H    0.345112  1.533706  -0.938158
H    -0.859710  2.788027  -0.633609
H    -1.359742  1.073910  -0.639023
N    -1.029774  1.026647  1.909335
C    -1.026985  1.074745  3.382631
C    0.152567  0.250224  3.945445
O    1.322671  0.761409  3.919042
H    -1.837444  0.547299  1.490551
H    -0.807948  2.114940  3.676183
C    -2.414039  0.696294  3.928477
C    -3.537629  1.666916  3.530311
C    -4.017378  1.656304  2.089884
O    -4.541962  2.578509  1.528923
O    -3.808409  0.427249  1.478249
H    -2.346596  0.692183  5.025500
H    -2.691625  -0.322568  3.613753
H    -3.290052  2.706489  3.782690
H    -4.427780  1.421046  4.131318
N    -0.069958  -0.948924  4.441846
C    0.937630  -1.844506  5.014449
H    -1.031668  -1.283559  4.434062
H    1.868442  -1.294741  5.167709
H    1.111680  -2.689480  4.336247
H    0.570474  -2.225955  5.973648
H    -4.294753  0.454306  0.628110
Ca    2.337163  2.345821  2.914593
