29
Energy: -38242.7155048 eV PBE+vdW (tier 2 basis)
C    1.097292  -0.112805  1.059534
C    0.394899  -0.251390  2.379418
O    0.963971  -0.404796  3.453355
H    1.827747  -0.924556  0.958894
H    1.666258  0.826858  1.062835
H    0.422253  -0.117735  0.196451
N    -1.002095  -0.207985  2.346500
C    -1.704603  -0.191154  3.615416
C    -2.793927  -1.256841  3.607165
O    -4.039431  -0.947941  3.730909
H    -1.483336  0.026548  1.483818
H    -0.909528  -0.527811  4.315144
C    -2.125371  1.234796  4.048054
C    -1.982473  1.565081  5.543126
C    -3.110638  1.192557  6.463643
O    -4.266530  0.936915  6.064218
O    -2.923839  1.170719  7.761828
H    -3.126007  1.500087  3.675033
H    -1.439254  1.909722  3.522263
H    -1.887048  2.661336  5.654761
H    -1.037930  1.160244  5.940685
N    -2.471001  -2.530074  3.458160
C    -1.141944  -3.133096  3.319544
H    -3.264557  -3.166883  3.389615
H    -1.182234  -4.140819  3.744364
H    -0.385120  -2.550107  3.853124
H    -0.864348  -3.200391  2.259948
H    -2.007620  1.395734  8.022047
Ca    -5.611080  0.020037  4.685533
