29
Energy: -38242.8779319 eV PBE+vdW (tier 2 basis)
C    -0.710061  -0.323133  0.005512
C    -0.413825  -0.254387  1.467961
O    0.782306  -0.367716  1.871531
H    -0.151540  0.471468  -0.508580
H    -1.773485  -0.228955  -0.236280
H    -0.333316  -1.278316  -0.385986
N    -1.449711  -0.075473  2.307089
C    -1.536416  0.020051  3.788095
C    -0.707798  1.192937  4.342661
O    0.564053  1.190043  4.275845
H    -2.352061  -0.011219  1.843197
H    -2.591406  0.261965  3.954865
C    -1.299227  -1.310397  4.557276
C    0.151964  -1.778071  4.638916
C    0.563631  -3.080671  5.326988
O    1.741656  -3.360800  5.380134
O    -0.459203  -3.789982  5.805494
H    -1.919111  -2.079333  4.076469
H    -1.704339  -1.181910  5.571374
H    0.735386  -1.029875  5.205503
H    0.545322  -1.912685  3.616989
N    -1.329175  2.201064  4.934200
C    -2.769352  2.421086  5.129662
H    -0.702253  2.916850  5.304690
H    -2.892935  3.384390  5.631905
H    -3.207581  1.645432  5.769324
H    -3.297168  2.469856  4.169808
H    -0.114508  -4.606649  6.226215
Ca    2.139263  -0.050388  3.479581
