29
Energy: -38243.0364741 eV PBE+vdW (tier 2 basis)
C    -0.519722  -1.164332  0.561459
C    -1.029761  -0.699665  1.893341
O    -1.210799  -1.429762  2.858169
H    -0.246351  -0.348198  -0.117101
H    -1.300898  -1.770771  0.081637
H    0.341920  -1.824017  0.715331
N    -1.346730  0.672019  1.991662
C    -1.718489  1.167789  3.296438
C    -3.119357  1.762623  3.359285
O    -3.584089  2.110991  4.506633
H    -0.903917  1.303099  1.328039
H    -1.813912  0.225530  3.879872
C    -0.641120  2.066423  3.956668
C    0.359051  1.270563  4.802220
C    -0.207105  0.740928  6.094371
O    -1.306691  1.119108  6.556211
O    0.457648  -0.132957  6.806144
H    -1.102463  2.853635  4.568278
H    -0.088458  2.599045  3.171470
H    1.220920  1.904094  5.077137
H    0.781437  0.426243  4.233680
N    -3.830460  1.840981  2.259135
C    -5.210131  2.306322  2.137176
H    -3.363460  1.473303  1.427228
H    -5.267774  3.056091  1.340015
H    -5.531022  2.751489  3.081463
H    -5.864698  1.463531  1.881960
H    1.303749  -0.402475  6.394399
Ca    -3.305317  1.889955  6.572701
