29
Energy: -38242.9629301 eV PBE+vdW (tier 2 basis)
C    -0.249986  1.462420  0.468832
C    -1.038002  0.231509  0.772795
O    -1.419004  -0.523880  -0.173850
H    0.661143  1.179208  -0.076066
H    0.025838  2.040226  1.356638
H    -0.838050  2.098946  -0.207256
N    -1.321880  -0.035437  2.056018
C    -2.111741  -1.126633  2.685012
C    -1.520085  -2.522820  2.415392
O    -1.580891  -3.054484  1.261312
H    -0.965716  0.649189  2.718254
H    -1.979804  -0.931792  3.757346
C    -3.641764  -1.049612  2.466062
C    -4.235295  -1.399345  1.100436
C    -5.755982  -1.176425  1.063569
O    -6.391600  -0.694408  1.962632
O    -6.236631  -1.597693  -0.127616
H    -3.955991  -0.030437  2.730750
H    -4.106461  -1.698141  3.223038
H    -4.099086  -2.472306  0.862192
H    -3.826973  -0.757110  0.300410
N    -0.990309  -3.161337  3.445078
C    -0.428072  -4.513072  3.416269
H    -0.970770  -2.679981  4.341536
H    0.649022  -4.467416  3.619384
H    -0.600378  -4.956789  2.433835
H    -0.912649  -5.120983  4.189156
H    -7.203956  -1.441329  -0.145050
Ca    -2.118276  -2.443416  -0.716430
