29
Energy: -38243.0392084 eV PBE+vdW (tier 2 basis)
C    0.295752  -0.115871  0.100750
C    -0.349056  0.664108  1.196004
O    -0.397313  1.936917  1.138027
H    0.327265  -1.193105  0.293280
H    1.314697  0.255182  -0.069661
H    -0.266686  0.063754  -0.827664
N    -0.885923  0.005406  2.228811
C    -1.736168  0.564288  3.300806
C    -0.859002  1.283101  4.351026
O    -0.337622  2.409653  4.031335
H    -0.801051  -1.009402  2.215328
H    -2.349417  1.358972  2.845107
C    -2.656025  -0.554931  3.808093
C    -3.728132  -0.114177  4.833220
C    -3.771835  -0.952048  6.100535
O    -4.757251  -1.347638  6.652155
O    -2.490838  -1.191407  6.583293
H    -2.042890  -1.371001  4.219319
H    -3.160768  -0.974273  2.927602
H    -4.730899  -0.151820  4.396826
H    -3.576296  0.928259  5.158738
N    -0.660747  0.753589  5.534894
C    0.149306  1.377394  6.584988
H    -1.165722  -0.105761  5.799423
H    -0.062094  0.865333  7.527137
H    -0.101951  2.439376  6.680110
H    1.217119  1.278214  6.352873
H    -2.585574  -1.727043  7.397402
Ca    -0.040299  3.641188  2.332069
