29
Energy: -38243.3502712 eV PBE+vdW (tier 2 basis)
C    0.134580  -0.805268  -0.326140
C    0.069327  -0.376121  1.102942
O    1.146495  -0.158775  1.749995
H    0.651063  -1.775642  -0.370648
H    0.744946  -0.096789  -0.900861
H    -0.847362  -0.904784  -0.799853
N    -1.133979  -0.239272  1.670384
C    -1.511457  -0.037359  3.082119
C    -1.122919  1.319402  3.692993
O    0.006740  1.880338  3.472010
H    -1.919162  -0.409703  1.047439
H    -2.605900  -0.031850  3.053481
C    -1.077570  -1.206422  4.022250
C    -2.193814  -2.224429  4.272107
C    -3.404926  -1.640164  4.979486
O    -3.627842  -0.440348  5.112747
O    -4.216662  -2.593218  5.427242
H    -0.752934  -0.790425  4.986177
H    -0.207053  -1.718859  3.593481
H    -1.815721  -3.062653  4.873421
H    -2.545596  -2.684508  3.334103
N    -2.010292  1.821703  4.522075
C    -1.855181  3.044280  5.305391
H    -2.818691  1.209791  4.726965
H    -2.787492  3.617036  5.251073
H    -1.033973  3.642881  4.905140
H    -1.657226  2.794225  6.356014
H    -4.997301  -2.181256  5.853282
Ca    1.965186  1.444153  2.849838
