29
Energy: -38243.1923407 eV PBE+vdW (tier 2 basis)
C    0.608037  0.978462  0.379959
C    0.407124  0.459581  1.765635
O    1.413999  0.089870  2.453643
H    1.073149  0.185644  -0.223895
H    1.317228  1.816490  0.400287
H    -0.318129  1.300352  -0.106896
N    -0.840405  0.395313  2.245498
C    -1.364836  -0.222351  3.482956
C    -0.948624  0.503267  4.763013
O    0.288077  0.627913  5.078075
H    -1.558761  0.736171  1.611822
H    -2.452235  -0.135353  3.389696
C    -1.072113  -1.737838  3.608358
C    -1.821925  -2.598558  2.587627
C    -3.333130  -2.549897  2.756839
O    -3.921886  -1.734643  3.449735
O    -3.931644  -3.503580  2.039360
H    -1.367243  -2.042594  4.623033
H    0.006233  -1.931181  3.517898
H    -1.498548  -3.644835  2.674047
H    -1.585734  -2.311607  1.550636
N    -1.872854  0.945704  5.593292
C    -3.338891  0.908586  5.476494
H    -1.498748  1.377535  6.440123
H    -3.751707  0.916535  6.489788
H    -3.674146  -0.002313  4.970167
H    -3.700570  1.798021  4.944802
H    -4.900975  -3.433654  2.163835
Ca    2.239405  0.241650  4.385586
