29
Energy: -38242.90211 eV PBE+vdW (tier 2 basis)
C    0.215786  -0.385104  0.295517
C    0.178369  0.027532  1.731183
O    1.280602  0.254874  2.360432
H    0.727282  -1.356506  0.227356
H    0.804834  0.329555  -0.294617
H    -0.781282  -0.483815  -0.144778
N    -0.991636  0.150773  2.325094
C    -1.325229  0.341328  3.737028
C    -2.873215  0.123767  3.733807
O    -3.459450  0.261002  2.651284
H    -1.879814  0.038535  1.792813
H    -0.812998  -0.428054  4.331268
C    -0.980211  1.729810  4.332457
C    -1.387827  2.941707  3.484213
C    -0.348970  3.429046  2.509609
O    0.866446  3.160982  2.614368
O    -0.694090  4.213701  1.515422
H    0.092480  1.779174  4.564914
H    -1.483336  1.800846  5.304598
H    -1.580583  3.804197  4.147363
H    -2.336040  2.765645  2.951558
N    -3.499952  -0.160035  4.883963
C    -2.948099  -0.413636  6.211593
H    -4.510870  -0.240055  4.780647
H    -3.513369  -1.226025  6.681057
H    -3.019644  0.473309  6.856567
H    -1.902898  -0.734304  6.151501
H    -1.654178  4.402592  1.493713
Ca    2.560848  1.841313  2.747647
