29
Energy: -38242.6566979 eV PBE+vdW (tier 2 basis)
C    -1.022906  0.257516  -0.375931
C    -0.975309  -0.169233  1.059671
O    -0.159895  -0.990215  1.495869
H    -0.110878  0.831487  -0.593393
H    -1.893259  0.874484  -0.626036
H    -1.001004  -0.630325  -1.018425
N    -1.892186  0.406357  1.919657
C    -1.749273  0.234566  3.359494
C    -2.321498  -1.134123  3.818508
O    -3.388845  -1.260333  4.531528
H    -2.585413  1.042986  1.543386
H    -0.664161  0.121697  3.527467
C    -2.134544  1.485496  4.168249
C    -3.510866  2.190694  3.945121
C    -4.643359  1.361085  4.427630
O    -5.395157  0.678564  3.729998
O    -4.825694  1.188307  5.773428
H    -1.382260  2.248286  3.926921
H    -1.994396  1.261635  5.235703
H    -3.691426  2.426486  2.889771
H    -3.486920  3.147549  4.488308
N    -1.619932  -2.168633  3.425314
C    -1.928412  -3.567676  3.696061
H    -0.835400  -1.920563  2.768629
H    -1.006789  -4.148450  3.596953
H    -2.660623  -3.952110  2.972258
H    -2.316794  -3.684055  4.713365
H    -4.229931  1.725506  6.332952
Ca    -5.397644  -1.169703  5.052788
