29
Energy: -38242.80357 eV PBE+vdW (tier 2 basis)
C    0.265129  0.208255  0.688931
C    -0.121964  0.210606  2.127123
O    0.797454  0.157998  3.031900
H    0.844184  -0.695240  0.454244
H    0.938056  1.060758  0.516219
H    -0.586000  0.286848  0.007012
N    -1.377806  0.264587  2.531995
C    -2.643762  0.017390  1.850677
C    -3.687103  0.511072  2.897374
O    -3.333868  0.517581  4.087332
H    -1.595518  0.380676  3.543644
H    -2.713600  0.578401  0.910340
C    -2.843794  -1.496205  1.567699
C    -2.708254  -2.428800  2.814558
C    -1.293799  -2.848370  3.109046
O    -0.573401  -2.309980  3.974501
O    -0.737083  -3.820975  2.410734
H    -2.151661  -1.808017  0.771618
H    -3.853375  -1.638041  1.161712
H    -3.301342  -3.336053  2.628351
H    -3.118095  -1.943432  3.709492
N    -4.913499  0.842580  2.477317
C    -5.390234  0.988219  1.100580
H    -5.542841  1.125443  3.226461
H    -4.839126  1.769212  0.560213
H    -6.441617  1.286151  1.137930
H    -5.336699  0.044218  0.543385
H    -1.362622  -4.250019  1.793503
Ca    1.118205  -1.126589  4.651415
