29
Energy: -38242.8688089 eV PBE+vdW (tier 2 basis)
C    0.932062  -0.119159  0.188880
C    0.280719  -0.102809  1.528609
O    0.962564  0.185413  2.576923
H    1.757622  -0.844868  0.199360
H    1.373730  0.865826  -0.015510
H    0.240614  -0.375272  -0.620426
N    -1.010586  -0.393646  1.640615
C    -1.754264  -0.429164  2.907579
C    -2.998912  -1.365975  2.788460
O    -4.112159  -0.896919  2.996809
H    -1.524312  -0.589155  0.782919
H    -1.070411  -0.857913  3.657582
C    -2.203224  0.988128  3.316271
C    -2.663035  1.113368  4.770337
C    -1.577819  1.060875  5.803776
O    -0.356730  1.055157  5.516420
O    -1.872538  1.032700  7.080039
H    -3.049913  1.269910  2.678513
H    -1.394755  1.704823  3.112282
H    -3.428570  0.352674  4.999761
H    -3.181280  2.078840  4.910467
N    -2.783254  -2.665732  2.473089
C    -1.528661  -3.385313  2.287604
H    -3.645129  -3.202774  2.392765
H    -1.685393  -4.435426  2.554856
H    -0.744187  -2.996231  2.948942
H    -1.173299  -3.350615  1.247578
H    -2.837087  1.040893  7.248980
Ca    1.491262  0.919350  4.459150
