29
Energy: -38243.9300515 eV PBE+vdW (tier 2 basis)
C    0.559840  0.158945  -0.129845
C    0.062265  -0.119986  1.245554
O    0.813587  0.011795  2.256688
H    0.941187  1.188742  -0.167023
H    -0.203924  0.026814  -0.902971
H    1.411724  -0.501107  -0.344312
N    -1.223965  -0.515672  1.411482
C    -1.719168  -0.742346  2.761480
C    -1.361258  -2.156091  3.270465
O    -0.330614  -2.277156  3.998446
H    -1.821503  -0.620319  0.595569
H    -1.076845  -0.082281  3.341600
C    -3.107326  -0.219725  3.133704
C    -3.221645  -0.093922  4.678711
C    -2.170659  0.758796  5.367548
O    -0.934746  0.571306  5.317066
O    -2.692397  1.732690  6.077447
H    -3.930221  -0.857727  2.782898
H    -3.248369  0.764735  2.665953
H    -3.151535  -1.091500  5.144009
H    -4.207287  0.305931  4.939064
N    -2.104993  -3.195455  2.930967
C    -1.806965  -4.578062  3.327866
H    -2.928822  -3.036243  2.357771
H    -1.924613  -4.697073  4.411657
H    -0.778981  -4.834830  3.049348
H    -2.503280  -5.243425  2.811651
H    -1.997007  2.241513  6.548593
Ca    0.905520  -0.494349  4.415613
