29
Energy: -38243.998806 eV PBE+vdW (tier 2 basis)
C    0.864882  1.198870  -0.928419
C    0.036572  0.760815  0.239123
O    0.210223  -0.380906  0.744297
H    1.924920  1.183407  -0.640647
H    0.612072  2.194902  -1.305853
H    0.746341  0.465652  -1.737895
N    -0.882827  1.633860  0.699801
C    -1.901059  1.543453  1.765760
C    -1.328307  1.303393  3.174990
O    -0.444545  0.436422  3.420349
H    -0.903447  2.515088  0.194357
H    -2.300688  2.564916  1.798417
C    -3.158465  0.694579  1.406541
C    -3.051856  -0.795025  0.991437
C    -2.882254  -1.773084  2.130853
O    -1.772822  -2.116777  2.561347
O    -3.942535  -2.286337  2.724550
H    -3.617920  1.209547  0.552168
H    -3.874485  0.804231  2.234999
H    -2.224602  -0.949014  0.289455
H    -3.975941  -1.039370  0.447922
N    -1.813188  2.045213  4.167703
C    -2.788270  3.141628  4.127868
H    -1.413490  1.821158  5.079117
H    -2.905899  3.520011  5.147013
H    -3.770605  2.800180  3.780059
H    -2.432528  3.969831  3.501738
H    -4.781739  -2.027068  2.297479
Ca    0.317462  -1.438574  2.627472
