29
Energy: -38243.0586869 eV PBE+vdW (tier 2 basis)
C    -1.602364  -1.879653  0.460714
C    -0.945262  -0.725314  1.156431
O    0.280112  -0.540663  1.136167
H    -1.231767  -2.811067  0.910801
H    -1.284798  -1.889568  -0.589292
H    -2.696395  -1.870270  0.512858
N    -1.768886  0.144702  1.833268
C    -1.329596  1.208682  2.732156
C    -0.498104  2.354262  2.131675
O    -0.686062  3.528371  2.644107
H    -2.769823  0.014211  1.735849
H    -2.258873  1.705829  3.041167
C    -0.592183  0.678895  4.004639
C    -1.508341  0.391613  5.195759
C    -2.051101  1.614919  5.892482
O    -1.800174  2.781586  5.522108
O    -2.826056  1.487658  6.943079
H    0.187793  1.389219  4.313294
H    -0.056587  -0.237473  3.729834
H    -0.965544  -0.197489  5.955016
H    -2.365010  -0.242255  4.906546
N    0.391183  2.108631  1.210727
C    1.261906  3.088133  0.569735
H    0.514068  1.076954  1.013282
H    2.294568  2.944928  0.913562
H    0.930064  4.103136  0.800954
H    1.232946  2.928573  -0.514047
H    -2.977737  0.555683  7.201200
Ca    -1.230588  4.524145  4.380403
