29
Energy: -38242.8660607 eV PBE+vdW (tier 2 basis)
C    -1.103724  -0.826329  -0.154388
C    -0.803565  -0.567226  1.284212
O    0.405492  -0.455818  1.668677
H    -0.624639  -0.055933  -0.773072
H    -2.174245  -0.859547  -0.380550
H    -0.649060  -1.787397  -0.436258
N    -1.827849  -0.460641  2.139706
C    -1.828913  -0.379498  3.619377
C    -1.227535  0.939057  4.129038
O    0.032495  1.148863  4.057306
H    -2.749162  -0.569714  1.722998
H    -2.890152  -0.393562  3.887039
C    -1.182619  -1.607475  4.293768
C    -1.395263  -1.692849  5.816324
C    -2.766534  -2.168069  6.278184
O    -2.952387  -2.982332  7.139458
O    -3.789230  -1.537780  5.602011
H    -0.101336  -1.630323  4.091113
H    -1.594566  -2.501962  3.806261
H    -1.194669  -0.725445  6.306773
H    -0.679012  -2.403857  6.242631
N    -2.003571  1.851515  4.683709
C    -3.460951  1.845776  4.881493
H    -1.505953  2.683583  5.005529
H    -3.698317  2.621136  5.615261
H    -3.798929  0.881100  5.273788
H    -3.980296  2.083414  3.944616
H    -4.623142  -1.905843  5.961554
Ca    1.739281  0.500542  2.982480
