29
Energy: -38243.4257661 eV PBE+vdW (tier 2 basis)
C    -1.527652  -0.470619  0.013665
C    -1.119566  -0.313580  1.441583
O    0.089823  -0.461935  1.782133
H    -1.212621  -1.461399  -0.341279
H    -0.985700  0.268684  -0.592893
H    -2.602831  -0.351499  -0.153882
N    -2.075174  -0.024264  2.343920
C    -1.958130  0.220128  3.797594
C    -0.965548  1.362136  4.111114
O    0.281627  1.144940  4.167580
H    -3.016406  0.058021  1.968759
H    -2.955478  0.585807  4.069529
C    -1.678907  -1.024484  4.709697
C    -1.257287  -2.363662  4.045067
C    -0.066880  -2.992918  4.712576
O    -0.003120  -3.972869  5.377984
O    1.165378  -2.237362  4.475938
H    -2.594786  -1.215476  5.278607
H    -0.935055  -0.722396  5.457753
H    -1.025653  -2.249251  2.979718
H    -2.065497  -3.098572  4.114931
N    -1.479842  2.555926  4.360325
C    -0.712194  3.753296  4.709183
H    -2.490908  2.657842  4.312607
H    -1.203840  4.258441  5.547557
H    -0.671926  4.437404  3.851960
H    0.300293  3.461897  4.997332
H    1.832634  -2.754094  4.977426
Ca    1.631249  -0.283142  3.265515
