29
Energy: -38242.9192387 eV PBE+vdW (tier 2 basis)
C    0.729603  2.190628  1.776775
C    0.192087  0.850777  2.152593
O    0.910416  0.050985  2.865101
H    1.646439  2.054390  1.185719
H    0.016662  2.783804  1.195954
H    1.008502  2.745704  2.682513
N    -1.013005  0.505009  1.745746
C    -1.687074  -0.788657  1.835354
C    -2.467778  -0.852255  0.475672
O    -2.734696  0.221426  -0.064705
H    -1.530137  1.101656  1.069516
H    -0.942127  -1.591068  1.923140
C    -2.734388  -0.833834  2.971983
C    -2.210819  -0.713368  4.428072
C    -1.457934  -1.928510  4.893434
O    -0.210863  -2.003752  4.869283
O    -2.098547  -2.994838  5.314727
H    -3.328316  -1.752138  2.861221
H    -3.435249  -0.001933  2.815794
H    -3.076353  -0.550778  5.087597
H    -1.558886  0.162510  4.531180
N    -2.845842  -2.052749  0.004201
C    -2.474643  -3.375787  0.494799
H    -3.377413  -2.001037  -0.862894
H    -2.975273  -4.122356  -0.128212
H    -1.392602  -3.554058  0.420159
H    -2.806113  -3.544038  1.528873
H    -3.066685  -2.864770  5.363009
Ca    1.707711  -1.250845  4.246146
