29
Energy: -38243.4988358 eV PBE+vdW (tier 2 basis)
C    -0.614775  1.276072  -0.633575
C    -0.240315  0.229644  0.354712
O    0.900281  0.203881  0.896291
H    -1.634150  1.177614  -1.017187
H    0.083760  1.185460  -1.480529
H    -0.456253  2.277368  -0.212875
N    -1.125841  -0.758526  0.692838
C    -2.505421  -0.511712  1.096088
C    -2.543626  0.663409  2.122144
O    -1.503754  0.993865  2.761361
H    -0.669874  -1.497894  1.226337
H    -3.098716  -0.201920  0.222591
C    -3.162595  -1.814041  1.642222
C    -2.299037  -2.837296  2.435604
C    -1.571651  -2.319246  3.657284
O    -0.536954  -1.638087  3.562497
O    -2.019951  -2.573450  4.868471
H    -3.554093  -2.373233  0.782757
H    -4.035535  -1.529225  2.244322
H    -1.537767  -3.286296  1.779528
H    -2.968256  -3.663793  2.711436
N    -3.701257  1.289898  2.267985
C    -3.961891  2.403486  3.184079
H    -4.476746  0.993397  1.678570
H    -3.050705  2.631017  3.740778
H    -4.762907  2.128721  3.880535
H    -4.273244  3.284483  2.610308
H    -2.800908  -3.161197  4.873046
Ca    0.556181  0.246601  3.100381
