29
Energy: -38244.0024529 eV PBE+vdW (tier 2 basis)
C    -0.179206  -1.158047  0.081821
C    -0.162329  -0.763455  1.526315
O    0.919546  -0.426153  2.073230
H    0.520505  -1.991040  -0.067781
H    0.197637  -0.315269  -0.514141
H    -1.167539  -1.444909  -0.291797
N    -1.341742  -0.789049  2.180541
C    -1.781793  -0.394147  3.542077
C    -0.940471  0.696602  4.233838
O    0.220421  0.482132  4.683217
H    -2.123863  -1.073632  1.595478
H    -2.763929  0.062745  3.352860
C    -2.119164  -1.602516  4.463433
C    -1.027163  -2.333403  5.282338
C    0.044560  -3.027832  4.479378
O    1.137933  -2.498057  4.234046
O    -0.160254  -4.239305  3.996614
H    -2.669839  -2.325489  3.843276
H    -2.847956  -1.234997  5.199937
H    -1.546321  -3.074469  5.908530
H    -0.529625  -1.635323  5.964677
N    -1.544930  1.864976  4.413692
C    -0.955342  3.001758  5.123796
H    -2.474335  1.994093  4.023058
H    -0.292944  2.636218  5.913442
H    -1.761756  3.594063  5.566145
H    -0.385767  3.634061  4.430149
H    -1.006672  -4.627412  4.291519
Ca    2.019402  -0.502063  3.917207
