29
Energy: -38243.6657853 eV PBE+vdW (tier 2 basis)
C    -3.709882  -0.690181  -0.059322
C    -2.767344  -0.501852  1.078869
O    -1.524881  -0.693202  0.941402
H    -3.381278  -0.065249  -0.900849
H    -4.747696  -0.446982  0.190569
H    -3.654625  -1.733279  -0.400914
N    -3.263046  -0.112508  2.281333
C    -2.344124  0.090507  3.392122
C    -1.970613  -1.228767  4.099691
O    -0.844221  -1.727329  3.786914
H    -4.266972  0.010695  2.383523
H    -1.423893  0.312084  2.862713
C    -2.511376  1.352798  4.263543
C    -1.534333  2.475414  3.808212
C    -0.060100  2.088673  3.779395
O    0.386438  1.142951  3.103190
O    0.813273  2.783208  4.475736
H    -2.320308  1.106429  5.316439
H    -3.532353  1.754552  4.219959
H    -1.681951  3.355760  4.446604
H    -1.786842  2.789663  2.782412
N    -2.765778  -1.831775  4.968143
C    -4.092223  -1.430418  5.430856
H    -2.395061  -2.706023  5.345527
H    -4.083206  -1.298834  6.519676
H    -4.824196  -2.206100  5.174651
H    -4.397839  -0.488592  4.968038
H    0.408469  3.522227  4.970768
Ca    0.357958  -0.903870  2.111799
