29
Energy: -38244.1111782 eV PBE+vdW (tier 2 basis)
C    -1.296804  0.033614  0.087914
C    -0.981213  -0.025196  1.549467
O    0.211625  -0.085906  1.943480
H    -0.875365  0.961062  -0.325304
H    -2.367922  0.000687  -0.136411
H    -0.791272  -0.796566  -0.422329
N    -2.019837  -0.009808  2.412355
C    -2.033191  -0.007645  3.889836
C    -1.201498  1.158209  4.475463
O    0.054269  1.076277  4.589391
H    -2.937003  0.052203  1.979804
H    -3.083193  0.209068  4.119181
C    -1.692641  -1.353362  4.626643
C    -1.358898  -2.612438  3.810099
C    0.114734  -2.946389  3.722722
O    1.012791  -2.128497  3.967075
O    0.482298  -4.156407  3.355895
H    -2.567194  -1.586484  5.243913
H    -0.876194  -1.166080  5.334059
H    -1.732966  -2.553246  2.774052
H    -1.878798  -3.477809  4.247225
N    -1.873694  2.225482  4.883526
C    -1.272734  3.416865  5.486302
H    -2.884282  2.225455  4.772106
H    -1.195991  4.220848  4.743030
H    -0.277412  3.167811  5.862015
H    -1.905875  3.753050  6.313926
H    -0.271251  -4.764525  3.222350
Ca    1.631515  -0.054274  3.585214
