29
Energy: -38243.7745768 eV PBE+vdW (tier 2 basis)
C    -3.829837  -0.501835  -0.100205
C    -2.896963  -0.381659  1.054599
O    -1.655775  -0.589752  0.920619
H    -3.482665  0.156524  -0.908210
H    -4.866356  -0.254217  0.150562
H    -3.786660  -1.528570  -0.489749
N    -3.395878  -0.037009  2.267771
C    -2.486621  0.106999  3.396149
C    -2.148130  -1.243197  4.060441
O    -1.026747  -1.752429  3.742821
H    -4.396741  0.113028  2.364642
H    -1.555347  0.333765  2.887025
C    -2.646254  1.340806  4.307940
C    -1.657577  2.460083  3.887317
C    -0.189321  2.074526  3.883088
O    0.313254  1.137733  3.223135
O    0.545263  2.856526  4.640190
H    -2.461516  1.060342  5.353444
H    -3.663431  1.752900  4.273481
H    -1.777580  3.329968  4.541905
H    -1.891549  2.794429  2.862917
N    -2.963560  -1.858801  4.899554
C    -4.285291  -1.445145  5.365882
H    -2.613594  -2.751861  5.252005
H    -5.028648  -2.201878  5.087073
H    -4.572027  -0.487184  4.924920
H    -4.279172  -1.340387  6.457647
H    1.495868  2.616896  4.583350
Ca    0.191855  -0.877602  2.113685
