29
Energy: -38243.4252887 eV PBE+vdW (tier 2 basis)
C    0.634076  0.495083  0.489758
C    -0.598992  1.055271  1.110844
O    -1.058492  2.178301  0.747989
H    1.024812  -0.386777  1.006119
H    1.401156  1.282141  0.511898
H    0.455560  0.261302  -0.569040
N    -1.263326  0.400498  2.089252
C    -1.448567  -1.033732  2.354282
C    -1.257809  -1.910527  1.117285
O    -1.799356  -1.644249  -0.024478
H    -1.962966  0.983035  2.549426
H    -0.738010  -1.371215  3.124918
C    -2.887093  -1.199547  2.931918
C    -4.080991  -0.891471  1.983870
C    -3.920412  0.383453  1.184023
O    -4.229875  1.515580  1.650915
O    -3.367107  0.319867  0.001806
H    -2.937048  -0.552539  3.820377
H    -3.001166  -2.226729  3.300915
H    -4.978785  -0.794723  2.607015
H    -4.246445  -1.723279  1.287195
N    -0.555300  -3.013261  1.241923
C    -0.366353  -4.033778  0.203715
H    -0.101056  -3.177597  2.138659
H    -0.518416  -5.021335  0.652718
H    0.655970  -3.971663  -0.190220
H    -1.083860  -3.873568  -0.603761
H    -2.471456  -0.821767  -0.043781
Ca    -3.103734  2.632617  0.053452
