29
Energy: -38243.4114289 eV PBE+vdW (tier 2 basis)
C    0.902449  -0.150529  0.345227
C    0.561953  -0.068407  1.795194
O    1.286412  0.615850  2.588441
H    1.933538  -0.508755  0.227392
H    0.868313  0.863983  -0.077967
H    0.226793  -0.796652  -0.224545
N    -0.522043  -0.713919  2.242535
C    -1.088072  -0.622475  3.597042
C    -0.251782  -1.458395  4.599285
O    0.812970  -0.905144  5.067740
H    -1.043800  -1.258044  1.560119
H    -0.904465  0.409937  3.930255
C    -2.635710  -0.795517  3.598566
C    -3.349117  -1.654797  2.545240
C    -3.263308  -3.159597  2.681471
O    -2.600880  -3.760894  3.521329
O    -4.015911  -3.772506  1.773623
H    -3.045269  0.215978  3.481742
H    -2.937922  -1.116949  4.604264
H    -3.090720  -1.383568  1.508070
H    -4.420967  -1.406407  2.594510
N    -0.635102  -2.654685  4.949695
C    0.063173  -3.513830  5.903364
H    -1.477683  -3.057968  4.461387
H    -0.683749  -4.059399  6.489302
H    0.690625  -2.913260  6.566772
H    0.685812  -4.242285  5.366730
H    -3.965427  -4.742184  1.907519
Ca    2.180196  0.592558  4.514500
