29
Energy: -38243.448117 eV PBE+vdW (tier 2 basis)
C    0.421271  1.784035  1.581526
C    0.072086  0.361523  1.865752
O    0.978136  -0.534976  1.862964
H    -0.447130  2.450312  1.560365
H    0.955896  1.851047  0.625153
H    1.117686  2.130412  2.359399
N    -1.201136  0.053601  2.134147
C    -1.734828  -1.237373  2.621321
C    -1.854207  -2.226075  1.440088
O    -0.763102  -2.707591  0.957235
H    -1.870002  0.820654  2.098291
H    -0.970154  -1.670071  3.286835
C    -2.995080  -0.917532  3.445031
C    -3.674827  -2.090275  4.180535
C    -5.010910  -2.472703  3.571784
O    -5.281348  -2.337126  2.380923
O    -5.850176  -2.977490  4.465822
H    -3.732225  -0.412912  2.801153
H    -2.682212  -0.177308  4.193365
H    -3.830772  -1.847241  5.237613
H    -3.053982  -3.001467  4.181693
N    -3.022137  -2.546508  0.950571
C    -3.206772  -3.468038  -0.172535
H    -3.900205  -2.249246  1.452287
H    -4.275688  -3.677045  -0.263859
H    -2.661652  -4.403535  0.000014
H    -2.847996  -3.011190  -1.103222
H    -6.686577  -3.231854  4.021708
Ca    1.325045  -2.455029  1.046040
