29
Energy: -38243.0272688 eV PBE+vdW (tier 2 basis)
C    0.361658  0.567327  -0.305559
C    -0.114180  -0.415922  0.695262
O    0.304422  -1.634284  0.533670
H    -0.064112  1.564486  -0.158528
H    0.111502  0.203296  -1.312277
H    1.459115  0.624915  -0.258093
N    -0.921510  -0.039886  1.686444
C    -1.377064  -0.977147  2.710259
C    -2.876049  -1.166287  2.972763
O    -3.243428  -2.381465  3.045272
H    -1.121099  0.955990  1.750802
H    -1.199242  -1.937666  2.232437
C    -0.530642  -0.978989  4.016537
C    0.557566  -2.097946  3.999040
C    -0.155935  -3.369329  3.619323
O    -0.774307  -4.046707  4.493193
O    -0.352231  -3.627281  2.354705
H    -1.188224  -1.145267  4.879964
H    -0.052835  -0.001765  4.161940
H    0.996048  -2.188386  4.998905
H    1.358051  -1.870283  3.283620
N    -3.728786  -0.174400  3.164919
C    -3.444971  1.260542  3.227486
H    -4.695931  -0.463059  3.319283
H    -3.567131  1.734519  2.244372
H    -2.440274  1.439854  3.627398
H    -4.154528  1.724151  3.920366
H    0.078052  -2.345144  1.222763
Ca    -2.401169  -4.476532  3.086589
