29
Energy: -38243.2789222 eV PBE+vdW (tier 2 basis)
C    0.628651  0.344524  -0.215087
C    0.097449  1.071870  0.974644
O    0.554582  2.235102  1.257179
H    0.203659  -0.657221  -0.329354
H    1.721636  0.272377  -0.130824
H    0.416851  0.930560  -1.120539
N    -0.846675  0.479694  1.699492
C    -1.407392  0.832914  3.020099
C    -2.007252  2.241762  3.111379
O    -1.284615  3.289352  3.180753
H    -0.952069  -0.538269  1.556961
H    -2.250083  0.135957  3.125052
C    -0.412637  0.541775  4.178988
C    -0.479580  -0.885779  4.745827
C    -0.327862  -2.043750  3.772695
O    -0.640732  -2.030583  2.586822
O    0.146124  -3.124465  4.390040
H    -0.625170  1.226021  5.012535
H    0.607419  0.770547  3.837518
H    -1.450469  -1.044815  5.245772
H    0.270164  -0.997612  5.539329
N    -3.324936  2.319404  3.192774
C    -4.095350  3.551965  3.366577
H    -3.853265  1.453248  3.116401
H    -4.950425  3.342830  4.017347
H    -4.464715  3.908885  2.396337
H    -3.463356  4.315912  3.826004
H    0.160532  -3.874622  3.759221
Ca    0.491144  4.035578  2.287682
