29
Energy: -38242.9743109 eV PBE+vdW (tier 2 basis)
C    -0.015869  -0.240439  0.131315
C    0.026447  -0.239538  1.624210
O    1.141058  -0.336718  2.221211
H    0.587560  0.598656  -0.242206
H    -1.026485  -0.168306  -0.282959
H    0.460759  -1.160254  -0.235068
N    -1.140426  -0.136133  2.283574
C    -1.467092  -0.110465  3.734767
C    -0.762935  1.049694  4.467821
O    0.494522  1.062478  4.652191
H    -1.956492  -0.072973  1.680285
H    -2.541159  0.115186  3.740521
C    -1.334973  -1.477744  4.462438
C    0.094262  -1.930512  4.751891
C    0.425554  -3.266226  5.418904
O    1.587814  -3.524008  5.648582
O    -0.638773  -4.025567  5.677648
H    -1.852997  -2.227165  3.848660
H    -1.899580  -1.407960  5.403015
H    0.557984  -1.210514  5.450077
H    0.650855  -1.994951  3.801335
N    -1.526201  2.022697  4.937305
C    -1.023994  3.174463  5.693922
H    -2.525568  1.983355  4.754887
H    -1.871472  3.663589  6.181157
H    -0.531724  3.887855  5.020916
H    -0.309042  2.839193  6.452347
H    -0.343472  -4.860829  6.099514
Ca    2.203104  -0.119403  4.051375
