29
Energy: -38243.0470604 eV PBE+vdW (tier 2 basis)
C    -0.959499  -0.478213  -0.158301
C    -0.654185  0.500436  0.926648
O    0.432342  1.165837  0.892711
H    -0.867197  0.010298  -1.136776
H    -1.950120  -0.935935  -0.071181
H    -0.198063  -1.272121  -0.127377
N    -1.541774  0.646549  1.917175
C    -1.427596  1.341937  3.217247
C    -1.385225  2.876299  3.117958
O    -0.543060  3.474652  2.366009
H    -2.374202  0.068685  1.829321
H    -2.369411  1.086055  3.719057
C    -0.276467  0.797851  4.098777
C    -0.402875  1.214746  5.576937
C    -1.698649  0.695412  6.180125
O    -1.896321  -0.434617  6.536011
O    -2.674286  1.676343  6.215810
H    0.700065  1.117120  3.708685
H    -0.302330  -0.298712  4.030505
H    -0.324411  2.301763  5.706251
H    0.418673  0.751017  6.136278
N    -2.209250  3.536410  3.905767
C    -2.279143  4.989729  4.050356
H    -2.768075  2.979904  4.561768
H    -3.313107  5.316409  3.888485
H    -1.624189  5.466285  3.318595
H    -1.973741  5.272501  5.065654
H    -3.453598  1.281349  6.661067
Ca    1.107459  3.145787  1.086591
