29
Energy: -38242.2486422 eV PBE+vdW (tier 2 basis)
C    -0.777090  -0.761106  -0.292553
C    -0.116091  -0.134055  0.911490
O    1.065560  -0.200329  1.158791
H    -1.426869  -0.060147  -0.835635
H    -1.377397  -1.636624  -0.002208
H    0.011891  -1.107312  -0.965736
N    -0.943229  0.614443  1.798434
C    -2.387354  0.585297  1.871671
C    -2.998789  1.894597  1.312171
O    -4.273951  2.034074  1.207915
H    -0.434224  0.857226  2.648825
H    -2.752100  -0.207011  1.198069
C    -2.873480  0.282742  3.324235
C    -3.997339  -0.791256  3.482258
C    -5.242190  -0.319193  2.828759
O    -5.585844  -0.576385  1.671597
O    -6.015825  0.628034  3.437109
H    -3.156975  1.210288  3.842070
H    -2.016069  -0.125415  3.873712
H    -4.159165  -0.976356  4.554092
H    -3.698921  -1.736147  3.012180
N    -2.154535  2.823821  0.939948
C    -2.459742  4.133000  0.374577
H    -1.172855  2.539314  1.054985
H    -1.938442  4.904916  0.952585
H    -3.536585  4.313170  0.411789
H    -2.111084  4.176690  -0.664905
H    -5.753179  0.832639  4.356955
Ca    -6.279646  1.474223  1.029573
