29
Energy: -38243.427876 eV PBE+vdW (tier 2 basis)
C    -0.637550  -0.420300  0.164247
C    -0.330045  -0.208458  1.604209
O    0.840329  -0.338344  2.060384
H    -0.285436  -1.428758  -0.101349
H    -0.058991  0.277696  -0.456063
H    -1.702328  -0.347107  -0.074490
N    -1.321140  0.123091  2.488422
C    -2.286253  1.193835  2.266099
C    -1.539657  2.468452  1.777743
O    -0.289622  2.579839  1.959943
H    -0.991612  0.064073  3.451359
H    -2.988192  0.893812  1.475737
C    -3.130376  1.452405  3.549968
C    -2.470159  1.265155  4.947028
C    -1.218694  2.070041  5.228067
O    -0.115927  1.753865  4.751396
O    -1.263490  3.142298  5.990397
H    -3.979766  0.757603  3.536164
H    -3.559820  2.460168  3.484199
H    -2.211445  0.207817  5.109916
H    -3.244876  1.492856  5.691957
N    -2.209999  3.427955  1.154687
C    -3.630757  3.508551  0.805778
H    -1.635552  4.227937  0.884562
H    -3.719113  3.920257  -0.205376
H    -4.162154  4.170832  1.501462
H    -4.101040  2.521585  0.817243
H    -2.145977  3.300006  6.379793
Ca    1.345114  1.587339  3.070693
