29
Energy: -38243.3646972 eV PBE+vdW (tier 2 basis)
C    0.370079  0.151348  -0.092473
C    0.207768  0.075448  1.390367
O    1.227653  -0.127510  2.128084
H    1.138099  0.893689  -0.345061
H    -0.556161  0.391901  -0.624102
H    0.741376  -0.821541  -0.447411
N    -1.019601  0.222502  1.900686
C    -1.538103  -0.007578  3.265968
C    -1.035172  0.993913  4.321540
O    0.206689  1.281475  4.450517
H    -1.745688  0.398911  1.210763
H    -2.613210  0.179346  3.165872
C    -1.379976  -1.482360  3.714479
C    -2.145813  -1.862070  4.999817
C    -3.623339  -1.505000  4.974944
O    -4.050874  -0.360520  4.837348
O    -4.408126  -2.566831  5.125802
H    -0.319029  -1.731552  3.856060
H    -1.733945  -2.105445  2.880967
H    -1.714747  -1.355058  5.876879
H    -2.032935  -2.938590  5.169147
N    -1.960230  1.482425  5.116005
C    -1.738848  2.397501  6.231479
H    -2.905012  1.061655  5.007072
H    -2.417520  3.252408  6.129049
H    -0.704235  2.746810  6.231580
H    -1.960408  1.888187  7.178154
H    -5.345691  -2.277582  5.134038
Ca    2.136812  0.749233  3.811725
