29
Energy: -38242.9587761 eV PBE+vdW (tier 2 basis)
C    0.288109  -1.938707  -0.017889
C    -0.115462  -1.045577  1.115860
O    0.547848  -0.061270  1.471470
H    1.326415  -2.259452  0.128994
H    0.264895  -1.349771  -0.945373
H    -0.355086  -2.817023  -0.140437
N    -1.287713  -1.351463  1.771740
C    -1.870266  -0.412412  2.729358
C    -1.152526  -0.556297  4.095472
O    -1.735523  -1.047179  5.133224
H    -1.810721  -2.178888  1.503512
H    -1.594421  0.590799  2.361362
C    -3.403653  -0.540650  2.743369
C    -4.199086  0.740339  3.050750
C    -4.488026  1.078821  4.489196
O    -4.380952  0.263367  5.426628
O    -4.925341  2.276472  4.802091
H    -3.733427  -1.367509  3.389438
H    -3.691770  -0.833280  1.725061
H    -5.198138  0.651207  2.585509
H    -3.741206  1.615572  2.563047
N    0.099346  -0.171626  4.107215
C    1.021278  -0.283822  5.232511
H    0.457962  0.115731  3.158724
H    0.782587  -1.162272  5.840880
H    2.037011  -0.381030  4.837968
H    0.976718  0.619391  5.855831
H    -5.012776  2.871156  4.029923
Ca    -3.255295  -1.191130  6.523530
