29
Energy: -38243.2625972 eV PBE+vdW (tier 2 basis)
C    -1.298938  2.218317  2.068716
C    -0.342488  1.170989  1.629382
O    0.888994  1.596618  1.470711
H    -1.889165  1.889431  2.933131
H    -1.991172  2.465961  1.249586
H    -0.746390  3.124681  2.332987
N    -0.652256  -0.084784  1.400527
C    -1.998017  -0.669066  1.425109
C    -2.105258  -1.744282  2.528980
O    -1.146342  -2.524752  2.795641
H    0.084386  -0.760198  1.073309
H    -2.705225  0.130341  1.665688
C    -2.395590  -1.253566  0.024551
C    -1.249460  -1.795900  -0.869376
C    -0.367786  -2.754115  -0.108793
O    -0.714635  -3.960425  0.064531
O    0.671302  -2.282919  0.515749
H    -2.902956  -0.460043  -0.538228
H    -3.136522  -2.048237  0.185856
H    -0.641129  -0.973986  -1.266675
H    -1.708379  -2.317508  -1.717978
N    -3.263131  -1.850445  3.170411
C    -4.485403  -1.053475  3.003570
H    -3.294511  -2.601279  3.859734
H    -5.240570  -1.452633  3.686021
H    -4.877793  -1.127563  1.982394
H    -4.315872  -0.002123  3.268988
H    1.514001  0.923334  1.131222
Ca    0.349729  -3.955977  1.994483
