29
Energy: -38242.8857201 eV PBE+vdW (tier 2 basis)
C    -0.980591  1.627860  0.979804
C    -0.254392  0.649564  1.838239
O    0.816987  0.986010  2.443165
H    -0.232058  2.199704  0.415096
H    -1.526892  2.356067  1.599058
H    -1.680090  1.155474  0.284019
N    -0.718474  -0.611651  1.996110
C    -2.117569  -0.896764  2.311185
C    -2.392285  -0.356386  3.754452
O    -1.444356  0.215339  4.414396
H    -0.052248  -1.237248  2.453455
H    -2.747292  -0.298152  1.637316
C    -2.441421  -2.407511  2.131538
C    -3.449170  -2.731316  1.026851
C    -4.860614  -2.269077  1.318776
O    -5.192488  -1.591228  2.290474
O    -5.718475  -2.676927  0.392206
H    -2.791163  -2.828972  3.082662
H    -1.504176  -2.928974  1.894739
H    -3.484548  -3.818566  0.864125
H    -3.144930  -2.313030  0.054256
N    -3.606810  -0.502826  4.209701
C    -4.102575  -0.074844  5.514513
H    -4.282684  -0.961350  3.545236
H    -4.510075  -0.942710  6.047055
H    -4.908469  0.655883  5.373009
H    -3.296536  0.371293  6.101018
H    -6.619300  -2.364586  0.619150
Ca    0.496395  1.059639  4.578006
