29
Energy: -38242.5796785 eV PBE+vdW (tier 2 basis)
C    0.058002  0.550650  1.066179
C    -0.311153  0.175013  2.461275
O    0.615990  0.121570  3.361391
H    -0.790798  0.580194  0.377991
H    0.832761  -0.123699  0.677158
H    0.514239  1.551275  1.102067
N    -1.543655  -0.112753  2.830859
C    -2.736404  -0.499288  2.086189
C    -3.880345  -0.108312  3.076779
O    -3.588489  -0.104040  4.279644
H    -1.797412  -0.145174  3.842013
H    -2.801874  0.026531  1.126454
C    -2.795294  -2.041486  1.912777
C    -1.681748  -2.725511  1.104516
C    -0.380062  -3.063799  1.793279
O    -0.076976  -2.743062  2.958538
O    0.530896  -3.739349  1.117544
H    -3.744972  -2.274836  1.412592
H    -2.863971  -2.497557  2.910730
H    -1.419187  -2.149858  0.199287
H    -2.073101  -3.682006  0.716507
N    -5.102728  0.139957  2.591693
C    -5.513944  0.243146  1.191970
H    -5.796521  0.350806  3.306785
H    -5.341070  -0.691350  0.642024
H    -5.012275  1.074792  0.679363
H    -6.589487  0.439026  1.169284
H    0.232849  -4.004504  0.223997
Ca    1.149196  -1.617256  4.390046
