29
Energy: -38243.7159466 eV PBE+vdW (tier 2 basis)
C    -0.614014  0.281152  -0.580753
C    -0.591371  -0.254321  0.808834
O    0.250309  -1.129260  1.163430
H    -0.786053  -0.547311  -1.281778
H    0.375879  0.694689  -0.817717
H    -1.376020  1.051469  -0.737434
N    -1.494184  0.216868  1.707274
C    -1.437454  -0.278278  3.074878
C    -2.154978  -1.639060  3.228562
O    -1.412998  -2.668811  3.274467
H    -2.164492  0.920765  1.410817
H    -0.388332  -0.552090  3.154656
C    -1.563682  0.724230  4.228621
C    -0.906450  0.155008  5.521285
C    0.552882  -0.267970  5.407347
O    0.957356  -1.120607  4.595509
O    1.451099  0.255862  6.213136
H    -2.598233  0.992854  4.473436
H    -1.052834  1.650741  3.930048
H    -1.450813  -0.744061  5.854744
H    -1.024364  0.896373  6.321564
N    -3.472764  -1.756583  3.289198
C    -4.507299  -0.726596  3.207397
H    -3.800200  -2.720504  3.378420
H    -5.257493  -1.031445  2.468595
H    -4.086134  0.231186  2.893387
H    -5.001322  -0.601681  4.179318
H    1.075991  0.908617  6.835963
Ca    0.750599  -2.527957  2.826626
