29
Energy: -38243.815248 eV PBE+vdW (tier 2 basis)
C    0.346444  0.204136  -0.336503
C    -0.032026  -0.104106  1.070435
O    0.845227  -0.253954  1.969963
H    -0.514824  0.337625  -0.999017
H    0.980052  -0.605955  -0.723462
H    0.958914  1.116253  -0.346896
N    -1.347187  -0.218122  1.385804
C    -1.715052  -0.477769  2.769919
C    -1.648066  -1.986092  3.102314
O    -0.584358  -2.417456  3.637961
H    -2.044343  -0.105298  0.654549
H    -0.864822  -0.057160  3.300908
C    -2.874572  0.314330  3.377780
C    -2.772199  0.310037  4.932356
C    -1.449711  0.784668  5.526427
O    -0.349322  0.272300  5.250037
O    -1.443710  1.763852  6.404984
H    -3.867154  -0.070198  3.104805
H    -2.821665  1.346198  3.003069
H    -2.914682  -0.714773  5.313861
H    -3.602815  0.902753  5.335635
N    -2.673058  -2.770152  2.805507
C    -2.714455  -4.220886  3.014009
H    -3.489953  -2.343589  2.375106
H    -2.787467  -4.731284  2.046041
H    -3.588718  -4.478404  3.622811
H    -1.801835  -4.532802  3.526397
H    -2.334293  2.119749  6.591958
Ca    1.089647  -1.021902  4.043240
