29
Energy: -38243.5672711 eV PBE+vdW (tier 2 basis)
C    0.293859  0.076427  0.484217
C    0.032624  0.329930  1.926726
O    0.954584  0.668047  2.720322
H    1.003271  -0.764926  0.430468
H    0.802652  0.934741  0.027195
H    -0.598430  -0.191725  -0.088483
N    -1.228013  0.193654  2.441146
C    -2.435283  0.743360  1.827597
C    -2.156694  2.207260  1.384881
O    -1.245976  2.875292  1.955407
H    -1.236528  0.159574  3.459115
H    -2.706785  0.145996  0.944396
C    -3.625724  0.660235  2.818968
C    -3.758870  1.720880  3.946002
C    -2.733543  1.689480  5.061779
O    -1.529458  1.940284  4.872687
O    -3.095012  1.403782  6.291775
H    -3.638845  -0.356016  3.239241
H    -4.547212  0.742861  2.228355
H    -4.766924  1.613918  4.368198
H    -3.713958  2.735675  3.519864
N    -2.919127  2.703677  0.423229
C    -2.843963  4.066951  -0.109398
H    -3.598811  2.080345  -0.008240
H    -3.819408  4.556569  -0.006089
H    -2.572728  4.031658  -1.171359
H    -2.088023  4.627392  0.444388
H    -4.051577  1.224612  6.383543
Ca    0.204685  2.563690  3.623054
