29
Energy: -38242.683818 eV PBE+vdW (tier 2 basis)
C    -0.566739  -0.175616  -0.447732
C    -1.081605  -0.259184  0.956462
O    -1.908618  -1.106766  1.324012
H    -1.413967  -0.184133  -1.143554
H    0.022485  -1.081053  -0.651185
H    0.060119  0.702365  -0.638156
N    -0.594718  0.657152  1.861065
C    -0.819034  0.508102  3.299165
C    -2.240905  0.996735  3.686752
O    -2.447852  1.960063  4.520752
H    0.034753  1.384211  1.535650
H    -0.830796  -0.578767  3.495975
C    0.368904  1.137188  4.046012
C    0.587238  0.718457  5.533641
C    -0.376948  1.395216  6.439616
O    -1.376603  0.895569  6.955810
O    -0.277783  2.750651  6.629766
H    0.346674  2.233642  3.949934
H    1.270649  0.800444  3.517682
H    1.614741  0.990178  5.819959
H    0.479379  -0.364888  5.664697
N    -3.219474  0.347829  3.108564
C    -4.639613  0.635483  3.265329
H    -2.893592  -0.400572  2.429843
H    -5.174334  0.213900  2.409294
H    -4.815674  1.717053  3.297483
H    -5.033298  0.163697  4.177055
H    0.516937  3.155684  6.228818
Ca    -2.792249  2.610215  6.474479
