29
Energy: -38244.1386515 eV PBE+vdW (tier 2 basis)
C    -0.513871  0.608148  0.066624
C    -0.350894  0.264932  1.511594
O    0.719792  -0.255456  1.931171
H    -1.477979  1.068522  -0.172144
H    -0.397589  -0.309859  -0.526508
H    0.295787  1.285817  -0.235553
N    -1.385332  0.522587  2.339492
C    -1.504378  0.182210  3.772019
C    -0.537830  1.049521  4.605212
O    0.703467  0.814084  4.632536
H    -2.206607  0.936659  1.907983
H    -2.520735  0.489188  4.041806
C    -1.416052  -1.355184  3.986138
C    -1.168426  -1.870133  5.414478
C    0.254679  -2.319358  5.687798
O    1.200303  -2.095625  4.919895
O    0.518121  -2.979968  6.795743
H    -0.658465  -1.779881  3.319202
H    -2.372916  -1.756930  3.631160
H    -1.829322  -2.726903  5.616243
H    -1.427235  -1.127392  6.188458
N    -1.032030  2.069235  5.301033
C    -2.415007  2.554369  5.394705
H    -0.324074  2.607097  5.802092
H    -2.773236  2.931865  4.429054
H    -2.429334  3.383361  6.107661
H    -3.090474  1.777289  5.771752
H    -0.274992  -3.158048  7.338641
Ca    2.073185  -0.548473  3.604930
