29
Energy: -38242.5506528 eV PBE+vdW (tier 2 basis)
C    -0.325901  1.232192  0.036998
C    -0.702015  0.612315  1.346896
O    -0.105184  1.000274  2.426953
H    -0.882569  0.816363  -0.808464
H    0.748068  1.076007  -0.135516
H    -0.506134  2.317541  0.065799
N    -1.654363  -0.293555  1.350435
C    -2.175620  -1.190888  2.377710
C    -3.228189  -2.021411  1.554929
O    -3.549347  -1.597161  0.439711
H    -2.193367  -0.500721  0.474276
H    -1.366762  -1.859197  2.711479
C    -2.801317  -0.550423  3.645950
C    -3.572746  0.793120  3.462718
C    -2.657146  1.955248  3.637915
O    -2.301304  2.769833  2.789661
O    -1.991799  2.095932  4.836788
H    -2.011793  -0.438278  4.401375
H    -3.508994  -1.277359  4.062900
H    -4.364602  0.854991  4.226110
H    -4.054641  0.872755  2.481173
N    -3.712480  -3.126285  2.133628
C    -4.693774  -4.003505  1.488680
H    -3.298547  -3.449733  3.002644
H    -5.142146  -3.466926  0.648729
H    -5.471594  -4.276913  2.209703
H    -4.207317  -4.913583  1.116011
H    -2.271003  1.464374  5.529421
Ca    -0.077760  2.853840  3.411334
