29
Energy: -38242.8858979 eV PBE+vdW (tier 2 basis)
C    -0.082152  -0.311906  -0.659742
C    -0.474435  0.592623  0.469170
O    -0.097304  1.769510  0.546893
H    -0.574764  0.047318  -1.574666
H    -0.354288  -1.361639  -0.502945
H    0.998144  -0.231584  -0.826568
N    -1.288272  0.059777  1.446460
C    -2.023094  0.896281  2.398901
C    -1.128533  1.470280  3.530861
O    -1.478872  1.378391  4.770501
H    -1.602536  -0.894964  1.311483
H    -2.365328  1.792320  1.848191
C    -3.282684  0.186274  2.909392
C    -3.070951  -1.207677  3.577604
C    -3.846921  -1.361695  4.862107
O    -3.648695  -0.606347  5.837696
O    -4.749534  -2.296512  5.015982
H    -3.966984  0.067454  2.059864
H    -3.794976  0.866555  3.601233
H    -2.015198  -1.348916  3.859080
H    -3.320110  -2.018861  2.881924
N    -0.050206  2.104149  3.158974
C    0.901000  2.754671  4.054425
H    0.075099  2.149236  2.103658
H    1.758957  3.082798  3.462049
H    1.246314  2.057402  4.827264
H    0.445680  3.632444  4.532044
H    -4.865111  -2.857391  4.223457
Ca    -2.453452  1.040406  6.558976
