29
Energy: -38243.5373139 eV PBE+vdW (tier 2 basis)
C    -1.510150  -2.038825  1.272639
C    -0.759447  -0.931136  1.931332
O    0.440109  -0.664338  1.561043
H    -1.538891  -1.851304  0.190146
H    -2.530453  -2.143987  1.653502
H    -0.969266  -2.984361  1.415934
N    -1.359940  -0.239176  2.892915
C    -0.857487  0.992704  3.521960
C    0.300713  0.677937  4.497771
O    1.475544  0.510939  4.027903
H    -2.388401  -0.411438  3.063043
H    -0.398193  1.617858  2.737270
C    -2.022435  1.776470  4.156532
C    -3.172375  2.169022  3.209079
C    -4.224144  1.090106  3.026336
O    -4.009088  -0.116887  3.136864
O    -5.412698  1.595602  2.726409
H    -1.601241  2.697666  4.580537
H    -2.456895  1.205752  4.993241
H    -2.802193  2.443734  2.207513
H    -3.671506  3.069228  3.588415
N    0.060893  0.589887  5.790502
C    1.054202  0.296920  6.826189
H    -0.898135  0.732564  6.098927
H    0.990997  -0.758610  7.120813
H    0.848126  0.924330  7.699468
H    2.054282  0.514782  6.444627
H    -6.054676  0.866497  2.593670
Ca    2.351750  -0.109933  2.185420
