29
Energy: -38243.1979856 eV PBE+vdW (tier 2 basis)
C    0.588436  1.622026  0.919002
C    0.349554  0.657849  2.033477
O    1.213144  0.550550  2.970720
H    -0.197773  1.606373  0.157928
H    1.555787  1.391649  0.451375
H    0.669956  2.637971  1.329790
N    -0.771361  -0.060154  2.016827
C    -1.193334  -1.213965  2.837576
C    -1.358526  -0.916518  4.328812
O    -0.358865  -0.641349  5.076419
H    -1.322722  -0.031358  1.151817
H    -2.187263  -1.431978  2.437543
C    -0.339073  -2.484185  2.611383
C    -0.088026  -2.838813  1.131129
C    -1.299503  -2.723698  0.218156
O    -2.027370  -1.738421  0.168798
O    -1.457190  -3.802905  -0.546924
H    -0.858188  -3.315136  3.111426
H    0.636765  -2.387353  3.108488
H    0.325633  -3.851625  1.071227
H    0.673529  -2.167214  0.704693
N    -2.560479  -1.010007  4.871248
C    -3.849892  -1.312005  4.232477
H    -2.576190  -0.871076  5.882670
H    -4.638479  -1.097993  4.959180
H    -3.912877  -2.371394  3.954335
H    -4.013835  -0.678981  3.353866
H    -2.212322  -3.656273  -1.155288
Ca    1.598720  0.158068  4.984660
