29
Energy: -38244.2547471 eV PBE+vdW (tier 2 basis)
C    -0.575246  0.281449  -0.212408
C    -0.287452  -0.068241  1.211286
O    0.760015  -0.704053  1.516916
H    -0.641015  -0.648914  -0.794149
H    0.269037  0.852293  -0.621243
H    -1.498416  0.853869  -0.348558
N    -1.184337  0.309327  2.145355
C    -1.179351  -0.004627  3.588997
C    -0.048191  0.762751  4.309429
O    1.167133  0.461379  4.157064
H    -1.992472  0.821269  1.802998
H    -2.124981  0.410851  3.961601
C    -1.235291  -1.542471  3.817612
C    -0.886519  -2.075179  5.216875
C    0.522007  -2.619777  5.356037
O    1.396629  -2.479200  4.490481
O    0.851331  -3.278800  6.447429
H    -0.607964  -2.049745  3.077151
H    -2.264132  -1.838427  3.578686
H    -1.579567  -2.889007  5.480749
H    -1.026376  -1.320024  6.009161
N    -0.424822  1.762693  5.099735
C    0.489555  2.633771  5.840831
H    -1.416657  1.976640  5.161867
H    0.064711  2.839555  6.828751
H    0.626894  3.581825  5.304783
H    1.455715  2.135116  5.949087
H    0.107611  -3.389740  7.072034
Ca    2.267152  -1.064583  3.033442
