29
Energy: -38242.9338021 eV PBE+vdW (tier 2 basis)
C    0.183376  -0.518840  0.245382
C    0.187451  -0.209783  1.703383
O    1.238988  0.244257  2.264814
H    1.009885  -1.201316  0.007974
H    0.374095  0.413896  -0.306164
H    -0.759093  -0.952130  -0.104727
N    -0.930335  -0.402100  2.411722
C    -1.166005  0.013893  3.807749
C    -0.478612  -0.970004  4.780927
O    0.785247  -0.881420  4.947879
H    -1.734213  -0.776933  1.911187
H    -0.637678  0.970535  3.951192
C    -2.665591  0.240626  4.041604
C    -3.219792  1.436046  3.252754
C    -4.710653  1.685057  3.471321
O    -5.203889  2.779325  3.550292
O    -5.398873  0.512699  3.533241
H    -2.818891  0.423253  5.115292
H    -3.240426  -0.664853  3.784374
H    -3.085827  1.298780  2.167423
H    -2.704158  2.365723  3.524144
N    -1.205781  -1.863564  5.417769
C    -0.713593  -2.854591  6.377031
H    -2.209507  -1.852292  5.242932
H    -1.266459  -2.748972  7.317784
H    0.351270  -2.692587  6.554180
H    -0.876580  -3.863416  5.978150
H    -6.346709  0.737265  3.632884
Ca    2.448917  0.033468  3.981281
