29
Energy: -38242.6737828 eV PBE+vdW (tier 2 basis)
C    0.128968  -1.502966  1.366210
C    -0.125170  -0.496390  2.436638
O    0.582748  -0.539988  3.518229
H    -0.506936  -1.380693  0.485549
H    0.028037  -2.522125  1.763013
H    1.179451  -1.398737  1.055984
N    -1.044713  0.443676  2.341136
C    -2.224323  0.596909  1.497313
C    -2.450946  2.144098  1.530970
O    -2.051392  2.739524  2.539257
H    -1.038539  1.254773  2.996568
H    -2.046391  0.217610  0.482997
C    -3.461362  -0.066880  2.160597
C    -3.434959  -1.584817  2.398153
C    -2.748385  -2.122283  3.631890
O    -2.095310  -1.442571  4.447015
O    -2.819215  -3.417744  3.876107
H    -4.322532  0.142253  1.511374
H    -3.666780  0.454136  3.106668
H    -3.004877  -2.126818  1.537186
H    -4.477242  -1.944245  2.454147
N    -3.101235  2.691032  0.499465
C    -3.438064  4.113785  0.418856
H    -3.333073  2.105712  -0.297204
H    -2.895140  4.583975  -0.409740
H    -3.149875  4.591612  1.358524
H    -4.515919  4.234142  0.260404
H    -3.375191  -3.903081  3.233506
Ca    -0.206117  -0.893646  5.420117
