29
Energy: -38243.3457455 eV PBE+vdW (tier 2 basis)
C    -0.866154  2.051499  2.536904
C    -0.021661  1.014887  1.890986
O    1.217050  1.388306  1.668802
H    -1.368213  1.660945  3.431223
H    -1.635727  2.407041  1.835228
H    -0.240816  2.903260  2.819516
N    -0.431639  -0.184793  1.547247
C    -1.804938  -0.700423  1.630808
C    -1.874752  -1.897025  2.610451
O    -1.033607  -2.837512  2.592629
H    0.224178  -0.853383  1.066249
H    -2.436803  0.096844  2.037631
C    -2.362522  -1.073635  0.214014
C    -1.339904  -1.509497  -0.867348
C    -0.457902  -2.620259  -0.359264
O    -0.856439  -3.823022  -0.371588
O    0.645628  -2.310835  0.256566
H    -2.893300  -0.195626  -0.175226
H    -3.116688  -1.861692  0.343373
H    -0.721421  -0.661731  -1.187562
H    -1.906558  -1.862446  -1.737331
N    -2.901961  -1.901081  3.449980
C    -3.191950  -2.991075  4.386733
H    -3.552771  -1.121165  3.424956
H    -3.999170  -2.670699  5.050279
H    -2.302535  -3.219596  4.983878
H    -3.509457  -3.890027  3.843548
H    1.766227  0.726285  1.200480
Ca    0.308159  -4.193626  1.455372
