29
Energy: -38243.0001025 eV PBE+vdW (tier 2 basis)
C    0.452564  -0.776206  0.148995
C    0.264228  -1.024170  1.607802
O    1.123869  -1.702749  2.260347
H    0.609308  -1.728375  -0.373951
H    1.371944  -0.186494  0.016198
H    -0.381975  -0.239185  -0.313380
N    -0.811346  -0.510369  2.214287
C    -1.079590  -0.442643  3.664362
C    -1.596782  -1.795766  4.207787
O    -0.796535  -2.797242  4.182407
H    -1.457403  0.005807  1.620953
H    -0.103038  -0.314045  4.160002
C    -1.921319  0.805532  3.973024
C    -3.233278  0.980389  3.157233
C    -4.439332  1.301069  4.025296
O    -5.137297  2.269571  3.953902
O    -4.643249  0.280905  4.942545
H    -1.278102  1.678231  3.802689
H    -2.126244  0.808583  5.051780
H    -3.496092  0.068717  2.593980
H    -3.145490  1.797235  2.433686
N    -2.796790  -1.908137  4.725769
C    -3.319556  -3.153269  5.297197
H    -3.419031  -1.086778  4.787688
H    -3.241157  -3.969576  4.570695
H    -4.370167  -2.993876  5.552554
H    -2.763619  -3.422244  6.204105
H    -5.424292  0.518189  5.483369
Ca    1.172097  -3.325397  3.610313
