29
Energy: -38244.1622945 eV PBE+vdW (tier 2 basis)
C    0.743073  1.216010  -1.102592
C    -0.048710  0.823622  0.105338
O    0.131677  -0.306159  0.638253
H    0.501848  2.211415  -1.489099
H    0.569441  0.471751  -1.892109
H    1.813276  1.174923  -0.858987
N    -0.942100  1.717752  0.571758
C    -1.931887  1.664181  1.669064
C    -1.318850  1.457197  3.064407
O    -0.476975  0.548598  3.315902
H    -0.974075  2.583631  0.040881
H    -2.327784  2.687082  1.680612
C    -3.194517  0.802233  1.375689
C    -3.090149  -0.705850  1.042230
C    -2.917204  -1.626184  2.220643
O    -1.822705  -2.066556  2.617447
O    -4.049419  -1.944804  2.811947
H    -3.667509  1.270895  0.502291
H    -3.899933  0.950829  2.206676
H    -2.282354  -0.901466  0.329369
H    -4.036106  -0.983416  0.558699
N    -1.726353  2.262116  4.041501
C    -2.656902  3.396934  3.991038
H    -1.303924  2.056373  4.946915
H    -3.660408  3.084033  3.678885
H    -2.283939  4.189366  3.329803
H    -2.732068  3.810974  5.000279
H    -3.892338  -2.562314  3.558591
Ca    0.273892  -1.331165  2.527566
