29
Energy: -38243.2888007 eV PBE+vdW (tier 2 basis)
C    -0.862243  -1.421981  0.393957
C    -0.551693  -0.505260  1.530002
O    0.666867  -0.215238  1.793298
H    -0.324774  -2.368696  0.543560
H    -0.479883  -0.985278  -0.539140
H    -1.932098  -1.623218  0.282220
N    -1.563162  -0.007064  2.235783
C    -1.567847  0.748365  3.506473
C    -0.864913  2.110582  3.443396
O    0.401115  2.218576  3.336614
H    -2.490592  -0.416188  2.071711
H    -2.635709  0.946269  3.656200
C    -1.094962  -0.084905  4.720211
C    -1.723066  -1.490175  4.829164
C    -3.219933  -1.555292  4.564669
O    -3.759995  -1.070505  3.576516
O    -3.870671  -2.228389  5.512055
H    -1.327613  0.499483  5.622321
H    -0.001821  -0.203435  4.703506
H    -1.503421  -1.904206  5.819457
H    -1.259424  -2.170502  4.097838
N    -1.633086  3.178397  3.569308
C    -1.169498  4.565961  3.614127
H    -2.637590  3.027097  3.633003
H    -1.731075  5.101111  4.387196
H    -1.343620  5.051839  2.645357
H    -0.103678  4.587167  3.852415
H    -4.818674  -2.288835  5.267959
Ca    2.053087  1.147357  2.547643
