29
Energy: -38243.3795421 eV PBE+vdW (tier 2 basis)
C    -1.565952  -2.017327  0.716037
C    -0.760083  -1.013035  1.464123
O    0.519074  -1.064485  1.451462
H    -2.644285  -1.886869  0.850850
H    -1.276633  -3.029735  1.027233
H    -1.326809  -1.932380  -0.354112
N    -1.380457  -0.044057  2.140209
C    -0.653700  1.017139  2.854446
C    0.027710  0.406410  4.099206
O    1.295194  0.207937  4.053875
H    -2.391426  -0.096008  2.267098
H    0.181324  1.289490  2.193872
C    -1.457945  2.334363  3.007392
C    -2.495701  2.562735  4.122250
C    -3.597354  1.536177  4.206529
O    -3.374994  0.320467  4.214055
O    -4.809854  2.059411  4.290961
H    -1.926970  2.514228  2.028210
H    -0.707654  3.128853  3.119216
H    -2.929963  3.559831  3.983506
H    -2.008003  2.583254  5.110599
N    -0.716633  0.049259  5.119594
C    -0.227555  -0.577863  6.346187
H    -1.743472  0.125525  4.971655
H    0.839330  -0.375279  6.468187
H    -0.400314  -1.662054  6.314096
H    -0.778240  -0.163588  7.197294
H    -5.473349  1.344448  4.398141
Ca    2.349714  -0.767848  2.480831
