29
Energy: -38242.8678204 eV PBE+vdW (tier 2 basis)
C    -0.449611  1.658964  0.317174
C    -1.177879  0.407805  0.682660
O    -1.768097  -0.263616  -0.218090
H    0.315092  1.422334  -0.435375
H    0.024192  2.158912  1.167898
H    -1.158233  2.351525  -0.158657
N    -1.183710  0.036384  1.971953
C    -1.849243  -1.088937  2.677134
C    -1.351733  -2.464150  2.207417
O    -1.600655  -2.884034  1.029878
H    -0.679728  0.665806  2.591335
H    -1.505765  -0.960833  3.709312
C    -3.392753  -1.006254  2.771554
C    -4.249709  -1.301636  1.539704
C    -5.749246  -1.142068  1.836234
O    -6.196254  -0.786409  2.894058
O    -6.456761  -1.460017  0.729252
H    -3.639192  -0.000470  3.138966
H    -3.701166  -1.687817  3.578023
H    -4.136597  -2.353214  1.210825
H    -4.033957  -0.601838  0.713814
N    -0.701037  -3.244322  3.054326
C    -0.313053  -2.984006  4.448461
H    -0.450263  -4.157678  2.672682
H    -1.194367  -2.863301  5.090089
H    0.337677  -2.104664  4.521136
H    0.250215  -3.851164  4.803733
H    -7.410056  -1.348998  0.927577
Ca    -2.521623  -2.163717  -0.757265
