29
Energy: -38242.8963269 eV PBE+vdW (tier 2 basis)
C    -0.461022  1.448545  0.850118
C    -0.106402  0.556039  1.988548
O    1.098019  0.568717  2.453368
H    0.179461  1.231470  -0.015496
H    -0.238719  2.483637  1.147865
H    -1.511970  1.384743  0.555205
N    -0.974770  -0.260719  2.556794
C    -2.269284  -0.776355  2.126332
C    -2.794109  -1.478996  3.417386
O    -1.949767  -1.851076  4.246305
H    -0.717452  -0.775383  3.425071
H    -2.941997  0.032945  1.811684
C    -2.113521  -1.799975  0.970936
C    -1.136628  -2.984872  1.262016
C    0.301017  -2.675810  0.944388
O    1.145473  -2.335706  1.798367
O    0.724342  -2.726759  -0.305274
H    -1.817841  -1.268698  0.054018
H    -3.101686  -2.231698  0.765312
H    -1.445689  -3.842466  0.646846
H    -1.200469  -3.292026  2.313553
N    -4.112736  -1.674757  3.504985
C    -4.759727  -2.356832  4.627676
H    -4.713415  -1.267413  2.794219
H    -5.385098  -1.651059  5.187503
H    -3.984000  -2.754191  5.286913
H    -5.384727  -3.176991  4.256297
H    0.042755  -3.059063  -0.922859
Ca    2.515104  -0.940780  2.747027
