29
Energy: -38242.8247215 eV PBE+vdW (tier 2 basis)
C    0.095160  -0.316484  0.085961
C    -0.001230  -0.522511  1.560909
O    1.026901  -0.949244  2.212196
H    0.359630  -1.269730  -0.392821
H    0.903836  0.393225  -0.135379
H    -0.837319  0.055206  -0.349641
N    -1.140578  -0.264000  2.168069
C    -1.550114  -0.510057  3.547778
C    -3.074543  -0.845456  3.364560
O    -3.602189  -0.518880  2.299463
H    -2.001865  -0.071524  1.609487
H    -0.996990  -1.368738  3.950934
C    -1.401552  0.746107  4.465898
C    -0.514987  0.595473  5.737481
C    0.947237  0.738884  5.440830
O    1.648021  -0.215212  5.045451
O    1.543801  1.908211  5.537089
H    -2.395972  1.040480  4.824701
H    -1.054179  1.589701  3.854231
H    -0.674031  -0.381807  6.209887
H    -0.819733  1.361236  6.464172
N    -3.738844  -1.432205  4.374286
C    -3.242243  -1.856941  5.675874
H    -4.731735  -1.559382  4.185725
H    -3.906324  -2.635014  6.065059
H    -3.225213  -1.033039  6.404416
H    -2.241414  -2.300150  5.595174
H    0.958587  2.606405  5.893014
Ca    2.601154  -1.328702  3.474646
