29
Energy: -38244.0963375 eV PBE+vdW (tier 2 basis)
C    -0.365250  0.471942  -0.299593
C    -0.318715  0.032514  1.130547
O    0.540259  -0.809918  1.506420
H    -0.480987  -0.415217  -0.937006
H    0.598548  0.928055  -0.564198
H    -1.168737  1.181602  -0.521502
N    -1.226248  0.572350  1.969310
C    -1.504111  0.350234  3.404828
C    -0.307185  0.642578  4.334867
O    0.815270  0.080079  4.229142
H    -1.853707  1.240171  1.529846
H    -2.229872  1.143416  3.630453
C    -2.307307  -0.947392  3.723057
C    -1.828251  -2.348579  3.264054
C    -0.798299  -3.003956  4.154009
O    0.421122  -2.886004  3.970392
O    -1.183068  -3.726044  5.188354
H    -3.284787  -0.798686  3.244659
H    -2.508191  -0.947014  4.805124
H    -1.423125  -2.314010  2.246430
H    -2.719134  -2.991971  3.224560
N    -0.533357  1.520162  5.306420
C    0.461595  1.883146  6.320014
H    -1.435333  1.985118  5.348168
H    -0.014020  2.543617  7.049373
H    1.306497  2.405807  5.855291
H    0.829229  0.984447  6.828169
H    -2.152488  -3.833463  5.240084
Ca    1.847357  -1.467006  3.097930
