29
Energy: -38243.315562 eV PBE+vdW (tier 2 basis)
C    1.099791  0.051356  1.424718
C    0.345922  -0.044287  2.706226
O    0.944091  -0.261452  3.801206
H    0.458708  0.075363  0.538122
H    1.753757  -0.829862  1.359528
H    1.758041  0.931129  1.433366
N    -0.999217  0.079891  2.749247
C    -1.936296  0.860774  1.929611
C    -1.290531  2.061195  1.247992
O    -0.482301  2.864013  1.863245
H    -1.394050  -0.199639  3.647281
H    -2.388106  0.221644  1.159237
C    -3.078444  1.334866  2.881355
C    -2.700264  2.339607  4.006762
C    -1.432943  1.982720  4.755342
O    -1.426087  1.163682  5.717059
O    -0.296673  2.476430  4.340724
H    -3.508024  0.422089  3.320117
H    -3.878070  1.783366  2.277930
H    -3.529630  2.354120  4.725030
H    -2.592747  3.353859  3.601270
N    -1.581929  2.356442  0.000639
C    -2.435564  1.624966  -0.947189
H    -1.170556  3.231776  -0.331259
H    -2.283162  2.063940  -1.936872
H    -3.494712  1.725512  -0.680593
H    -2.156080  0.566377  -0.994832
H    -0.382803  2.724718  2.909953
Ca    0.814511  0.920529  5.662495
