29
Energy: -38243.156415 eV PBE+vdW (tier 2 basis)
C    -0.108325  -0.305546  0.019325
C    0.031586  -0.183541  1.499987
O    1.169150  -0.364021  2.045774
H    0.606334  0.367765  -0.472413
H    -1.118207  -0.090823  -0.344375
H    0.166907  -1.329268  -0.273444
N    -1.054092  0.113954  2.222359
C    -1.237752  0.139600  3.692045
C    -0.418951  1.251889  4.359134
O    0.845329  1.120426  4.526374
H    -1.911326  0.233229  1.687959
H    -2.297677  0.372505  3.839795
C    -1.014659  -1.242683  4.343413
C    -1.383900  -1.329476  5.831992
C    -2.847501  -1.036828  6.125846
O    -3.538829  -0.267897  5.475775
O    -3.272242  -1.707400  7.199511
H    0.027742  -1.572438  4.220471
H    -1.623174  -1.958450  3.772851
H    -0.788615  -0.629234  6.441943
H    -1.139661  -2.330242  6.209152
N    -1.018531  2.341517  4.798944
C    -2.434546  2.731964  4.711678
H    -0.389681  3.013632  5.241967
H    -2.600376  3.535944  5.434199
H    -3.086811  1.890165  4.968067
H    -2.667045  3.111751  3.708873
H    -4.206763  -1.468356  7.373410
Ca    2.481717  0.150376  3.604601
