29
Energy: -38243.3759676 eV PBE+vdW (tier 2 basis)
C    0.711615  0.093798  0.376373
C    0.114073  -0.051524  1.733380
O    0.162985  -1.150312  2.357753
H    0.266357  -0.655882  -0.292307
H    1.786869  -0.127129  0.431362
H    0.571263  1.089666  -0.056528
N    -0.492058  1.031723  2.291203
C    -0.977499  0.926783  3.654233
C    -2.452302  1.154138  3.915068
O    -2.988149  0.407679  4.838979
H    -0.371509  1.925840  1.821688
H    -0.913563  -0.151644  3.799716
C    -0.067885  1.572889  4.742278
C    -0.072590  0.782137  6.086645
C    0.038624  -0.681859  5.745976
O    1.164503  -1.222865  5.540351
O    -1.049148  -1.337104  5.437946
H    -0.342050  2.618320  4.933341
H    0.952173  1.570240  4.336193
H    -0.985775  0.971839  6.664094
H    0.788180  1.099614  6.685527
N    -3.195071  2.045508  3.312438
C    -4.623867  2.289492  3.566629
H    -2.747910  2.637053  2.615935
H    -5.039227  1.460500  4.143518
H    -5.140517  2.376128  2.605033
H    -4.738306  3.225082  4.128098
H    -2.333621  -0.310098  5.166896
Ca    0.322773  -2.604264  4.047530
