26
Energy: -243766.298881 eV PBE+vdW (tier 2 basis)
C    0.961341  -0.631630  0.803660
C    -0.078132  0.439960  0.669846
O    0.001020  1.354492  -0.164732
H    0.716745  -1.401604  1.543133
H    1.913343  -0.158818  1.081884
H    1.116554  -1.099827  -0.176379
N    -1.154008  0.375555  1.523373
C    -2.165668  1.420971  1.665360
C    -3.121402  1.569847  0.454786
O    -4.380378  1.662355  0.679448
H    -1.214030  -0.410284  2.162213
H    -2.811881  1.093176  2.488869
C    -1.510522  2.768997  2.075713
C    -2.445891  3.829435  2.599020
O    -1.944484  4.990779  2.968848
O    -3.673309  3.680049  2.715916
H    -0.930104  3.182229  1.235121
H    -0.771805  2.558648  2.867244
N    -2.600788  1.615988  -0.748630
C    -3.356095  1.711003  -1.993665
H    -1.551962  1.579497  -0.768743
H    -2.853232  1.104536  -2.753884
H    -3.386751  2.751190  -2.345077
H    -4.374733  1.341498  -1.846498
H    -0.974383  5.047067  2.857751
Ba    -5.931694  2.893141  2.013598
