26
Energy: -243766.490143 eV PBE+vdW (tier 2 basis)
C    0.623355  -0.420471  -0.111671
C    0.126770  -0.257065  1.285154
O    0.890256  0.090149  2.223521
H    1.096086  0.517529  -0.432676
H    -0.162356  -0.691918  -0.824336
H    1.406541  -1.190857  -0.125766
N    -1.198101  -0.490764  1.529561
C    -1.665260  -0.331297  2.891800
C    -1.497040  -1.595052  3.762075
O    -0.573349  -1.561576  4.625251
H    -1.794632  -0.802549  0.769202
H    -0.871038  0.301784  3.276608
C    -2.877223  0.556922  3.198298
C    -2.492456  1.487153  4.369897
O    -3.427382  2.242851  4.908659
O    -1.343826  1.560652  4.811932
H    -3.792260  0.006373  3.456554
H    -3.118075  1.195238  2.333094
N    -2.263907  -2.666965  3.607987
C    -3.332604  -2.898845  2.639577
H    -2.032049  -3.444271  4.228642
H    -3.016982  -3.639450  1.893477
H    -3.605244  -1.971255  2.127960
H    -4.220898  -3.278654  3.157667
H    -4.305086  2.132060  4.493613
Ba    1.085759  0.362278  4.803920
