26
Energy: -243766.269949 eV PBE+vdW (tier 2 basis)
C    -0.013355  0.722848  0.926910
C    0.289608  0.093029  2.244721
O    1.471455  -0.105180  2.631738
H    0.583633  1.641862  0.846779
H    -1.069555  0.974268  0.791513
H    0.314055  0.060562  0.113190
N    -0.725602  -0.280310  3.079601
C    -1.960634  -0.967481  2.638385
C    -2.630443  -1.505400  3.896979
O    -2.038994  -2.449143  4.556010
H    -0.363519  -0.608707  3.974725
H    -2.625604  -0.261718  2.129469
C    -1.652808  -2.159868  1.666081
C    -0.291474  -2.765143  1.989554
O    -0.030154  -3.085261  3.219127
O    0.601288  -2.813708  1.106829
H    -1.640468  -1.802294  0.631622
H    -2.437396  -2.928381  1.732627
N    -3.785221  -1.069738  4.338580
C    -4.633078  0.009568  3.817731
H    -4.136294  -1.569294  5.160006
H    -5.166948  0.455127  4.662924
H    -5.366291  -0.389982  3.106005
H    -4.029628  0.789698  3.345868
H    -1.157607  -2.800380  4.042721
Ba    2.587645  -2.402042  2.636171
