26
Energy: -243766.526845 eV PBE+vdW (tier 2 basis)
C    -0.044160  -0.084364  0.039718
C    0.053339  -0.100747  1.529576
O    1.175092  -0.284675  2.106705
H    0.585412  0.730711  -0.344569
H    -1.068482  0.054851  -0.319698
H    0.361617  -1.019908  -0.367012
N    -1.060112  0.091383  2.238576
C    -1.106446  0.241982  3.694129
C    -0.949994  -1.130965  4.399224
O    0.232888  -1.462516  4.735738
H    -1.976378  0.256962  1.778577
H    -0.184307  0.758155  3.996363
C    -2.275408  1.155131  4.132982
C    -3.553052  1.124113  3.307281
O    -4.577109  1.619694  3.998201
O    -3.629147  0.735652  2.149009
H    -1.924317  2.197516  4.073878
H    -2.516298  0.993570  5.191090
N    -1.951994  -1.960586  4.648343
C    -3.377514  -1.869302  4.316890
H    -1.661439  -2.803329  5.144889
H    -3.799902  -2.875254  4.393684
H    -3.522315  -1.517928  3.291314
H    -3.910153  -1.221240  5.024362
H    -5.363954  1.674085  3.414885
Ba    2.516408  -1.261997  3.850053
