26
Energy: -243765.92114 eV PBE+vdW (tier 2 basis)
C    0.261478  0.879550  0.341026
C    0.095144  0.358866  1.730179
O    1.044044  -0.261231  2.304667
H    1.149051  1.523793  0.293844
H    -0.608381  1.437865  -0.020330
H    0.445408  0.031049  -0.333544
N    -1.077944  0.556768  2.353432
C    -1.426050  -0.021895  3.649476
C    -2.594178  -1.057943  3.650892
O    -2.340444  -2.131069  4.188721
H    -1.799204  1.039144  1.823311
H    -0.596436  -0.684377  3.898980
C    -1.537441  1.008306  4.788307
C    -0.201807  1.345853  5.426598
O    -0.106204  2.401368  6.206922
O    0.812064  0.648513  5.279894
H    -2.158882  0.582128  5.595780
H    -2.041094  1.931819  4.468656
N    -3.798005  -0.742105  3.124485
C    -4.238850  0.487006  2.478317
H    -4.468168  -1.507639  3.174250
H    -5.326142  0.567317  2.579407
H    -4.008393  0.502451  1.401200
H    -3.818865  1.376962  2.965422
H    -0.944944  2.896382  6.293427
Ba    2.374441  -0.968062  4.182716
