26
Energy: -243766.573037 eV PBE+vdW (tier 2 basis)
C    -1.236811  1.975306  0.259746
C    -0.686916  2.155563  1.636079
O    0.344451  2.876624  1.833719
H    -1.464631  2.963223  -0.163645
H    -2.138494  1.355566  0.237125
H    -0.470401  1.520595  -0.382644
N    -1.307133  1.541181  2.647223
C    -1.036122  1.778408  4.073026
C    0.339525  1.200202  4.492426
O    1.355749  1.957637  4.474203
H    -2.265263  1.182388  2.476294
H    -0.939278  2.864483  4.232714
C    -2.206939  1.259143  4.936431
C    -3.581667  1.629715  4.386365
O    -4.376590  2.139829  5.323068
O    -3.903146  1.430871  3.224548
H    -2.090293  1.620042  5.963882
H    -2.221698  0.158205  4.977084
N    0.422542  -0.069403  4.853449
C    1.652652  -0.745944  5.269423
H    -0.426000  -0.628447  4.832024
H    2.138390  -1.225306  4.409357
H    1.399051  -1.513082  6.007327
H    2.333408  -0.018516  5.719467
H    -5.266426  2.295866  4.939819
Ba    2.312041  3.644850  2.968490
