26
Energy: -243766.222628 eV PBE+vdW (tier 2 basis)
C    -1.388665  -1.633026  1.670028
C    -0.257775  -0.736275  2.057340
O    0.945178  -1.075184  1.849035
H    -1.054599  -2.671925  1.772726
H    -1.653034  -1.482131  0.611366
H    -2.286899  -1.475056  2.275969
N    -0.505992  0.465144  2.634541
C    -1.552669  1.362496  2.159943
C    -1.079482  1.946504  0.781960
O    0.040064  1.567651  0.290000
H    0.336197  0.932087  2.973048
H    -2.453818  0.765227  1.957687
C    -1.885321  2.400475  3.253192
C    -3.246106  3.061559  3.091426
O    -3.701442  3.513957  4.253399
O    -3.840881  3.170141  2.026717
H    -1.130176  3.202014  3.293486
H    -1.860342  1.899270  4.229631
N    -1.888538  2.787717  0.186232
C    -1.653387  3.436653  -1.100351
H    -2.771754  2.997499  0.707366
H    -2.020191  4.466951  -1.046112
H    -2.202068  2.911865  -1.893589
H    -0.585566  3.440051  -1.333849
H    -4.560011  3.966815  4.112093
Ba    2.072762  0.218817  0.063698
