26
Energy: -243766.380596 eV PBE+vdW (tier 2 basis)
C    0.145456  -0.347398  -0.126603
C    -0.014349  -0.062736  1.328881
O    0.978003  0.084275  2.091089
H    0.842275  0.395022  -0.540109
H    -0.791632  -0.303194  -0.689598
H    0.613069  -1.332147  -0.265783
N    -1.260443  0.058270  1.874320
C    -2.401216  -0.835551  1.569014
C    -3.456024  -0.581141  2.640630
O    -3.194897  -0.903038  3.862975
H    -1.209458  0.349674  2.850250
H    -2.814119  -0.597740  0.580176
C    -1.980080  -2.345371  1.598603
C    -0.856791  -2.556276  2.607353
O    -0.997317  -2.076016  3.804811
O    0.235240  -3.055974  2.238681
H    -1.626763  -2.656065  0.610237
H    -2.841832  -2.982433  1.847909
N    -4.615715  -0.058666  2.325377
C    -5.720144  0.192838  3.259640
H    -4.759499  0.210419  1.353804
H    -6.644677  -0.201648  2.824047
H    -5.825560  1.273647  3.415826
H    -5.512316  -0.300757  4.211381
H    -2.253268  -1.433945  3.933789
Ba    1.752691  -1.691261  3.748877
