26
Energy: -243766.632008 eV PBE+vdW (tier 2 basis)
C    0.148350  -0.798653  -0.020580
C    -0.089950  -0.175499  1.315288
O    0.362424  0.975898  1.589172
H    1.226956  -0.834640  -0.221743
H    -0.298701  -0.154711  -0.791330
H    -0.269750  -1.806365  -0.112619
N    -0.810921  -0.858429  2.222299
C    -1.222846  -0.308964  3.517632
C    -0.072704  -0.415418  4.545123
O    0.823722  0.480681  4.549264
H    -1.150388  -1.779706  1.956964
H    -1.361044  0.770778  3.375246
C    -2.570689  -0.867174  3.972219
C    -3.051918  -0.070050  5.181899
O    -4.190034  -0.566126  5.670287
O    -2.449062  0.894547  5.614012
H    -2.559606  -1.943799  4.204321
H    -3.310904  -0.752422  3.165826
N    -0.017243  -1.449577  5.365607
C    1.031436  -1.642182  6.371900
H    -0.772040  -2.128426  5.339931
H    0.863453  -2.601712  6.867135
H    0.992954  -0.837446  7.116228
H    2.017967  -1.648342  5.895279
H    -4.483500  -0.014548  6.425322
Ba    1.459466  2.428011  3.217229
