26
Energy: -243766.583456 eV PBE+vdW (tier 2 basis)
C    -0.736908  0.745951  0.204390
C    -0.588221  -0.060437  1.454201
O    0.391934  0.118994  2.228604
H    -0.739603  1.813106  0.463427
H    -1.641594  0.512478  -0.366339
H    0.142134  0.574452  -0.432663
N    -1.529984  -0.993377  1.713306
C    -1.553710  -1.949585  2.832204
C    -1.828722  -1.221606  4.165107
O    -0.884098  -0.644737  4.779335
H    -2.272807  -1.085772  1.026235
H    -2.401060  -2.611489  2.629195
C    -0.262154  -2.819970  2.863269
C    0.083679  -3.317228  4.247709
O    1.329870  -2.826378  4.677178
O    -0.588650  -4.028528  4.936151
H    0.579828  -2.286742  2.413897
H    -0.435465  -3.709530  2.242662
N    -3.060840  -1.213365  4.651759
C    -4.267715  -1.859449  4.119641
H    -3.157995  -0.713433  5.535758
H    -5.095472  -1.627604  4.795225
H    -4.150897  -2.949840  4.087884
H    -4.525077  -1.470853  3.127146
H    1.540704  -3.317626  5.500217
Ba    1.469257  0.021414  4.444973
