26
Energy: -243766.453963 eV PBE+vdW (tier 2 basis)
C    0.535456  0.593261  0.174056
C    0.199121  0.163351  1.562945
O    1.099297  0.035615  2.444407
H    0.980176  1.597743  0.218022
H    -0.329996  0.616999  -0.496080
H    1.298901  -0.076713  -0.242309
N    -1.087285  -0.080813  1.869743
C    -1.549729  -0.356252  3.233653
C    -1.264938  -1.813677  3.646317
O    -0.209860  -2.021654  4.326347
H    -1.781503  0.060413  1.140147
H    -0.900588  0.242252  3.891368
C    -2.946668  0.210084  3.489943
C    -2.813298  1.670629  3.941530
O    -3.988082  2.298468  3.867523
O    -1.769166  2.155624  4.330720
H    -3.442766  -0.333593  4.308127
H    -3.623651  0.143953  2.628320
N    -2.051282  -2.826273  3.313062
C    -3.284627  -2.829226  2.522023
H    -1.745053  -3.728742  3.678491
H    -4.160539  -2.625799  3.150598
H    -3.398730  -3.822047  2.076304
H    -3.233054  -2.100398  1.708056
H    -3.885295  3.213324  4.203671
Ba    1.976158  -0.890528  4.516018
