26
Energy: -243766.396583 eV PBE+vdW (tier 2 basis)
C    -0.318544  1.120759  0.092041
C    -0.383702  0.087247  1.167207
O    0.422832  -0.892718  1.194157
H    0.681470  1.574474  0.077090
H    -1.067518  1.911532  0.205133
H    -0.464693  0.630812  -0.880933
N    -1.325159  0.206470  2.123413
C    -1.417420  -0.760836  3.210153
C    -2.750234  -0.849396  3.985405
O    -2.710514  -1.407915  5.099490
H    -1.852302  1.075898  2.168547
H    -1.319394  -1.745251  2.723224
C    -0.252663  -0.592175  4.236402
C    0.231083  -1.977602  4.599939
O    -0.523590  -2.711706  5.342921
O    1.286511  -2.432818  4.086380
H    -0.601087  -0.050224  5.124047
H    0.571010  -0.031073  3.786878
N    -3.869810  -0.371166  3.440858
C    -5.180498  -0.474910  4.093984
H    -3.851158  -0.033866  2.483777
H    -5.784876  0.393275  3.814537
H    -5.036441  -0.492295  5.177551
H    -5.693359  -1.394581  3.784933
H    -1.436125  -2.213773  5.457855
Ba    2.196791  -2.510079  1.826458
