26
Energy: -243765.612208 eV PBE+vdW (tier 2 basis)
C    0.486960  0.206593  0.218832
C    -0.004996  0.129577  1.646325
O    0.720962  0.239194  2.608212
H    0.555507  1.260991  -0.085884
H    -0.128330  -0.332362  -0.512526
H    1.505871  -0.193829  0.193519
N    -1.388019  -0.112423  1.883900
C    -2.509095  0.021269  0.981796
C    -2.691113  -1.216495  0.067371
O    -3.493574  -1.183696  -0.921893
H    -1.595528  -0.036950  2.878888
H    -3.405314  0.002126  1.624221
C    -2.529665  1.382841  0.181182
C    -3.913003  1.964844  0.018374
O    -4.320345  2.936823  0.807756
O    -4.724124  1.547092  -0.826543
H    -2.094021  1.254532  -0.816971
H    -1.890537  2.085417  0.728857
N    -2.022318  -2.295112  0.416039
C    -2.068644  -3.600332  -0.233592
H    -1.424583  -2.172749  1.238111
H    -1.046538  -3.936564  -0.442582
H    -2.627044  -3.525930  -1.169520
H    -2.551586  -4.329829  0.428840
H    -3.628674  3.252620  1.421619
Ba    -5.315932  -0.360823  -2.274052
