26
Energy: -243766.465072 eV PBE+vdW (tier 2 basis)
C    0.430178  -0.869556  0.156924
C    0.283564  -0.803052  1.641625
O    1.261327  -1.051018  2.406590
H    0.798860  -1.863036  -0.130186
H    1.195197  -0.143462  -0.152711
H    -0.498782  -0.659837  -0.383278
N    -0.913417  -0.459304  2.152893
C    -1.151515  -0.232419  3.581862
C    -1.296946  -1.581951  4.332876
O    -0.234627  -2.083726  4.821219
H    -1.662215  -0.251024  1.497314
H    -0.216935  0.172167  3.991606
C    -2.223214  0.837377  3.808919
C    -2.408904  1.052351  5.303097
O    -3.322931  1.991321  5.555924
O    -1.781826  0.425299  6.137674
H    -3.191351  0.608395  3.345474
H    -1.888888  1.782608  3.355670
N    -2.429816  -2.263712  4.412105
C    -3.770731  -1.951488  3.913303
H    -2.343594  -3.124359  4.952736
H    -4.337429  -2.886323  3.872020
H    -3.733219  -1.542485  2.898936
H    -4.296351  -1.259891  4.583927
H    -3.399628  2.111367  6.525445
Ba    2.162912  -2.020395  4.470027
