26
Energy: -243766.184233 eV PBE+vdW (tier 2 basis)
C    -0.389891  0.748051  -0.497539
C    -0.384718  0.212498  0.897336
O    0.629538  -0.379413  1.352401
H    -1.376241  1.061497  -0.848479
H    -0.033839  -0.062609  -1.149266
H    0.324563  1.575043  -0.603583
N    -1.499773  0.277414  1.685849
C    -2.340623  1.453774  2.018648
C    -2.197367  2.628810  1.056482
O    -1.145856  3.373851  1.088636
H    -1.401554  -0.330215  2.502278
H    -3.390380  1.139558  2.037660
C    -1.943584  1.916642  3.464054
C    -0.433797  1.789631  3.636408
O    0.341081  2.440928  2.823141
O    0.041506  0.960322  4.450318
H    -2.436804  1.269692  4.198220
H    -2.277570  2.947525  3.650479
N    -3.166281  2.960698  0.232158
C    -4.441103  2.277175  -0.021658
H    -3.000463  3.828030  -0.284315
H    -4.331609  1.192741  0.071602
H    -4.745081  2.503887  -1.048313
H    -5.217178  2.642226  0.663106
H    -0.434580  3.044124  1.847810
Ba    2.192398  0.427731  3.191927
