26
Energy: -243767.207462 eV PBE+vdW (tier 2 basis)
C    0.264296  0.181028  -1.164750
C    -0.283211  -0.742022  -0.119949
O    -0.188319  -1.988024  -0.244100
H    -0.193898  -0.061706  -2.132507
H    1.342467  -0.003810  -1.267567
H    0.103458  1.242125  -0.948103
N    -0.867043  -0.174045  0.959474
C    -1.438817  -0.825681  2.151611
C    -0.610819  -2.039509  2.640723
O    -0.915886  -3.223279  2.345158
H    -0.889071  0.842211  0.967942
H    -1.339611  -0.069580  2.943389
C    -2.965760  -1.074765  2.077300
C    -3.570873  -1.715546  0.846900
O    -4.715516  -1.139715  0.524554
O    -3.115612  -2.678740  0.220780
H    -3.479772  -0.117468  2.225617
H    -3.261221  -1.707194  2.931471
N    0.413471  -1.747857  3.437904
C    1.308041  -2.739173  4.036208
H    0.592430  -0.771624  3.657096
H    0.777879  -3.690071  4.136394
H    1.612848  -2.387359  5.026690
H    2.203871  -2.877553  3.416547
H    -5.138960  -1.610219  -0.225128
Ba    -1.115369  -4.267421  0.088343
