26
Energy: -243766.179723 eV PBE+vdW (tier 2 basis)
C    -1.046246  -2.719251  0.319893
C    -0.590962  -1.420738  0.903344
O    0.584362  -1.028784  0.817261
H    -0.488756  -2.896623  -0.607163
H    -2.120416  -2.757153  0.109692
H    -0.790234  -3.537737  1.010825
N    -1.518172  -0.606793  1.557541
C    -2.425862  -1.193372  2.562179
C    -3.831238  -0.641041  2.330914
O    -4.068064  -0.001617  1.219371
H    -1.055206  0.241429  1.902836
H    -2.482315  -2.274983  2.369133
C    -1.876462  -0.973917  4.002658
C    -0.347852  -1.088904  3.923778
O    0.322404  -0.004770  3.932769
O    0.175095  -2.225347  3.705881
H    -2.271023  -1.740515  4.682589
H    -2.138471  0.022683  4.378082
N    -4.803282  -0.810287  3.182776
C    -6.193996  -0.357080  3.017625
H    -4.585087  -1.314678  4.040885
H    -6.848257  -1.233987  2.941425
H    -6.279814  0.251493  2.115328
H    -6.476739  0.232663  3.896835
H    -3.214412  0.051922  0.718703
Ba    2.318005  -1.086610  2.798840
