26
Energy: -243766.439095 eV PBE+vdW (tier 2 basis)
C    -0.232913  -0.129683  0.022368
C    -0.133612  -0.076803  1.512548
O    0.988432  -0.227280  2.088102
H    -1.246455  0.041135  -0.353983
H    0.114007  -1.115124  -0.319027
H    0.444533  0.616689  -0.413342
N    -1.258173  0.132626  2.209704
C    -1.454200  0.053377  3.671564
C    -0.645602  1.113851  4.433420
O    0.562213  0.906884  4.769104
H    -2.125534  0.122850  1.677034
H    -2.517440  0.284561  3.802163
C    -1.253505  -1.362017  4.225759
C    -2.341238  -2.283097  3.670851
O    -2.173780  -3.535789  4.111939
O    -3.225431  -1.902268  2.932525
H    -1.321256  -1.358576  5.323622
H    -0.272841  -1.786337  3.970763
N    -1.245960  2.247618  4.767570
C    -2.622551  2.678166  4.485706
H    -0.666631  2.888868  5.309615
H    -2.836537  2.643736  3.411632
H    -2.722641  3.714772  4.818816
H    -3.349901  2.069538  5.037471
H    -2.898914  -4.093191  3.759736
Ba    2.620928  -0.016507  3.848339
