26
Energy: -243766.720491 eV PBE+vdW (tier 2 basis)
C    0.523824  -0.589756  0.057594
C    0.076779  -0.187486  1.422032
O    0.026070  1.022185  1.772780
H    1.553896  -0.240951  -0.098880
H    -0.100686  -0.077655  -0.686756
H    0.479675  -1.670248  -0.113876
N    -0.289161  -1.167502  2.297798
C    -0.728066  -0.764307  3.619417
C    0.433651  -0.601579  4.625679
O    0.802770  0.577668  4.889544
H    -0.235618  -2.139603  2.007575
H    -1.015296  0.263945  3.414876
C    -2.038437  -1.306975  4.187986
C    -2.757862  -0.137674  4.873566
O    -3.783332  -0.541590  5.592963
O    -2.424354  1.047353  4.749326
H    -1.945243  -2.137440  4.899371
H    -2.699540  -1.660555  3.380601
N    0.997033  -1.678939  5.154600
C    2.125500  -1.666024  6.089525
H    0.629656  -2.589568  4.889688
H    2.404026  -0.629965  6.293983
H    2.977062  -2.197470  5.648265
H    1.835902  -2.162130  7.023206
H    -4.251904  0.221903  5.993059
Ba    -0.281347  2.588365  3.798078
