26
Energy: -243766.977707 eV PBE+vdW (tier 2 basis)
C    -0.199312  0.158621  -0.332081
C    -0.542174  0.786068  0.984125
O    0.338465  1.337499  1.687190
H    -1.058959  -0.269764  -0.857829
H    0.547075  -0.629953  -0.166909
H    0.273724  0.915757  -0.971970
N    -1.839636  0.739373  1.368255
C    -2.462368  1.311251  2.572140
C    -1.801949  2.635400  3.016918
O    -0.997252  2.686206  3.984373
H    -2.478019  0.287792  0.718706
H    -3.476147  1.590212  2.249037
C    -2.711473  0.294598  3.711383
C    -1.564996  -0.526634  4.272692
O    -1.875659  -1.601325  4.979614
O    -0.372183  -0.254233  4.142920
H    -3.489698  -0.402019  3.363544
H    -3.161622  0.832117  4.563608
N    -2.159522  3.740149  2.363536
C    -3.109548  3.888371  1.256628
H    -1.736549  4.593513  2.726540
H    -3.084001  4.930900  0.927872
H    -4.135809  3.662034  1.575874
H    -2.831517  3.257920  0.404152
H    -2.836195  -1.769056  5.037316
Ba    1.290320  1.642203  3.971366
