26
Energy: -243767.098323 eV PBE+vdW (tier 2 basis)
C    -0.782379  0.077894  -0.245663
C    -0.609943  -0.203137  1.216121
O    0.413038  -0.796090  1.639666
H    -1.704778  0.614490  -0.490527
H    -0.771249  -0.878046  -0.787530
H    0.077075  0.657953  -0.605967
N    -1.604844  0.200261  2.036662
C    -1.806852  -0.001385  3.479803
C    -0.839600  0.822802  4.356492
O    0.393580  0.887355  4.114551
H    -2.371408  0.678218  1.572575
H    -2.800364  0.434013  3.644549
C    -2.004058  -1.472062  3.924609
C    -0.854820  -2.443614  4.100975
O    -1.308199  -3.685895  4.080626
O    0.330717  -2.169721  4.307334
H    -2.734481  -1.940813  3.251255
H    -2.503786  -1.461687  4.908920
N    -1.358431  1.477402  5.395031
C    -2.757112  1.584717  5.825089
H    -0.670301  1.998156  5.938090
H    -3.172473  0.609934  6.109121
H    -3.380604  2.050377  5.051081
H    -2.787051  2.228702  6.708331
H    -0.588441  -4.319360  4.285639
Ba    2.183766  -0.667463  3.356167
