26
Energy: -243766.527134 eV PBE+vdW (tier 2 basis)
C    -0.028022  0.448251  0.065453
C    -0.015661  0.017610  1.496773
O    1.071107  -0.340993  2.048675
H    0.313202  -0.392479  -0.555277
H    0.692367  1.264279  -0.077222
H    -1.013217  0.771509  -0.285275
N    -1.177566  0.022822  2.161734
C    -1.490593  -0.530161  3.496320
C    -0.797783  0.217336  4.647658
O    0.435241  0.063665  4.899250
H    -2.003544  0.230101  1.604606
H    -2.571400  -0.364045  3.591830
C    -1.283898  -2.048657  3.577052
C    -2.279855  -2.750934  2.652397
O    -2.085707  -4.075553  2.664990
O    -3.122544  -2.162089  2.009004
H    -1.450816  -2.403073  4.605128
H    -0.266397  -2.353595  3.298182
N    -1.571490  0.993879  5.392550
C    -1.133459  1.752394  6.564320
H    -2.550559  1.077069  5.129580
H    -0.954272  2.801103  6.293812
H    -0.214836  1.311903  6.959442
H    -1.918175  1.710220  7.326744
H    -2.755670  -4.496911  2.086934
Ba    2.590548  -0.497652  3.901342
