26
Energy: -243766.132034 eV PBE+vdW (tier 2 basis)
C    -0.808512  -1.104440  -0.150068
C    -0.562424  -0.297638  1.084930
O    0.512751  0.299728  1.280941
H    -1.869247  -1.224843  -0.394569
H    -0.356374  -2.101330  -0.030074
H    -0.296709  -0.618427  -0.988602
N    -1.561936  -0.197893  2.042375
C    -2.288335  -1.397212  2.477546
C    -3.780837  -1.137899  2.588374
O    -4.593924  -2.044594  3.074183
H    -1.243164  0.374985  2.830599
H    -2.166541  -2.168102  1.701057
C    -1.685010  -1.948566  3.811611
C    -0.168656  -1.712591  3.745396
O    0.300039  -0.729580  4.406222
O    0.525372  -2.399825  2.934634
H    -1.883998  -3.024426  3.912359
H    -2.090382  -1.415530  4.680422
N    -4.294954  -0.013240  2.184245
C    -5.712478  0.369714  2.213105
H    -3.618269  0.644209  1.789081
H    -6.285514  -0.363405  2.784657
H    -6.091134  0.418936  1.184610
H    -5.797020  1.358474  2.677522
H    -4.135567  -2.847393  3.387577
Ba    2.359822  -0.566110  2.925865
