26
Energy: -243766.210855 eV PBE+vdW (tier 2 basis)
C    0.703228  -0.635670  0.203550
C    0.409330  -0.539567  1.664418
O    1.312982  -0.739845  2.535950
H    1.082927  -1.642612  -0.018828
H    1.498957  0.074409  -0.058998
H    -0.169951  -0.438708  -0.427242
N    -0.840212  -0.235376  2.052255
C    -1.186405  -0.116009  3.465533
C    -2.677607  -0.175686  3.889543
O    -2.955681  0.387446  4.967546
H    -1.520055  0.004517  1.336343
H    -0.729872  -0.994384  3.953347
C    -0.560367  1.180703  4.070627
C    -0.012531  0.851252  5.440423
O    -0.848005  0.664944  6.404996
O    1.220986  0.662954  5.599898
H    -1.317184  1.971843  4.130403
H    0.259104  1.529641  3.437044
N    -3.611736  -0.833142  3.194249
C    -3.511662  -1.691321  2.013136
H    -4.530023  -0.772876  3.635156
H    -4.335218  -2.411251  2.050346
H    -2.577169  -2.261638  2.010059
H    -3.614356  -1.120628  1.078992
H    -1.801361  0.677584  5.992878
Ba    2.969926  -0.500524  4.358082
