26
Energy: -243766.549953 eV PBE+vdW (tier 2 basis)
C    0.354222  0.348689  0.371446
C    -0.070468  0.446477  1.797676
O    0.671230  0.958538  2.676738
H    1.267316  -0.259369  0.310717
H    0.616874  1.351659  0.009071
H    -0.410463  -0.083907  -0.281992
N    -1.304439  -0.032935  2.137797
C    -1.702553  0.067832  3.527384
C    -1.243802  -1.129700  4.390275
O    -0.249894  -0.941389  5.145165
H    -1.882921  -0.466074  1.423989
H    -1.030228  0.857139  3.850948
C    -3.048449  0.696201  3.900054
C    -2.792594  1.651749  5.087555
O    -3.827156  2.183404  5.706082
O    -1.657685  1.949567  5.466521
H    -3.834442  -0.024350  4.166144
H    -3.435677  1.303971  3.066368
N    -1.884499  -2.288178  4.299862
C    -1.526001  -3.506313  5.031990
H    -2.672139  -2.350931  3.659817
H    -2.391360  -3.858681  5.605001
H    -0.701515  -3.280330  5.711692
H    -1.218697  -4.287297  4.326065
H    -4.687486  1.904909  5.335804
Ba    0.978002  1.288446  5.234625
