26
Energy: -243766.467892 eV PBE+vdW (tier 2 basis)
C    -0.273979  1.545999  -0.328928
C    0.117944  0.812070  0.907451
O    1.318287  0.673785  1.251983
H    0.062493  0.936348  -1.183043
H    0.256153  2.502679  -0.396054
H    -1.352976  1.696649  -0.433610
N    -0.843121  0.222545  1.689628
C    -2.067097  0.882155  2.136894
C    -1.796328  2.380275  2.453574
O    -0.630663  2.759667  2.750588
H    -0.433367  -0.408728  2.374643
H    -2.840293  0.813049  1.359249
C    -2.612517  0.142783  3.381990
C    -1.673635  0.065307  4.584954
O    -2.157688  -0.409950  5.717354
O    -0.484649  0.393539  4.556223
H    -2.871284  -0.890945  3.095233
H    -3.557763  0.606267  3.699814
N    -2.804087  3.246525  2.407272
C    -4.217317  3.028461  2.088304
H    -2.539684  4.200249  2.656834
H    -4.805857  2.859391  2.999881
H    -4.347643  2.182685  1.406383
H    -4.601635  3.924569  1.590652
H    -3.099216  -0.667804  5.669249
Ba    1.546921  1.735432  3.572480
