26
Energy: -243766.57406 eV PBE+vdW (tier 2 basis)
C    -0.629040  0.937478  -0.608636
C    -0.398933  1.490142  0.762190
O    0.350061  2.496887  0.938263
H    -1.162305  1.697449  -1.198762
H    -1.215034  0.012496  -0.616108
H    0.331396  0.763269  -1.109110
N    -1.022436  0.894364  1.791083
C    -1.125882  1.384329  3.177518
C    0.136415  0.967523  3.978076
O    1.270499  1.336307  3.521451
H    -1.585866  0.077724  1.565432
H    -1.095315  2.485164  3.130260
C    -2.519072  0.934135  3.675817
C    -2.926703  1.386197  5.072987
O    -3.944687  2.243547  5.042925
O    -2.395093  0.976845  6.093622
H    -2.573863  -0.166261  3.679646
H    -3.259936  1.304995  2.957609
N    0.013400  0.275164  5.086980
C    1.140618  -0.152796  5.914499
H    -0.935721  0.227544  5.517147
H    1.994512  -0.411590  5.282432
H    0.829978  -1.029338  6.490830
H    1.429983  0.643901  6.613377
H    -4.209782  2.459642  5.962680
Ba    2.428808  2.936882  2.122790
