26
Energy: -243766.946022 eV PBE+vdW (tier 2 basis)
C    0.187447  -0.630202  -0.252675
C    -0.264808  0.065701  0.995183
O    0.424667  0.021046  2.043229
H    1.168058  -0.235517  -0.549756
H    -0.505850  -0.532093  -1.094374
H    0.329012  -1.695974  -0.026898
N    -1.444761  0.723959  0.932716
C    -2.202522  1.430982  1.973933
C    -1.542304  2.760907  2.407590
O    -0.298058  2.874357  2.544239
H    -1.899668  0.702288  0.024976
H    -3.126953  1.713711  1.454053
C    -2.713003  0.532101  3.134733
C    -1.805125  0.159727  4.294584
O    -2.134370  -0.904773  5.009468
O    -0.826539  0.813255  4.651722
H    -3.126588  -0.380421  2.681064
H    -3.573375  1.041777  3.602130
N    -2.346416  3.804186  2.615938
C    -3.799351  3.909469  2.448459
H    -1.854377  4.651857  2.896532
H    -4.340228  3.283820  3.169548
H    -4.106099  3.657136  1.425292
H    -4.083837  4.949180  2.632167
H    -2.931738  -1.365095  4.683460
Ba    1.438785  1.519616  3.743690
