26
Energy: -243766.787706 eV PBE+vdW (tier 2 basis)
C    0.123927  -0.394827  0.178020
C    0.048074  -0.141195  1.647486
O    1.074797  0.216033  2.304101
H    0.912375  -1.129577  -0.029785
H    0.416862  0.539144  -0.322799
H    -0.820648  -0.744930  -0.250702
N    -1.135236  -0.283197  2.262069
C    -1.362508  0.016385  3.681295
C    -0.782649  -1.115162  4.569535
O    0.386006  -0.944867  5.052660
H    -1.914098  -0.664650  1.728498
H    -0.732724  0.885128  3.915979
C    -2.811045  0.465078  3.943850
C    -3.902402  -0.479633  3.470469
O    -5.082104  0.125137  3.421075
O    -3.708920  -1.653346  3.170983
H    -2.973517  1.447112  3.478192
H    -2.952425  0.625922  5.023974
N    -1.493444  -2.205180  4.758534
C    -1.078017  -3.356433  5.555976
H    -2.389246  -2.248022  4.239708
H    -0.703900  -4.156741  4.903669
H    -1.945127  -3.732901  6.108634
H    -0.296342  -3.058452  6.259304
H    -5.770108  -0.518864  3.148705
Ba    2.489420  0.008038  4.276571
