26
Energy: -243766.208045 eV PBE+vdW (tier 2 basis)
C    -0.749374  -1.257093  -0.185537
C    -0.570168  -0.223679  0.879218
O    0.584303  0.288043  1.086199
H    -0.125156  -2.127794  0.061070
H    -0.390593  -0.865894  -1.146449
H    -1.788197  -1.583862  -0.293259
N    -1.633313  0.133395  1.589197
C    -1.702470  0.939044  2.803398
C    -2.853371  0.240404  3.613820
O    -3.631090  -0.472081  2.977768
H    -2.520969  -0.398454  1.495699
H    -0.741354  0.904009  3.331555
C    -2.129336  2.398938  2.533084
C    -1.098424  3.282773  1.871397
O    -1.500315  4.330604  1.177513
O    0.123186  3.099718  1.971545
H    -2.372577  2.891857  3.490638
H    -3.062074  2.401529  1.949405
N    -2.960203  0.473234  4.933011
C    -2.117143  1.277617  5.808251
H    -3.767235  0.016663  5.356361
H    -2.028829  0.778053  6.779271
H    -2.539281  2.279210  5.976256
H    -1.105604  1.376648  5.399119
H    -2.473566  4.420793  1.147052
Ba    2.246183  1.951971  1.343958
