26
Energy: -243765.689126 eV PBE+vdW (tier 2 basis)
C    -1.535994  1.748316  0.540449
C    -0.340527  0.986011  1.060142
O    0.792672  1.408914  1.071272
H    -1.219274  2.775148  0.338842
H    -2.370240  1.767002  1.256500
H    -1.897186  1.314830  -0.404497
N    -0.576351  -0.310890  1.591846
C    -1.789716  -1.091086  1.492262
C    -2.683093  -0.935849  2.752241
O    -3.894738  -1.336482  2.743168
H    0.299057  -0.795315  1.787145
H    -2.399302  -0.716447  0.654899
C    -1.400884  -2.562667  1.190316
C    -2.447706  -3.492147  0.617998
O    -2.062528  -4.681354  0.200317
O    -3.652318  -3.219965  0.513053
H    -0.985801  -3.048604  2.090228
H    -0.573288  -2.526507  0.462428
N    -2.129795  -0.348805  3.790870
C    -2.759629  -0.066306  5.076260
H    -1.171158  -0.026531  3.626141
H    -2.182790  -0.541344  5.878806
H    -3.780524  -0.454645  5.077901
H    -2.775394  1.017014  5.247439
H    -1.099827  -4.834999  0.279620
Ba    -5.721834  -2.399123  1.603620
