26
Energy: -243765.877955 eV PBE+vdW (tier 2 basis)
C    -0.281817  0.845451  -0.002686
C    -0.197362  0.808048  1.488285
O    0.730228  1.410587  2.107580
H    -0.841457  1.735534  -0.332186
H    -0.768292  -0.041167  -0.422918
H    0.733201  0.935174  -0.405828
N    -1.128855  0.135468  2.206588
C    -2.556818  0.195955  1.907266
C    -3.031781  1.656079  2.202937
O    -2.226924  2.498058  2.722019
H    -0.902630  0.059195  3.198999
H    -2.703841  0.003380  0.835369
C    -3.291514  -0.887825  2.720711
C    -4.717709  -1.258909  2.331431
O    -5.111776  -0.679654  1.143100
O    -5.406583  -1.997417  2.974433
H    -3.308423  -0.646534  3.793432
H    -2.716812  -1.821957  2.623547
N    -4.270691  1.969863  1.887001
C    -4.884174  3.279864  2.112952
H    -4.834398  1.227759  1.456923
H    -4.449121  4.030990  1.441678
H    -4.741005  3.593583  3.152922
H    -5.954646  3.198735  1.907663
H    -5.995140  -1.046464  0.926127
Ba    -0.016760  3.386880  3.389639
