26
Energy: -243766.014818 eV PBE+vdW (tier 2 basis)
C    -0.601243  0.908410  0.068945
C    -0.552827  0.301212  1.433661
O    0.405338  -0.468456  1.765845
H    0.322389  1.472205  -0.116751
H    -1.459694  1.571516  -0.080869
H    -0.638994  0.101836  -0.676933
N    -1.544087  0.574402  2.288120
C    -1.718708  -0.000330  3.624106
C    -3.225172  -0.367951  3.882181
O    -3.778418  0.078762  4.879720
H    -2.283684  1.188203  1.951034
H    -1.124812  -0.924495  3.654141
C    -1.275939  0.939999  4.752121
C    0.137962  0.807866  5.227094
O    0.570140  1.613530  6.175503
O    0.950012  -0.029800  4.789253
H    -1.972804  0.752606  5.596316
H    -1.462620  1.991942  4.484450
N    -3.842599  -1.167611  2.982519
C    -3.289381  -1.905463  1.853435
H    -4.820693  -1.335288  3.211692
H    -3.319110  -1.326981  0.918919
H    -3.883948  -2.813130  1.706953
H    -2.257355  -2.222751  2.049942
H    -0.122338  2.219835  6.507541
Ba    2.249174  -1.254750  3.104524
