26
Energy: -243766.312332 eV PBE+vdW (tier 2 basis)
C    1.039574  0.113221  0.349126
C    0.326457  -0.515968  1.502212
O    0.826855  -1.540488  2.082395
H    2.063527  0.375778  0.645120
H    0.533233  1.005670  -0.031331
H    1.117879  -0.625312  -0.461358
N    -0.825658  0.016280  1.891569
C    -1.813755  -0.501915  2.831375
C    -3.176007  -0.061894  2.181932
O    -3.149960  0.901795  1.417524
H    -1.265031  0.766872  1.326419
H    -1.728192  -1.594372  2.905840
C    -1.721066  0.157412  4.225103
C    -0.551910  -0.252386  5.088784
O    -0.161338  0.548954  6.061389
O    0.049458  -1.328813  4.961769
H    -2.627166  -0.096191  4.803901
H    -1.739905  1.251866  4.110140
N    -4.271151  -0.740548  2.556005
C    -5.615849  -0.410788  2.075720
H    -4.165563  -1.573548  3.125828
H    -5.584413  0.578370  1.611485
H    -6.315806  -0.399653  2.918274
H    -5.951029  -1.145754  1.333450
H    -0.682680  1.374813  6.111500
Ba    1.646484  -2.884565  3.850440
