27
Energy: -16519.0887143 eV PBE+vdW (tier 2 basis)
N    -0.984666  -1.432995  -0.171843
C    -0.367837  -0.713633  0.967160
C    1.138168  -0.997365  0.932394
O    1.659434  -1.734800  0.121218
H    -1.463592  -0.776691  -0.788764
H    -0.204277  -1.826826  -0.716820
H    -0.481152  0.376072  0.841695
C    -0.962414  -1.101105  2.336924
C    -2.411049  -0.655242  2.580113
C    -3.525368  -1.435223  1.868873
N    -3.595631  -2.848634  2.253972
C    -3.183785  -3.892516  1.516897
N    -2.462625  -3.711977  0.415490
N    -3.520283  -5.135842  1.926346
H    -0.336061  -0.635495  3.108577
H    -0.857967  -2.188456  2.481654
H    -2.527409  0.405390  2.306022
H    -2.605380  -0.698920  3.662846
H    -3.434269  -1.392800  0.778365
H    -4.495928  -0.985149  2.118987
H    -3.967739  -3.057845  3.174103
H    -2.299275  -4.505924  -0.192177
H    -4.289283  -5.288451  2.565639
H    -3.112837  -5.951952  1.490180
H    -1.930764  -2.803950  0.202888
O    1.802196  -0.336445  1.898076
H    2.750924  -0.557081  1.808284
