27
Energy: -16518.5721053 eV PBE+vdW (tier 2 basis)
N    1.875707  0.238131  3.386200
C    0.937296  0.267764  2.271647
C    1.307880  1.305921  1.204503
O    1.991178  2.283248  1.413359
H    2.203209  1.190861  3.568636
H    2.706164  -0.298550  3.137324
H    0.921446  -0.720748  1.788684
C    -0.488575  0.587642  2.783482
C    -0.975794  -0.466264  3.779245
C    -2.251389  -0.026935  4.500414
N    -2.708090  -0.982820  5.522952
C    -3.530800  -2.012566  5.320050
N    -3.911376  -2.357612  4.081354
N    -4.006085  -2.711050  6.366929
H    -1.176837  0.674198  1.929802
H    -0.458405  1.575552  3.272087
H    -0.175446  -0.639390  4.514257
H    -1.137511  -1.426715  3.260507
H    -3.086173  0.151694  3.806193
H    -2.084190  0.924385  5.022541
H    -2.274959  -0.916659  6.438580
H    -4.706250  -2.964911  3.928990
H    -4.416841  -3.627526  6.243132
H    -3.915498  -2.364740  7.313409
H    -3.441599  -1.983764  3.267378
O    0.749048  1.014186  0.001859
H    1.006889  1.729668  -0.613513
