27
Energy: -16519.0204783 eV PBE+vdW (tier 2 basis)
N    -1.616012  0.289808  2.085817
C    -0.172402  0.430334  2.346536
C    0.550750  1.100181  1.171812
O    0.066831  1.244084  0.071393
H    -1.740082  -0.270045  1.235532
H    -1.985673  1.209174  1.827375
H    -0.052330  1.092804  3.217278
C    0.492592  -0.935254  2.641680
C    -0.330132  -1.852950  3.553480
C    -0.692694  -1.224123  4.909495
N    -1.901810  -1.791282  5.508997
C    -3.147768  -1.429561  5.164487
N    -3.363022  -0.578415  4.162872
N    -4.184169  -1.938212  5.864126
H    1.486934  -0.744045  3.067208
H    0.664290  -1.464422  1.692063
H    0.225894  -2.786736  3.715726
H    -1.255757  -2.143373  3.037027
H    -0.857881  -0.142360  4.818069
H    0.118399  -1.350113  5.636585
H    -1.802580  -2.597012  6.115950
H    -4.296245  -0.202552  4.043679
H    -4.047121  -2.365521  6.770658
H    -5.136990  -1.810245  5.551165
H    -2.642379  -0.304704  3.428941
O    1.796053  1.490974  1.522728
H    2.213488  1.886991  0.731500
