27
Energy: -16519.0538508 eV PBE+vdW (tier 2 basis)
N    0.606205  -0.251782  0.587176
C    -0.080391  -0.429657  1.878690
C    0.462743  -1.734717  2.496416
O    1.157483  -2.473817  1.654310
H    1.376083  0.413307  0.647690
H    -0.020787  0.061536  -0.151706
H    0.143910  0.386103  2.583201
C    -1.617282  -0.527536  1.688441
C    -2.499285  -0.106215  2.875117
C    -2.628784  -1.056463  4.069705
N    -3.283260  -2.324982  3.711069
C    -2.911028  -3.566143  4.065070
N    -3.835633  -4.549087  4.017871
N    -1.665706  -3.846849  4.439721
H    -1.886467  -1.537794  1.341694
H    -1.870966  0.150007  0.859759
H    -3.508508  0.097568  2.482188
H    -2.146197  0.857724  3.271859
H    -3.236613  -0.568483  4.846359
H    -1.650131  -1.277523  4.502847
H    -4.203046  -2.248052  3.287375
H    -3.561744  -5.522250  4.051387
H    -4.825591  -4.342943  4.037839
H    -0.868849  -3.224300  4.204271
H    -1.456711  -4.751771  4.841945
O    0.234662  -2.072351  3.654145
H    1.189895  -1.885531  0.824565
