27
Energy: -16518.5465333 eV PBE+vdW (tier 2 basis)
N    0.604013  0.122447  0.115017
C    0.047621  0.321328  1.449055
C    1.159694  0.593379  2.461885
O    1.095119  0.352198  3.654935
H    -0.126762  0.182995  -0.592912
H    1.310525  0.822164  -0.106134
H    -0.599080  1.227876  1.531161
C    -0.814519  -0.910004  1.817442
C    -2.003010  -0.689490  2.765782
C    -1.620991  -0.542117  4.236063
N    -2.819376  -0.442591  5.083098
C    -2.815008  0.016911  6.334341
N    -1.658794  0.345415  6.927849
N    -3.968994  0.165368  7.011383
H    -0.163812  -1.713996  2.190092
H    -1.224167  -1.279574  0.867932
H    -2.673566  -1.558663  2.663863
H    -2.579027  0.194046  2.446650
H    -1.012659  0.358446  4.378714
H    -1.012088  -1.403415  4.554429
H    -3.678824  -0.855102  4.733321
H    -0.773642  0.182108  6.462984
H    -3.974836  0.308433  8.012744
H    -4.863146  0.033787  6.557415
H    -1.645071  0.876392  7.788859
O    2.227621  1.195222  1.900162
H    2.878524  1.356164  2.611632
