27
Energy: -16518.6082092 eV PBE+vdW (tier 2 basis)
N    1.214904  -1.483180  0.017386
C    0.599754  -0.410805  0.820840
C    1.647309  0.331882  1.648951
O    1.461019  0.804846  2.748672
H    0.573039  -1.752260  -0.729865
H    2.056179  -1.130174  -0.440440
H    0.171076  0.390686  0.182600
C    -0.555386  -0.935063  1.690255
C    -0.186093  -1.864053  2.856079
C    0.426400  -3.196641  2.427961
N    0.720491  -4.018053  3.613123
C    1.603409  -5.013316  3.659508
N    1.897230  -5.611428  4.829358
N    2.214851  -5.430649  2.540734
H    -1.275836  -1.434794  1.023342
H    -1.081612  -0.068843  2.111366
H    -1.105584  -2.061601  3.431589
H    0.506867  -1.341473  3.530795
H    1.352871  -3.011382  1.867826
H    -0.261884  -3.743913  1.762690
H    0.162150  -3.844992  4.443971
H    2.380865  -6.499503  4.856580
H    3.036586  -6.019225  2.584391
H    1.975714  -5.026251  1.644261
H    1.539862  -5.252259  5.704783
O    2.821618  0.453684  0.975325
H    3.412201  0.997762  1.532920
