27
Energy: -16518.9557817 eV PBE+vdW (tier 2 basis)
N    0.789368  -2.300847  0.323610
C    0.560887  -0.935253  0.855424
C    1.878699  -0.293524  1.298941
O    1.985142  0.538260  2.170017
H    -0.070517  -2.629097  -0.122960
H    1.491858  -2.251967  -0.417906
H    0.211305  -0.253499  0.055846
C    -0.508499  -0.911431  1.963299
C    -0.484065  -2.105565  2.925198
C    0.844993  -2.292384  3.676244
N    1.071787  -3.672025  4.112982
C    1.578982  -4.626526  3.319929
N    1.877083  -5.828294  3.857627
N    1.800161  -4.396103  2.025490
H    -1.499832  -0.878785  1.490553
H    -0.394598  0.034809  2.508738
H    -0.708765  -3.027986  2.370184
H    -1.300991  -1.990889  3.651078
H    0.895941  -1.651773  4.564279
H    1.706820  -2.014557  3.058123
H    0.719578  -3.955422  5.020346
H    2.103343  -6.620486  3.271721
H    2.352646  -5.064877  1.502766
H    1.402116  -3.579388  1.481867
H    1.965577  -5.949060  4.857959
O    2.923043  -0.728359  0.542302
H    3.707938  -0.213970  0.817345
