27
Energy: -16519.0285102 eV PBE+vdW (tier 2 basis)
N    1.308156  -2.150101  0.323435
C    0.854616  -0.854222  0.861771
C    2.002775  -0.272516  1.685957
O    3.106924  -0.771509  1.768890
H    0.668874  -2.458848  -0.411606
H    2.223883  -2.019344  -0.113453
H    0.694045  -0.107393  0.061998
C    -0.491542  -0.981789  1.618511
C    -0.650957  -2.254550  2.458710
C    0.402914  -2.421145  3.567413
N    0.639236  -3.816220  3.944224
C    1.485392  -4.629210  3.292312
N    1.767746  -5.834159  3.832292
N    2.041433  -4.260362  2.140930
H    -1.301719  -0.966234  0.876028
H    -0.629105  -0.080685  2.230465
H    -0.610150  -3.132357  1.798670
H    -1.656683  -2.261529  2.901502
H    0.110415  -1.883029  4.477188
H    1.376322  -2.014413  3.267190
H    0.057326  -4.228944  4.664417
H    2.258368  -6.539730  3.299526
H    2.841709  -4.778894  1.799347
H    1.712421  -3.448782  1.547423
H    1.609648  -6.018078  4.814336
O    1.653365  0.891361  2.274890
H    2.449587  1.241684  2.721635
