27
Energy: -16518.953132 eV PBE+vdW (tier 2 basis)
N    -1.712217  0.194859  0.227714
C    -0.637052  0.142606  1.227397
C    0.456298  1.146553  0.781621
O    0.038065  2.018792  -0.117271
H    -1.606997  -0.522792  -0.490424
H    -0.901047  1.710797  -0.318775
H    -1.046640  0.566841  2.159818
C    -0.046924  -1.247422  1.533545
C    0.676953  -1.296704  2.887476
C    1.686147  -2.434550  3.046759
N    2.718212  -2.558371  1.991524
C    3.756991  -1.730674  1.770959
N    4.901906  -2.252157  1.287435
N    3.665751  -0.425002  2.019932
H    0.640839  -1.527484  0.719640
H    -0.863815  -1.983324  1.522160
H    -0.058123  -1.418585  3.697548
H    1.171681  -0.339334  3.088323
H    1.168696  -3.402097  3.039518
H    2.189630  -2.342773  4.020185
H    2.800989  -3.474566  1.566013
H    5.596816  -1.663374  0.845379
H    5.118377  -3.235569  1.389108
H    4.510048  0.134784  1.974549
H    2.775086  0.094467  1.868934
O    1.601672  1.161224  1.219290
H    -2.635615  0.089581  0.643047
