27
Energy: -16518.8949395 eV PBE+vdW (tier 2 basis)
N    1.349993  -0.577124  1.124993
C    0.311350  -0.097974  2.055353
C    0.615049  -0.662461  3.455976
O    1.604626  -1.591485  3.444237
H    2.037961  0.146758  0.921108
H    0.967930  -0.888806  0.233460
H    0.334240  0.996868  2.160986
C    -1.129218  -0.474869  1.646894
C    -1.416851  -1.930496  1.233751
C    -1.141038  -3.059566  2.234714
N    -1.865629  -2.890851  3.501341
C    -1.436250  -3.216881  4.727311
N    -2.332417  -3.329839  5.725160
N    -0.145972  -3.475163  4.972996
H    -1.418347  0.166174  0.801834
H    -1.776241  -0.179862  2.484790
H    -0.861698  -2.197113  0.321155
H    -2.475048  -1.977065  0.930932
H    -0.072881  -3.141217  2.451842
H    -1.443155  -4.015594  1.779801
H    -2.830414  -2.583022  3.431365
H    -3.327146  -3.346053  5.541444
H    -2.042457  -3.242431  6.690984
H    0.586579  -3.002337  4.436684
H    0.117654  -3.778005  5.902788
O    0.001277  -0.373862  4.457479
H    1.899103  -1.573724  2.472623
