27
Energy: -16518.7465916 eV PBE+vdW (tier 2 basis)
N    0.595387  0.734588  0.125920
C    0.670076  0.234117  1.492398
C    2.116447  -0.080374  1.843475
O    2.646179  0.236230  2.905482
H    -0.331783  1.107409  -0.075312
H    0.790948  0.000613  -0.555624
H    0.402762  1.074806  2.146321
C    -0.271520  -0.966073  1.814800
C    -0.034404  -1.831426  3.067935
C    0.207958  -1.151546  4.427179
N    -0.642284  0.012469  4.705815
C    -0.208730  1.247888  4.999051
N    -1.072553  2.119870  5.560152
N    1.040225  1.630014  4.731891
H    -0.241065  -1.645219  0.950414
H    -1.290889  -0.551799  1.834487
H    0.831227  -2.492210  2.907857
H    -0.897858  -2.507130  3.155767
H    1.246801  -0.825825  4.518571
H    0.042805  -1.887538  5.227212
H    -1.640670  -0.148500  4.792040
H    -0.851308  3.105084  5.620271
H    1.389226  2.498591  5.117272
H    1.662486  1.106208  4.080673
H    -1.905956  1.801477  6.037037
O    2.754392  -0.776965  0.900206
H    3.675247  -0.927602  1.196050
