27
Energy: -16518.5841761 eV PBE+vdW (tier 2 basis)
N    -0.040625  0.088657  0.001805
C    -0.065563  0.035004  1.470328
C    1.393964  -0.025378  1.992903
O    2.292122  -0.275129  1.036798
H    -0.105177  1.044708  -0.345104
H    -0.795496  -0.446201  -0.425021
H    -0.527096  0.929582  1.918539
C    -0.826990  -1.217142  1.954790
C    -0.990277  -1.266710  3.477280
C    -1.446288  -2.634160  3.977831
N    -1.411301  -2.643658  5.448409
C    -1.959823  -3.565134  6.239780
N    -1.979139  -3.387983  7.572631
N    -2.515327  -4.667344  5.715919
H    -0.287492  -2.111335  1.600606
H    -1.816180  -1.228520  1.469220
H    -1.708046  -0.498535  3.803195
H    -0.020513  -1.016458  3.936167
H    -0.776215  -3.418650  3.587573
H    -2.473502  -2.856644  3.649106
H    -0.828412  -1.934165  5.883901
H    -2.167825  -4.157557  8.201982
H    -1.699749  -2.508260  7.987520
H    -3.089092  -5.283881  6.276632
H    -2.386848  -4.903806  4.741008
O    1.679319  0.101892  3.167473
H    1.745627  -0.301570  0.197700
