27
Energy: -16518.8004826 eV PBE+vdW (tier 2 basis)
N    -0.579528  1.079894  1.038258
C    -0.005644  -0.090869  1.664436
C    1.454203  -0.457471  1.380025
O    2.083683  -1.244079  2.083303
H    -0.076652  1.933619  1.276174
H    -0.588281  1.000798  0.021304
H    -0.018487  0.085080  2.751914
C    -0.871522  -1.342604  1.352014
C    -2.012391  -1.595465  2.339826
C    -1.600559  -2.282453  3.647503
N    -1.027285  -1.398989  4.683304
C    0.180453  -1.510055  5.260417
N    1.223662  -2.019939  4.600043
N    0.326772  -1.092370  6.534185
H    -0.239195  -2.241151  1.298942
H    -1.286232  -1.202566  0.343832
H    -2.742831  -2.265178  1.863086
H    -2.556166  -0.660856  2.547404
H    -0.871698  -3.080907  3.458482
H    -2.482561  -2.754772  4.103286
H    -1.689542  -0.798575  5.165629
H    2.056724  -2.250875  5.129835
H    -0.466497  -1.014406  7.158159
H    1.242316  -0.884811  6.912736
H    1.380892  -1.842523  3.583849
O    1.977554  0.125754  0.298657
H    2.896679  -0.195420  0.194357
