27
Energy: -16518.4140388 eV PBE+vdW (tier 2 basis)
N    1.595156  2.087004  2.689494
C    0.792282  0.892902  2.893140
C    1.170084  -0.102252  1.800796
O    1.376164  0.186781  0.646442
H    1.287889  2.855738  3.283472
H    1.549497  2.387987  1.714790
H    1.073049  0.452687  3.862217
C    -0.747526  1.133948  2.858352
C    -1.653062  -0.099746  3.000444
C    -1.448677  -0.858008  4.317763
N    -2.321947  -2.034061  4.454968
C    -3.551342  -2.045624  4.972141
N    -4.178351  -0.902450  5.285475
N    -4.173580  -3.215597  5.202271
H    -0.985954  1.631777  1.907509
H    -0.976790  1.858611  3.656415
H    -1.483822  -0.795055  2.164623
H    -2.703250  0.223117  2.910567
H    -1.604158  -0.209364  5.192982
H    -0.422777  -1.237511  4.389107
H    -1.986129  -2.901898  4.049851
H    -4.997423  -0.901341  5.879634
H    -5.171808  -3.256611  5.363113
H    -3.669245  -4.092547  5.179116
H    -3.826692  -0.008804  4.968560
O    1.205725  -1.388546  2.265591
H    1.462687  -1.943136  1.501168
