27
Energy: -16518.9140961 eV PBE+vdW (tier 2 basis)
N    -0.795613  0.988652  1.699584
C    -0.225776  -0.030574  2.566345
C    1.089988  0.450512  3.161265
O    1.501070  0.116202  4.272852
H    -1.734335  0.727178  1.400780
H    -0.231358  1.136431  0.862453
H    -0.905733  -0.138440  3.424962
C    -0.033900  -1.432406  1.902574
C    0.570973  -2.585433  2.723673
C    -0.180220  -3.004354  3.994332
N    0.095341  -2.080484  5.098894
C    -0.251113  -2.263138  6.364776
N    -1.037455  -3.288970  6.737189
N    0.203731  -1.409630  7.304782
H    0.583557  -1.293564  1.002411
H    -1.031771  -1.730226  1.544676
H    1.620971  -2.381627  2.984158
H    0.600388  -3.467030  2.068475
H    0.147151  -4.015412  4.284294
H    -1.265306  -3.043957  3.794583
H    0.642194  -1.221045  4.867997
H    -1.161354  -3.525962  7.712575
H    0.790126  -0.630326  7.030647
H    -0.224498  -1.365070  8.220005
H    -1.396526  -3.940243  6.052706
O    1.797017  1.230645  2.345066
H    2.631796  1.472578  2.795252
