27
Energy: -16518.5900355 eV PBE+vdW (tier 2 basis)
N    -0.904296  0.728171  0.410651
C    -0.424417  0.265395  1.707344
C    1.098304  0.378856  1.854311
O    1.871901  0.397881  0.922667
H    -0.211198  0.486908  -0.303320
H    -0.971443  1.745558  0.400298
H    -0.887404  0.871653  2.499981
C    -0.821338  -1.214840  1.927327
C    -2.338657  -1.396989  1.875580
C    -2.742371  -2.866916  1.833121
N    -4.202841  -2.983078  1.687909
C    -4.916526  -4.095507  1.858229
N    -4.303119  -5.270444  2.060601
N    -6.260754  -4.048943  1.844594
H    -0.415538  -1.566131  2.887042
H    -0.344974  -1.814398  1.134072
H    -2.703897  -0.881480  0.972303
H    -2.806641  -0.914175  2.748018
H    -2.443553  -3.379074  2.761035
H    -2.246673  -3.366216  0.983743
H    -4.688524  -2.157210  1.350781
H    -3.303493  -5.364658  1.938056
H    -6.754540  -3.165890  1.849419
H    -6.814924  -4.889678  1.745533
H    -4.816519  -6.084777  2.371938
O    1.478044  0.421880  3.156269
H    2.455250  0.466597  3.167802
