27
Energy: -16518.6615885 eV PBE+vdW (tier 2 basis)
N    0.360612  -0.491904  0.091246
C    0.128743  0.135050  1.381951
C    1.473548  0.515687  1.976693
O    2.535429  0.478443  1.409389
H    1.221396  -0.148794  -0.334307
H    -0.411308  -0.322373  -0.550094
H    -0.408633  1.105027  1.319757
C    -0.742186  -0.793194  2.269160
C    -0.124440  -2.176735  2.523918
C    0.696904  -2.329821  3.806100
N    -0.129472  -2.317907  5.026628
C    -0.224920  -1.352182  5.943975
N    -0.854478  -1.613084  7.107477
N    0.292004  -0.135863  5.742693
H    -1.684397  -0.923294  1.719625
H    -1.025279  -0.279378  3.200174
H    0.517876  -2.429059  1.666298
H    -0.914028  -2.942770  2.531321
H    1.469419  -1.559174  3.910770
H    1.225352  -3.292888  3.796530
H    -0.720301  -3.131080  5.170292
H    -1.160536  -0.865571  7.716300
H    0.379826  0.508434  6.517926
H    0.600851  0.187863  4.820666
H    -1.058644  -2.561223  7.394663
O    1.377422  0.994213  3.278068
H    2.274899  1.327245  3.483114
