27
Energy: -16518.5682344 eV PBE+vdW (tier 2 basis)
N    -0.354066  -0.639587  -0.100445
C    0.269713  -0.081547  1.090953
C    1.726419  0.264602  0.789993
O    2.233631  0.227216  -0.307755
H    0.229238  -0.448710  -0.917080
H    -1.273024  -0.236349  -0.265640
H    -0.188656  0.873670  1.408570
C    0.148030  -1.059885  2.286312
C    0.833121  -2.397198  1.997154
C    0.568365  -3.483807  3.031594
N    1.159999  -3.122903  4.333484
C    0.929384  -3.743198  5.489185
N    1.405396  -3.236072  6.640986
N    0.207773  -4.873035  5.519149
H    -0.926325  -1.228449  2.457370
H    0.545499  -0.573163  3.189117
H    1.922643  -2.266933  1.882817
H    0.467753  -2.762937  1.026602
H    0.999705  -4.438362  2.689308
H    -0.516130  -3.617705  3.170023
H    1.843679  -2.372100  4.329258
H    1.439426  -3.791988  7.485638
H    -0.127146  -5.260212  6.391728
H    -0.051989  -5.348192  4.664780
H    1.824424  -2.315933  6.674445
O    2.406943  0.635193  1.911910
H    3.300469  0.894879  1.611773
