27
Energy: -16518.9212442 eV PBE+vdW (tier 2 basis)
N    0.411562  -0.280539  0.249236
C    0.377769  -1.198492  1.408569
C    1.576369  -2.161219  1.516711
O    1.632397  -3.079498  2.299093
H    0.340615  -0.822337  -0.616376
H    1.324185  0.177534  0.202771
H    0.454034  -0.574007  2.316514
C    -0.934660  -1.999963  1.484676
C    -2.187469  -1.256326  1.973861
C    -2.793175  -0.222966  1.015078
N    -1.956405  0.965586  0.848351
C    -2.191662  2.172883  1.335684
N    -3.205975  2.439174  2.182127
N    -1.390455  3.198661  0.972295
H    -0.747210  -2.834310  2.172261
H    -1.130746  -2.458516  0.500157
H    -1.985099  -0.780827  2.947281
H    -2.965980  -2.010722  2.159941
H    -3.798033  0.070599  1.345578
H    -2.925841  -0.668588  0.017248
H    -0.985014  0.724075  0.482898
H    -3.770280  1.693720  2.565379
H    -1.334469  4.041049  1.529231
H    -0.706651  3.073213  0.238158
H    -3.548123  3.384457  2.296817
O    2.577672  -1.829196  0.660613
H    3.307851  -2.459921  0.821708
