27
Energy: -16518.966153 eV PBE+vdW (tier 2 basis)
N    -0.160157  1.339712  0.573427
C    -0.759463  0.850408  1.816308
C    0.203086  1.095277  2.982273
O    0.954658  0.261395  3.490277
H    0.747729  0.909980  0.391846
H    -0.040621  2.351965  0.576545
H    -1.662085  1.451417  2.002803
C    -1.138437  -0.624370  1.661296
C    -1.886214  -1.237111  2.868498
C    -1.291718  -2.560040  3.354707
N    0.077178  -2.330354  3.823907
C    0.843696  -3.203034  4.459808
N    0.462733  -4.482055  4.625014
N    2.025172  -2.797625  4.970127
H    -0.221506  -1.195147  1.442767
H    -1.750955  -0.693748  0.754715
H    -2.936567  -1.419301  2.609821
H    -1.907805  -0.536811  3.718217
H    -1.290214  -3.295619  2.532053
H    -1.901897  -2.965542  4.177198
H    0.468941  -1.382872  3.646809
H    0.962634  -5.101591  5.248639
H    2.317451  -1.835858  4.842787
H    2.740688  -3.467702  5.219393
H    -0.405041  -4.819056  4.231226
O    0.216122  2.381257  3.360293
H    0.910364  2.496885  4.039914
