27
Energy: -16518.9348287 eV PBE+vdW (tier 2 basis)
N    -0.183131  -0.258917  -0.232901
C    -0.081866  -0.148717  1.229111
C    1.419961  -0.117595  1.590420
O    2.216630  -0.477006  0.604203
H    -0.353594  0.637161  -0.686322
H    -0.908926  -0.908880  -0.530523
H    -0.522270  0.785780  1.608712
C    -0.774285  -1.362671  1.893287
C    -0.631520  -1.519453  3.412280
C    -1.569709  -0.694901  4.297739
N    -1.606808  0.777271  4.117561
C    -0.733354  1.653814  4.655330
N    -1.190996  2.852941  5.066688
N    0.553780  1.336253  4.761391
H    -0.365851  -2.267387  1.416708
H    -1.840924  -1.323717  1.617963
H    0.411814  -1.374400  3.717818
H    -0.859355  -2.565882  3.665212
H    -1.334587  -0.902879  5.351492
H    -2.605609  -1.016807  4.130065
H    -2.512520  1.164719  3.877880
H    -0.554761  3.622585  5.234573
H    -2.163225  2.989925  5.313233
H    1.161185  1.943447  5.300975
H    1.015739  0.763118  4.007909
O    1.847591  0.188812  2.700439
H    1.578005  -0.608333  -0.168055
