27
Energy: -16518.5062669 eV PBE+vdW (tier 2 basis)
N    0.624444  0.393838  3.617415
C    -0.072711  -0.387393  2.602437
C    0.714216  -0.723454  1.327979
O    0.589869  -1.750316  0.696401
H    1.342032  -0.168887  4.073787
H    1.106016  1.188879  3.194897
H    -0.336147  -1.361061  3.039364
C    -1.389022  0.333861  2.226635
C    -2.309269  -0.438930  1.279678
C    -3.621821  0.278113  0.958282
N    -4.540633  0.405587  2.104888
C    -4.757093  1.494781  2.845490
N    -3.924833  2.544419  2.794074
N    -5.838445  1.554802  3.643791
H    -1.126248  1.312498  1.783084
H    -1.882719  0.526459  3.191896
H    -2.529477  -1.434643  1.695321
H    -1.806630  -0.628911  0.320318
H    -4.172244  -0.272546  0.184150
H    -3.445591  1.285886  0.556837
H    -5.072413  -0.422797  2.353713
H    -2.971507  2.434083  2.468950
H    -6.613641  0.914533  3.527906
H    -5.889586  2.216618  4.407812
H    -4.189379  3.436926  3.190947
O    1.544583  0.288789  0.959687
H    1.998248  -0.000135  0.143264
