27
Energy: -16518.8894445 eV PBE+vdW (tier 2 basis)
N    0.217772  -1.445359  -0.382171
C    0.535996  -0.607860  0.777080
C    2.019944  -0.715701  1.120753
O    2.594007  -1.731327  1.511151
H    0.623587  -2.378121  -0.308263
H    0.564202  -1.029838  -1.246209
H    0.354428  0.433381  0.483392
C    -0.409933  -0.907251  1.959395
C    -0.408314  -2.346932  2.507906
C    0.466693  -2.519306  3.758303
N    0.678545  -3.922751  4.129777
C    1.648134  -4.705187  3.637247
N    1.765666  -5.968073  4.095732
N    2.490956  -4.255577  2.707532
H    -1.412790  -0.674878  1.579682
H    -0.214707  -0.187637  2.770646
H    -0.088549  -3.054881  1.729596
H    -1.436781  -2.639183  2.761423
H    0.001069  -2.029857  4.623490
H    1.451478  -2.053636  3.632362
H    -0.048790  -4.378194  4.670232
H    2.402166  -6.623870  3.663386
H    3.328395  -4.782444  2.494285
H    2.398786  -3.327348  2.262229
H    1.283317  -6.271671  4.930936
O    2.685157  0.424441  0.888242
H    3.634564  0.269057  1.072867
