27
Energy: -16519.1037335 eV PBE+vdW (tier 2 basis)
N    0.978940  0.048979  0.778062
C    0.302962  -0.179776  2.065178
C    1.332482  -0.818180  3.025637
O    2.569660  -0.794296  2.571398
H    0.759770  0.960166  0.380766
H    0.748478  -0.658682  0.080371
H    0.105347  0.809125  2.509533
C    -1.043726  -0.926949  2.001921
C    -0.995489  -2.398885  1.549491
C    -0.838098  -3.451072  2.658113
N    -1.983525  -3.495874  3.575596
C    -1.998148  -3.155258  4.874626
N    -3.056455  -3.538268  5.621702
N    -1.019267  -2.444392  5.423453
H    -1.681378  -0.360597  1.309324
H    -1.541111  -0.846486  2.979464
H    -0.178334  -2.568982  0.829991
H    -1.914045  -2.629163  0.989376
H    0.068283  -3.294469  3.251327
H    -0.748625  -4.446917  2.201750
H    -2.855337  -3.852002  3.197446
H    -3.649447  -4.306652  5.337212
H    -3.200370  -3.158919  6.548117
H    -0.279093  -1.960711  4.867455
H    -0.952301  -2.386495  6.432129
O    1.047439  -1.278605  4.126729
H    2.464387  -0.379640  1.653833
