27
Energy: -16518.5007032 eV PBE+vdW (tier 2 basis)
N    0.070826  -0.266944  -0.165965
C    -0.111213  -0.170077  1.274492
C    0.895403  0.680122  2.067128
O    0.695498  1.095750  3.190630
H    -0.081875  0.637810  -0.610844
H    1.026904  -0.541087  -0.396559
H    -1.089143  0.300003  1.460453
C    -0.148561  -1.595042  1.882625
C    -0.739411  -1.666299  3.294000
C    -0.701941  -3.061286  3.913314
N    -1.522640  -4.004873  3.135436
C    -1.956366  -5.191424  3.557175
N    -1.527751  -5.698229  4.722472
N    -2.841886  -5.889285  2.823178
H    0.868171  -2.022523  1.873398
H    -0.737691  -2.181152  1.157158
H    -1.777273  -1.297702  3.292433
H    -0.185398  -0.995676  3.964719
H    -1.102391  -3.020774  4.936788
H    0.337277  -3.428643  3.957494
H    -1.706356  -3.752817  2.168502
H    -1.987578  -6.490931  5.151298
H    -3.312570  -5.469523  2.032055
H    -3.011422  -6.871363  2.997677
H    -0.761450  -5.271842  5.226556
O    2.051104  0.887520  1.389501
H    2.627859  1.418301  1.974413
