27
Energy: -16518.8017058 eV PBE+vdW (tier 2 basis)
N    0.205797  -0.022056  -0.102501
C    0.216707  -0.432521  1.303122
C    1.483739  -1.228575  1.602796
O    1.541721  -2.274994  2.236902
H    1.085923  0.423195  -0.361139
H    -0.531127  0.666333  -0.257966
H    0.277366  0.422474  2.013168
C    -1.045372  -1.228948  1.656736
C    -1.242499  -2.484226  0.801140
C    -2.326729  -3.434602  1.306785
N    -2.278561  -3.809343  2.742300
C    -1.324903  -4.497014  3.390953
N    -1.685920  -5.260582  4.442476
N    -0.042420  -4.439573  3.027035
H    -1.912879  -0.559729  1.548508
H    -0.998747  -1.483999  2.725749
H    -0.296517  -3.029441  0.688366
H    -1.521943  -2.200588  -0.222423
H    -2.321715  -4.355989  0.706066
H    -3.314808  -2.973632  1.184345
H    -3.161403  -3.738476  3.235655
H    -2.639229  -5.579371  4.559126
H    0.379687  -3.593539  2.605283
H    0.609362  -5.093447  3.444835
H    -1.006877  -5.551581  5.134423
O    2.579899  -0.622399  1.126285
H    3.357714  -1.165151  1.365924
