27
Energy: -16518.927294 eV PBE+vdW (tier 2 basis)
N    -0.214647  -0.075430  -0.274997
C    -0.032483  -0.068697  1.182118
C    1.487890  -0.039400  1.466183
O    1.985764  -0.341644  2.544886
H    1.541287  0.466709  -0.299990
H    -1.042708  0.440321  -0.565602
H    -0.391232  0.910894  1.538918
C    -0.740527  -1.152416  2.011336
C    -0.163669  -2.560801  1.826391
C    -0.550379  -3.556105  2.924499
N    -0.380138  -3.107481  4.326280
C    0.770637  -2.868387  4.985091
N    1.838033  -2.364015  4.368452
N    0.820642  -3.146842  6.302875
H    -1.813871  -1.136435  1.772426
H    -0.659851  -0.857513  3.067520
H    0.931390  -2.520501  1.750332
H    -0.506797  -3.008015  0.880945
H    0.008446  -4.492753  2.783481
H    -1.616995  -3.800681  2.847265
H    -1.188618  -3.245626  4.922052
H    2.721436  -2.352824  4.866474
H    1.759648  -1.672961  3.591594
H    1.525479  -2.728929  6.897677
H    0.179609  -3.804820  6.727822
O    2.214359  0.369401  0.441012
H    -0.278190  -1.017337  -0.661503
