27
Energy: -16519.0652527 eV PBE+vdW (tier 2 basis)
N    -1.771961  1.462661  3.433440
C    -0.504940  1.358874  2.683098
C    -0.798715  0.606196  1.385564
O    -1.884204  0.151660  1.084370
H    -2.493644  1.849900  2.820587
H    -1.658663  2.127303  4.201213
H    -0.120171  2.348836  2.378191
C    0.605102  0.670019  3.506194
C    0.307749  -0.781235  3.916467
C    -0.537885  -0.912681  5.203879
N    -1.427297  -2.076770  5.208280
C    -2.548348  -2.158141  4.474772
N    -3.005474  -1.097253  3.815496
N    -3.207065  -3.335431  4.407309
H    0.815691  1.286718  4.394485
H    1.520966  0.697365  2.903122
H    1.253843  -1.319569  4.057684
H    -0.205910  -1.299386  3.092896
H    -1.148541  -0.016789  5.370705
H    0.107007  -1.009516  6.084579
H    -1.160811  -2.884513  5.757533
H    -3.721413  -1.232142  3.111169
H    -2.877222  -4.149874  4.907736
H    -4.153925  -3.372057  4.053334
H    -2.500395  -0.171845  3.769492
O    0.299556  0.519578  0.608053
H    0.041669  0.058094  -0.214650
