27
Energy: -16518.9701514 eV PBE+vdW (tier 2 basis)
N    0.539244  -0.320540  -0.313365
C    -0.563231  -0.033457  0.580570
C    -0.271577  0.838115  1.806314
O    -1.116308  1.511399  2.392625
H    0.948846  0.527118  -0.702794
H    1.284637  -0.838284  0.151980
H    -1.309242  0.540048  0.008116
C    -1.201932  -1.374753  1.030911
C    -2.427677  -1.288128  1.946929
C    -3.619792  -0.570137  1.298070
N    -4.700153  -0.263660  2.238983
C    -4.808855  0.875534  2.937149
N    -5.934889  1.098145  3.645889
N    -3.837148  1.786974  2.927941
H    -0.427691  -1.970902  1.536865
H    -1.444271  -1.912640  0.103142
H    -2.168854  -0.783686  2.889199
H    -2.730705  -2.308513  2.223316
H    -4.052511  -1.182157  0.495700
H    -3.317224  0.377618  0.834803
H    -5.359430  -1.002431  2.458169
H    -5.985979  1.848562  4.321713
H    -4.012476  2.705356  3.316073
H    -2.868618  1.592049  2.616624
H    -6.781404  0.574645  3.466121
O    1.004645  0.794268  2.208365
H    1.091205  1.362828  3.000209
