27
Energy: -16518.7676193 eV PBE+vdW (tier 2 basis)
N    0.501778  -1.773671  0.260031
C    0.108495  -0.677333  1.121816
C    1.316919  0.091935  1.651863
O    1.226193  1.116589  2.329660
H    0.970522  -2.523790  0.767155
H    -0.301723  -2.169346  -0.224542
H    -0.397716  0.055920  0.470028
C    -0.854494  -1.006431  2.322981
C    -2.217896  -0.296495  2.299642
C    -2.157062  1.239781  2.275676
N    -1.245909  1.802754  3.270431
C    -1.553332  2.260300  4.474111
N    -2.795011  2.161352  4.986124
N    -0.599818  2.860835  5.215951
H    -0.352610  -0.807307  3.281172
H    -1.032822  -2.089039  2.299617
H    -2.794403  -0.631900  3.175596
H    -2.794785  -0.611562  1.416235
H    -3.158184  1.678069  2.389277
H    -1.791335  1.594950  1.302138
H    -0.241992  1.686835  3.015294
H    -3.083979  2.752525  5.754803
H    -0.704409  2.953792  6.217875
H    0.327773  2.992576  4.832020
H    -3.522481  1.673770  4.481614
O    2.493775  -0.445553  1.338919
H    3.192831  0.121178  1.724581
