27
Energy: -16518.8677755 eV PBE+vdW (tier 2 basis)
N    -0.941753  0.615973  0.274711
C    -0.809295  0.070066  1.613567
C    0.359450  0.599654  2.454445
O    0.374756  0.635007  3.685774
H    -0.135946  0.384285  -0.307465
H    -1.023762  1.632541  0.284040
H    -1.715112  0.352768  2.172531
C    -0.732962  -1.488697  1.539926
C    -1.671888  -2.284284  2.458681
C    -1.302436  -2.342649  3.948347
N    -1.481386  -1.080118  4.664749
C    -2.518415  -0.732614  5.412360
N    -3.625399  -1.492583  5.512488
N    -2.467414  0.420785  6.111000
H    0.304370  -1.831668  1.677852
H    -1.003499  -1.733093  0.504072
H    -1.679675  -3.324612  2.100337
H    -2.703863  -1.915059  2.343434
H    -0.245022  -2.621349  4.063884
H    -1.875366  -3.130384  4.457244
H    -0.777050  -0.342808  4.437982
H    -4.270740  -1.365609  6.281326
H    -3.312799  0.862770  6.447443
H    -1.622260  0.978301  6.101159
H    -3.728986  -2.329973  4.956238
O    1.397424  1.021096  1.725821
H    2.101025  1.312252  2.341053
