27
Energy: -16518.5778121 eV PBE+vdW (tier 2 basis)
N    0.518133  -0.709477  -0.026951
C    -0.262875  -0.177293  1.088205
C    0.602674  0.745967  1.949831
O    0.768520  1.925432  1.773001
H    1.335754  -1.231019  0.290963
H    0.837490  0.032270  -0.649583
H    -1.035031  0.479589  0.662480
C    -0.927779  -1.319378  1.860200
C    -1.804601  -0.844384  3.037170
C    -1.673406  -1.712711  4.286913
N    -0.282741  -1.672172  4.763400
C    0.223148  -2.427064  5.732063
N    -0.576792  -3.167479  6.515429
N    1.554818  -2.465689  5.929047
H    -0.141017  -2.006376  2.210695
H    -1.522403  -1.895809  1.140685
H    -2.862742  -0.829669  2.747559
H    -1.563515  0.194269  3.315613
H    -1.946730  -2.756684  4.063224
H    -2.348400  -1.336565  5.072170
H    0.355855  -1.054435  4.247884
H    -0.198957  -3.856715  7.152014
H    2.184332  -2.020018  5.274469
H    1.951391  -2.824524  6.787626
H    -1.582460  -3.070366  6.473549
O    1.312941  0.074540  2.958368
H    1.909368  0.761460  3.320045
