27
Energy: -16518.57108 eV PBE+vdW (tier 2 basis)
N    -1.012374  1.076945  2.834616
C    -0.417337  0.219835  3.849645
C    0.950576  0.719296  4.329984
O    1.674826  1.448425  3.690212
H    -1.482255  1.872151  3.265557
H    -0.270208  1.468241  2.248569
H    -1.085684  0.176398  4.722530
C    -0.243683  -1.217148  3.295420
C    -1.592659  -1.825335  2.905836
C    -1.500576  -3.088059  2.057457
N    -0.872902  -4.191998  2.807519
C    -0.373301  -5.307490  2.277091
N    -0.541482  -5.574594  0.974013
N    0.317850  -6.172814  3.041093
H    0.409420  -1.161275  2.408690
H    0.283800  -1.828624  4.043171
H    -2.205446  -2.025224  3.801092
H    -2.144264  -1.075013  2.320858
H    -0.887856  -2.891034  1.164038
H    -2.507104  -3.396031  1.731633
H    -0.889900  -4.122345  3.820274
H    -0.012436  -6.304842  0.515104
H    0.607756  -5.928425  3.978983
H    0.504611  -7.116814  2.728435
H    -1.172801  -5.025166  0.405874
O    1.272320  0.216410  5.551195
H    2.157066  0.567257  5.777422
