27
Energy: -16518.5594162 eV PBE+vdW (tier 2 basis)
N    0.097967  -0.401897  -0.325502
C    -0.345978  -0.069052  1.017600
C    0.698701  0.460915  2.011143
O    0.437471  1.246864  2.902332
H    0.803070  -1.139871  -0.308084
H    0.524469  0.402581  -0.784539
H    -1.064655  0.761877  0.926376
C    -1.062845  -1.301658  1.619102
C    -1.638421  -1.157985  3.034183
C    -2.600932  0.019541  3.239901
N    -3.744314  0.039252  2.311945
C    -4.905394  -0.592080  2.485314
N    -5.074561  -1.458647  3.494813
N    -5.934151  -0.354765  1.651379
H    -0.353950  -2.143301  1.622265
H    -1.849778  -1.579405  0.902050
H    -0.833697  -1.025876  3.771691
H    -2.129913  -2.109126  3.295626
H    -2.066876  0.968113  3.103578
H    -2.992961  0.036869  4.266604
H    -3.615407  0.523653  1.429786
H    -5.999487  -1.752121  3.781541
H    -6.729978  -0.978218  1.609421
H    -5.912856  0.417161  0.997696
H    -4.290108  -1.766077  4.054246
O    1.928035  -0.063505  1.810433
H    2.518378  0.314329  2.492717
