27
Energy: -16518.5792593 eV PBE+vdW (tier 2 basis)
N    -0.031721  0.639774  -0.061239
C    0.316906  0.533069  1.347407
C    1.825838  0.434300  1.616859
O    2.649428  0.074707  0.808972
H    0.371437  -0.146247  -0.577317
H    0.394263  1.473546  -0.467870
H    -0.031515  1.446717  1.857544
C    -0.370091  -0.692560  1.992651
C    -1.868444  -0.816738  1.680714
C    -2.696121  0.441979  1.926192
N    -2.621912  0.871015  3.332845
C    -2.837746  2.106959  3.781153
N    -3.315290  3.054058  2.961109
N    -2.565837  2.421440  5.060803
H    -0.186546  -0.661296  3.076702
H    0.124750  -1.608418  1.635132
H    -2.291353  -1.660381  2.249083
H    -2.007432  -1.062590  0.620374
H    -3.746744  0.256981  1.653488
H    -2.307577  1.251384  1.290910
H    -2.457762  0.147779  4.026452
H    -3.298074  4.031526  3.221687
H    -2.936058  3.261720  5.485764
H    -2.034761  1.795867  5.652586
H    -3.674894  2.817098  2.045638
O    2.123536  0.787985  2.898950
H    3.089080  0.672733  3.005689
