27
Energy: -16518.5841338 eV PBE+vdW (tier 2 basis)
N    0.046957  0.558096  2.435648
C    1.188619  -0.302663  2.151809
C    2.053408  0.189212  0.981843
O    1.656413  0.910540  0.095200
H    -0.448534  0.758110  1.562312
H    0.371130  1.466216  2.770622
H    1.836182  -0.324858  3.042169
C    0.724548  -1.744269  1.826074
C    -0.339999  -2.294747  2.781649
C    0.097031  -2.301939  4.243769
N    -0.975166  -2.871471  5.075643
C    -0.874057  -3.177954  6.368146
N    -1.875954  -3.820367  6.995161
N    0.235243  -2.864536  7.052921
H    1.603562  -2.404062  1.801276
H    0.299086  -1.758317  0.811267
H    -0.592752  -3.320334  2.471752
H    -1.247252  -1.678280  2.697102
H    0.300227  -1.268731  4.568187
H    1.005537  -2.910616  4.374987
H    -1.889730  -2.953916  4.641951
H    -1.919452  -3.867759  8.004833
H    0.944872  -2.268697  6.647397
H    0.407368  -3.239198  7.976721
H    -2.659082  -4.199814  6.479228
O    3.314685  -0.309249  1.051492
H    3.794765  0.014375  0.262908
