27
Energy: -16518.8383544 eV PBE+vdW (tier 2 basis)
N    0.727006  -0.217473  0.752824
C    -0.249984  -0.522326  1.810229
C    0.386874  -1.582158  2.746325
O    1.684438  -1.763741  2.539228
H    0.743400  0.770443  0.507650
H    0.547604  -0.747858  -0.100440
H    -0.343428  0.384462  2.430919
C    -1.658653  -0.938507  1.314937
C    -2.857204  -0.445781  2.143225
C    -3.043358  -1.036655  3.543372
N    -3.312765  -2.478150  3.485888
C    -2.823441  -3.404373  4.312442
N    -2.868037  -4.700745  3.958092
N    -2.345722  -3.085088  5.524699
H    -1.694880  -2.032374  1.196361
H    -1.782496  -0.517667  0.307324
H    -3.777997  -0.617566  1.561926
H    -2.795389  0.646530  2.265066
H    -3.876412  -0.526755  4.049858
H    -2.127083  -0.900480  4.130511
H    -3.897647  -2.808169  2.724226
H    -2.716845  -5.429898  4.643118
H    -2.960403  -4.976963  2.989838
H    -2.337545  -2.111638  5.802894
H    -1.593174  -3.646026  5.909237
O    -0.240923  -2.180172  3.605191
H    1.883062  -1.152872  1.763060
