27
Energy: -16519.1374005 eV PBE+vdW (tier 2 basis)
N    0.357003  -0.250522  0.004401
C    0.390041  -0.325877  1.472684
C    1.825559  -0.736616  1.880005
O    2.713218  -0.590814  0.917384
H    -0.209827  0.525754  -0.331185
H    0.001633  -1.105381  -0.424758
H    0.297089  0.706774  1.848187
C    -0.702238  -1.161489  2.163617
C    -0.643994  -2.690972  1.911177
C    -0.568864  -3.527235  3.195030
N    0.655456  -3.197429  3.923768
C    1.371882  -4.001106  4.697937
N    2.642729  -3.658491  4.984608
N    0.871227  -5.153025  5.179952
H    -1.673467  -0.765173  1.840122
H    -0.651022  -0.949924  3.241764
H    0.219888  -2.956754  1.280636
H    -1.532736  -3.020729  1.358520
H    -0.566809  -4.597380  2.939315
H    -1.452149  -3.331009  3.825051
H    1.117337  -2.298283  3.668455
H    3.115913  -4.033286  5.796323
H    3.043555  -2.837752  4.539325
H    1.466483  -5.833648  5.632749
H    -0.117955  -5.353798  5.128776
O    2.128358  -1.135153  3.003291
H    2.146670  -0.310129  0.127640
