27
Energy: -16518.5509804 eV PBE+vdW (tier 2 basis)
N    -0.251984  -0.471952  -0.454045
C    0.160744  -0.363385  0.946339
C    1.666996  -0.488365  1.253100
O    2.131802  -0.424164  2.369246
H    0.125777  0.306488  -0.994795
H    0.149549  -1.313151  -0.873191
H    -0.098100  0.653341  1.287520
C    -0.599133  -1.357139  1.847250
C    -2.104753  -1.084034  1.976512
C    -2.916031  -1.508131  0.744654
N    -4.349141  -1.190499  0.849149
C    -5.288253  -1.959765  1.398831
N    -6.588779  -1.636872  1.270778
N    -4.960362  -3.073458  2.070924
H    -0.145217  -1.309008  2.844895
H    -0.426503  -2.383289  1.479669
H    -2.270168  -0.010667  2.160303
H    -2.481865  -1.601454  2.874016
H    -2.817008  -2.586160  0.546785
H    -2.524859  -0.994861  -0.142940
H    -4.639565  -0.273007  0.527319
H    -6.889677  -0.918315  0.625297
H    -3.999054  -3.268772  2.316823
H    -5.653103  -3.780270  2.280715
H    -7.292078  -2.046506  1.871870
O    2.414238  -0.670126  0.134687
H    3.345573  -0.721412  0.429076
