27
Energy: -16518.6109775 eV PBE+vdW (tier 2 basis)
N    -0.793364  1.073927  1.382690
C    -0.154409  -0.043999  2.043671
C    1.333267  -0.221919  1.728063
O    1.918924  0.136714  0.743679
H    -0.682448  1.009623  0.369162
H    -0.385801  1.964364  1.668120
H    -0.224363  0.138329  3.126741
C    -0.913224  -1.362964  1.699360
C    -1.937782  -1.790625  2.762084
C    -1.364448  -2.727193  3.835352
N    -0.143608  -2.212219  4.475131
C    -0.066412  -1.425289  5.550926
N    -1.049070  -1.383537  6.462960
N    1.024549  -0.657484  5.712023
H    -0.208769  -2.186683  1.501485
H    -1.427982  -1.182689  0.747422
H    -2.765295  -2.335346  2.285567
H    -2.385030  -0.897696  3.224235
H    -1.088520  -3.692771  3.390851
H    -2.117678  -2.952543  4.600910
H    0.690972  -2.200901  3.888005
H    -1.043370  -0.697614  7.206143
H    1.677542  -0.556416  4.938555
H    1.277144  -0.275378  6.614243
H    -1.789224  -2.072355  6.466842
O    1.991470  -0.910786  2.759000
H    2.910481  -1.038015  2.446331
