27
Energy: -16518.7934128 eV PBE+vdW (tier 2 basis)
N    -1.301417  1.081196  3.215835
C    -0.195852  0.195205  2.803863
C    0.929294  1.023856  2.157255
O    0.886527  2.228225  2.038043
H    -0.901701  2.021778  3.325286
H    -1.950306  1.181703  2.429893
H    0.276852  -0.227640  3.710522
C    -0.634593  -0.958105  1.876514
C    -1.816237  -1.843186  2.313666
C    -1.673646  -2.602557  3.640658
N    -1.794280  -1.712962  4.813689
C    -2.961086  -1.139857  5.195045
N    -4.042411  -1.907460  5.397063
N    -2.974989  0.181143  5.358243
H    0.246519  -1.590785  1.704250
H    -0.888258  -0.526861  0.894907
H    -1.961727  -2.592724  1.521571
H    -2.752803  -1.263340  2.341525
H    -0.701517  -3.106254  3.720102
H    -2.436738  -3.387112  3.709418
H    -1.007648  -1.081880  4.933098
H    -4.960317  -1.500416  5.523222
H    -3.732346  0.647878  5.845011
H    -2.335408  0.710491  4.706574
H    -3.941283  -2.902764  5.553981
O    1.969375  0.251125  1.784024
H    2.655997  0.840304  1.411741
