27
Energy: -16518.9632524 eV PBE+vdW (tier 2 basis)
N    0.631489  -0.713647  3.207912
C    -0.028235  -0.094107  2.033998
C    0.757879  1.151774  1.608836
O    1.539550  1.725639  2.337093
H    1.359900  -1.356381  2.890125
H    1.139239  0.044360  3.683510
H    -0.022099  -0.803674  1.193808
C    -1.487455  0.317239  2.349074
C    -2.540009  -0.805446  2.296488
C    -2.192661  -2.093554  3.062252
N    -1.587654  -1.843476  4.368448
C    -2.210843  -1.775436  5.532693
N    -3.552178  -1.856323  5.641726
N    -1.491009  -1.634048  6.666602
H    -1.799237  1.090412  1.634710
H    -1.490567  0.801729  3.338079
H    -2.727816  -1.090224  1.250646
H    -3.487208  -0.388806  2.671877
H    -1.452369  -2.679006  2.499720
H    -3.070198  -2.746637  3.163889
H    -0.607060  -1.457908  4.238230
H    -3.982846  -2.113640  6.520664
H    -1.918805  -1.283724  7.513688
H    -0.480626  -1.662523  6.631841
H    -4.132734  -1.899425  4.815504
O    0.450427  1.538315  0.354936
H    0.959127  2.351518  0.161651
