27
Energy: -16518.8140885 eV PBE+vdW (tier 2 basis)
N    0.538158  -0.493937  0.216261
C    -0.116259  -0.096777  1.450151
C    0.795113  0.413079  2.568513
O    0.536299  1.397084  3.259466
H    1.176853  -1.276438  0.359695
H    1.068013  0.269596  -0.202075
H    -0.754853  0.764977  1.209051
C    -1.014896  -1.262897  1.929853
C    -1.561543  -1.273858  3.367185
C    -2.262059  -0.020129  3.920487
N    -3.152574  0.663496  2.974958
C    -3.059213  1.946385  2.596483
N    -4.122483  2.526235  2.002389
N    -1.941466  2.649918  2.785084
H    -0.439604  -2.192093  1.804410
H    -1.836018  -1.324832  1.202594
H    -0.754650  -1.505032  4.079461
H    -2.253264  -2.126271  3.432944
H    -1.530826  0.713360  4.268494
H    -2.858572  -0.303476  4.799626
H    -3.964831  0.151858  2.645268
H    -5.050055  2.129949  2.078100
H    -1.024902  2.203892  2.995353
H    -1.960136  3.655141  2.667813
H    -4.029034  3.402253  1.505526
O    1.907963  -0.309568  2.737398
H    2.427820  0.092170  3.463004
