27
Energy: -16518.6137265 eV PBE+vdW (tier 2 basis)
N    1.379639  1.415775  2.897212
C    0.735038  0.185806  2.423800
C    0.315384  0.293619  0.952710
O    -0.810330  0.547408  0.569318
H    0.846844  2.240644  2.614945
H    2.315407  1.513217  2.504421
H    1.472812  -0.625280  2.512331
C    -0.497366  -0.135388  3.277449
C    -0.184203  -0.353018  4.755914
C    -1.426519  -0.434515  5.642974
N    -2.278777  -1.617024  5.404499
C    -3.400631  -1.669763  4.681254
N    -3.715758  -0.697059  3.815479
N    -4.242372  -2.708898  4.836218
H    -0.990869  -1.018100  2.841410
H    -1.191074  0.718144  3.160766
H    0.427282  0.485996  5.118502
H    0.425332  -1.260402  4.891428
H    -2.057909  0.457613  5.526374
H    -1.137680  -0.478703  6.701117
H    -1.997006  -2.479322  5.859903
H    -4.644455  -0.640230  3.417101
H    -4.938941  -2.927675  4.135367
H    -4.192997  -3.308830  5.649690
H    -2.996160  -0.098684  3.422295
O    1.373761  0.133907  0.124434
H    1.055548  0.285762  -0.787908
