27
Energy: -16518.9264332 eV PBE+vdW (tier 2 basis)
N    -0.916680  -1.148857  1.396622
C    0.098796  -1.012560  2.464710
C    0.535039  0.424654  2.779819
O    1.053979  0.751936  3.819870
H    -1.751045  -0.623480  1.670826
H    -0.580213  -0.670346  0.555629
H    -0.350930  -1.389720  3.395030
C    1.362328  -1.850310  2.182571
C    1.078534  -3.351980  2.026007
C    0.788508  -3.773588  0.571004
N    -0.094681  -4.935107  0.457342
C    -1.432088  -4.860571  0.532336
N    -2.038860  -3.693797  0.744292
N    -2.155324  -5.990783  0.386773
H    2.046849  -1.687150  3.024230
H    1.879460  -1.457889  1.291149
H    0.224991  -3.628194  2.663509
H    1.932270  -3.931785  2.400850
H    1.717556  -4.024481  0.045062
H    0.327739  -2.956344  0.002922
H    0.323703  -5.857931  0.489556
H    -3.045864  -3.646690  0.646924
H    -1.742256  -6.833690  0.010017
H    -3.157549  -5.988837  0.519256
H    -1.539758  -2.791386  0.996099
O    0.303286  1.271086  1.740156
H    0.638209  2.149798  2.009440
