27
Energy: -16518.7013011 eV PBE+vdW (tier 2 basis)
N    -1.229661  1.034995  3.007707
C    -0.076572  0.140648  2.773653
C    1.138791  0.784441  2.082065
O    2.221293  0.252094  2.025315
H    -0.880843  1.977827  3.198114
H    -1.762628  1.129983  2.138911
H    0.333490  -0.160343  3.753316
C    -0.439523  -1.124256  1.961868
C    -1.590907  -2.020942  2.446926
C    -1.470429  -2.614533  3.857362
N    -1.735807  -1.607878  4.907202
C    -2.964797  -1.078906  5.117929
N    -4.006229  -1.892191  5.344521
N    -3.081331  0.247556  5.092646
H    0.481269  -1.719400  1.889345
H    -0.673614  -0.808957  0.932213
H    -1.655665  -2.861235  1.739828
H    -2.557224  -1.497241  2.368456
H    -0.468011  -3.018717  4.048197
H    -2.171395  -3.448926  3.979502
H    -1.002849  -0.911089  5.000407
H    -4.957452  -1.546731  5.336714
H    -3.907077  0.715731  5.449466
H    -2.426740  0.733280  4.428067
H    -3.852609  -2.849154  5.638258
O    0.850129  1.998799  1.549345
H    1.670390  2.328144  1.129666
