27
Energy: -16518.4287494 eV PBE+vdW (tier 2 basis)
N    0.638426  0.417239  0.149555
C    0.533997  0.040785  1.549655
C    1.948020  -0.211428  2.061942
O    2.813793  -0.783233  1.444009
H    -0.272037  0.422860  -0.308224
H    1.248505  -0.232395  -0.349273
H    0.122365  0.897656  2.105878
C    -0.345063  -1.217588  1.816076
C    -0.453613  -1.708846  3.267795
C    -0.997935  -0.655938  4.232979
N    -1.185293  -1.251050  5.566270
C    -1.658683  -0.611835  6.636261
N    -1.895873  0.706162  6.582746
N    -1.914798  -1.284620  7.771792
H    0.052052  -2.039325  1.203309
H    -1.351538  -0.995861  1.427472
H    0.531644  -2.045796  3.626663
H    -1.119554  -2.586334  3.284078
H    -1.966500  -0.271413  3.875156
H    -0.284751  0.179406  4.308676
H    -0.895458  -2.216951  5.682490
H    -2.372071  1.187712  7.334207
H    -1.878613  -2.295094  7.803922
H    -2.103189  -0.800886  8.640142
H    -1.595138  1.256788  5.789160
O    2.121306  0.246116  3.339691
H    3.047750  0.038451  3.577137
