27
Energy: -16518.5539792 eV PBE+vdW (tier 2 basis)
N    1.196257  -0.532380  0.036956
C    0.550221  -0.633922  1.350421
C    1.164839  -1.770831  2.175809
O    0.699282  -2.888478  2.293297
H    1.187645  -1.434036  -0.443563
H    2.171267  -0.247722  0.130187
H    0.738875  0.312950  1.878697
C    -0.954572  -0.835876  1.156687
C    -1.754213  -0.842970  2.462167
C    -3.233700  -1.113333  2.204397
N    -3.965350  -1.198414  3.478595
C    -5.291300  -1.202114  3.614034
N    -6.082787  -1.252778  2.533251
N    -5.848836  -1.138757  4.836422
H    -1.110800  -1.790455  0.629886
H    -1.302663  -0.033940  0.490245
H    -1.644884  0.120857  2.984183
H    -1.360645  -1.632085  3.122383
H    -3.344879  -2.060560  1.650824
H    -3.672843  -0.302370  1.603091
H    -3.406438  -1.356839  4.311531
H    -5.701412  -1.443842  1.615999
H    -5.291297  -0.941524  5.657274
H    -6.824991  -1.362067  4.981214
H    -7.076373  -1.073984  2.600246
O    2.351212  -1.397415  2.718227
H    2.731719  -2.188160  3.149743
