27
Energy: -16518.9225969 eV PBE+vdW (tier 2 basis)
N    -0.504164  -0.020451  0.136068
C    -0.912829  0.094561  1.542141
C    0.109733  1.000666  2.249765
O    1.278860  1.082365  1.642836
H    1.132417  0.584814  0.781623
H    -0.911098  0.707061  -0.451447
H    -1.891475  0.586440  1.659988
C    -0.976974  -1.326863  2.163680
C    -0.647467  -1.567769  3.646488
C    -1.424906  -0.818414  4.744368
N    -2.850384  -0.602801  4.473199
C    -3.447622  0.594737  4.366302
N    -4.794420  0.654096  4.452001
N    -2.739793  1.701467  4.152792
H    -0.258978  -1.945751  1.603742
H    -1.972861  -1.732278  1.932072
H    0.417245  -1.362853  3.832999
H    -0.766795  -2.649556  3.804865
H    -0.975361  0.158766  4.933038
H    -1.346146  -1.385485  5.682550
H    -3.459137  -1.414601  4.475111
H    -5.288903  1.506980  4.225608
H    -5.321231  -0.074491  4.916072
H    -3.177321  2.606298  4.274069
H    -1.734460  1.672850  3.853546
O    -0.134459  1.594081  3.296701
H    -0.748148  -0.923115  -0.268558
