27
Energy: -16518.754301 eV PBE+vdW (tier 2 basis)
N    0.579215  -0.002167  -0.428603
C    -0.418093  0.241063  0.592684
C    -0.083007  1.227043  1.727439
O    -0.926290  1.805033  2.404399
H    1.450495  -0.353728  -0.031323
H    0.802003  0.839530  -0.957708
H    -1.285321  0.701801  0.093699
C    -0.856997  -1.102292  1.229196
C    -1.764376  -1.961914  0.339806
C    -3.193661  -1.435578  0.137672
N    -3.937500  -1.258361  1.399397
C    -3.826850  -0.193199  2.206585
N    -3.561510  1.034592  1.726981
N    -4.011559  -0.324918  3.529418
H    -1.331651  -0.918668  2.204388
H    0.055211  -1.674324  1.454520
H    -1.818782  -2.975538  0.764772
H    -1.308090  -2.068626  -0.655479
H    -3.773036  -2.135913  -0.475473
H    -3.197848  -0.487826  -0.415399
H    -4.353596  -2.094623  1.799047
H    -2.788834  1.562373  2.166996
H    -4.197265  0.494251  4.095945
H    -3.988759  -1.227512  3.986683
H    -3.621073  1.157067  0.722820
O    1.232764  1.383537  1.923710
H    1.354141  2.010459  2.665765
