27
Energy: -16518.7003673 eV PBE+vdW (tier 2 basis)
N    -0.509892  1.323317  1.815291
C    0.536769  0.285452  1.851394
C    1.359816  0.264386  0.557737
O    1.188971  1.018072  -0.372580
H    -1.286198  0.990895  1.236031
H    -0.144050  2.130289  1.298292
H    1.259217  0.567649  2.636415
C    -0.072577  -1.101185  2.186592
C    0.559607  -1.875089  3.355464
C    0.729235  -1.095023  4.676459
N    -0.371393  -0.132692  4.867328
C    -0.200462  1.153974  5.226980
N    -0.877619  2.087105  4.553467
N    0.649679  1.452740  6.222296
H    -0.037927  -1.750516  1.302369
H    -1.147424  -0.948549  2.374920
H    1.553047  -2.244652  3.067300
H    -0.056436  -2.767127  3.535687
H    1.667839  -0.523327  4.675642
H    0.777600  -1.802104  5.515714
H    -1.193025  -0.284644  4.290556
H    -0.974243  1.913308  3.516319
H    0.939688  2.407042  6.394773
H    0.913535  0.749656  6.902039
H    -0.947814  3.032666  4.913260
O    2.320828  -0.688071  0.611398
H    2.823235  -0.645635  -0.226916
