27
Energy: -16518.4296703 eV PBE+vdW (tier 2 basis)
N    0.284488  0.229309  0.326350
C    -0.159387  0.328913  1.716527
C    0.822823  -0.548797  2.500451
O    0.667215  -1.738221  2.705813
H    0.052519  -0.678528  -0.076761
H    -0.127565  0.957252  -0.254387
H    -0.002876  1.371245  2.032534
C    -1.622644  -0.088698  1.963733
C    -2.224495  0.240872  3.340677
C    -1.568366  -0.484390  4.526461
N    -2.368100  -0.405942  5.758386
C    -3.284315  -1.294573  6.146453
N    -3.637204  -2.314747  5.350809
N    -3.867852  -1.177337  7.352919
H    -1.708431  -1.169116  1.765519
H    -2.234925  0.419687  1.205555
H    -3.294808  -0.019162  3.316405
H    -2.184691  1.326969  3.520034
H    -0.589052  -0.055194  4.771345
H    -1.372245  -1.542088  4.301269
H    -2.290225  0.442921  6.309137
H    -4.125070  -3.119109  5.723851
H    -3.517379  -0.529144  8.046049
H    -4.702097  -1.700387  7.585415
H    -3.275964  -2.387471  4.408593
O    1.900132  0.146852  2.923396
H    2.526541  -0.497223  3.310698
