27
Energy: -16518.7264169 eV PBE+vdW (tier 2 basis)
N    -0.112425  0.625164  0.495627
C    0.356231  -0.295164  1.518177
C    1.857479  -0.508648  1.410666
O    2.582558  -0.799964  2.359098
H    0.047747  0.262423  -0.444433
H    -1.111572  0.801215  0.594513
H    0.201052  0.188555  2.493188
C    -0.346262  -1.693418  1.534141
C    0.094458  -2.694922  2.611652
C    -0.527890  -2.545294  4.003727
N    -0.489357  -1.213875  4.655616
C    0.543599  -0.697666  5.346158
N    1.799757  -0.973651  4.993190
N    0.286499  0.102416  6.398784
H    -0.192884  -2.146106  0.543374
H    -1.427689  -1.499054  1.613100
H    1.189487  -2.723874  2.689226
H    -0.191137  -3.706048  2.284621
H    -0.062186  -3.269355  4.687346
H    -1.596111  -2.791457  3.952766
H    -1.389938  -0.784834  4.836474
H    2.548429  -0.704288  5.621931
H    -0.604108  0.072761  6.879118
H    0.994907  0.725976  6.765575
H    2.056042  -1.053657  3.984016
O    2.321206  -0.422914  0.161736
H    3.282191  -0.607495  0.179156
