27
Energy: -16518.9868425 eV PBE+vdW (tier 2 basis)
N    -0.881318  -1.399205  -1.383913
C    -0.584749  -0.435634  -0.297112
C    0.742252  -0.804406  0.377435
O    0.990575  -0.692294  1.555895
H    -0.153723  -1.348362  -2.099131
H    -1.758549  -1.141773  -1.840894
H    -0.398805  0.578756  -0.699868
C    -1.740418  -0.315235  0.710571
C    -2.479925  -1.602580  1.121559
C    -1.628429  -2.745956  1.678097
N    -0.865541  -3.373773  0.592510
C    -0.064858  -4.417943  0.737489
N    0.163756  -4.960972  1.945918
N    0.520486  -4.969480  -0.346701
H    -2.487542  0.371851  0.288674
H    -1.336195  0.181360  1.602495
H    -3.083993  -1.992530  0.287846
H    -3.202857  -1.326477  1.900905
H    -2.287657  -3.499572  2.136406
H    -0.942295  -2.359928  2.450708
H    -0.884564  -2.855632  -0.327158
H    -0.202797  -4.529206  2.783319
H    0.342767  -4.584952  -1.265050
H    1.299330  -5.607468  -0.253674
H    0.636722  -5.849097  2.045543
O    1.654435  -1.231034  -0.540551
H    2.501487  -1.343814  -0.065490
