27
Energy: -16518.6881485 eV PBE+vdW (tier 2 basis)
N    -0.340254  0.795649  0.478677
C    0.017805  0.255109  1.778053
C    1.530620  0.099926  1.974795
O    2.325237  -0.272225  1.153265
H    0.047755  0.221882  -0.272430
H    0.024234  1.739560  0.351492
H    -0.355804  0.954141  2.541266
C    -0.675655  -1.119393  1.942255
C    -0.464874  -1.908198  3.242674
C    -1.074779  -1.312618  4.515078
N    -0.304784  -0.152484  4.984454
C    -0.721271  0.758770  5.856523
N    -1.847444  0.577519  6.563940
N    -0.016542  1.895902  6.018183
H    -0.337055  -1.752802  1.108367
H    -1.747624  -0.939998  1.775621
H    0.602062  -2.122359  3.417256
H    -0.932491  -2.893492  3.109426
H    -1.090508  -2.082700  5.302883
H    -2.112865  -0.997205  4.321812
H    0.612694  -0.000002  4.551093
H    -2.255294  1.328764  7.104744
H    -0.130854  2.470648  6.843050
H    0.785996  2.081628  5.429118
H    -2.332215  -0.309846  6.555013
O    1.934041  0.439958  3.269913
H    2.901225  0.287589  3.297545
