27
Energy: -16518.9099675 eV PBE+vdW (tier 2 basis)
N    -0.387174  0.375683  1.034247
C    -0.160822  -0.153214  2.382801
C    1.293389  0.080511  2.789255
O    2.044112  -0.726378  3.325194
H    -0.068820  1.342504  0.967291
H    -1.387405  0.384167  0.829980
H    -0.712539  0.407629  3.170300
C    -0.625547  -1.617294  2.500199
C    -0.330788  -2.552507  1.315008
C    1.147401  -2.748564  0.961571
N    1.967242  -3.171302  2.099328
C    2.297441  -4.410309  2.431014
N    1.808851  -5.480186  1.776247
N    3.163032  -4.620489  3.444766
H    -1.716961  -1.598945  2.631666
H    -0.229208  -2.034728  3.436919
H    -0.823413  -2.175837  0.408493
H    -0.791215  -3.527375  1.539595
H    1.576113  -1.804857  0.598451
H    1.265395  -3.465866  0.137520
H    2.162701  -2.404060  2.764248
H    2.273888  -6.376844  1.834814
H    3.594525  -3.833448  3.912670
H    3.200664  -5.515296  3.915420
H    1.112896  -5.366409  1.052124
O    1.667575  1.346678  2.549512
H    2.586804  1.457798  2.865166
