27
Energy: -16518.8657147 eV PBE+vdW (tier 2 basis)
N    -0.420874  0.379228  -0.046382
C    -0.568397  0.089584  1.365132
C    0.203072  0.968056  2.355236
O    -0.061593  1.023163  3.558574
H    -0.703851  1.331621  -0.274826
H    0.543177  0.263898  -0.360222
H    -1.625714  0.265396  1.623095
C    -0.246572  -1.417833  1.640921
C    -1.414551  -2.256268  2.193855
C    -1.524644  -2.370811  3.718722
N    -1.638619  -1.071991  4.380833
C    -2.296044  -0.805569  5.501622
N    -2.923666  -1.758123  6.213028
N    -2.358180  0.474152  5.929916
H    0.641272  -1.524640  2.283189
H    0.031973  -1.831075  0.663929
H    -1.307140  -3.287717  1.829616
H    -2.363594  -1.886114  1.778402
H    -0.646811  -2.905563  4.118141
H    -2.414144  -2.974158  3.951088
H    -1.037974  -0.295794  4.028683
H    -3.584143  -1.515079  6.939446
H    -2.571764  0.677381  6.898009
H    -1.840846  1.182135  5.419693
H    -2.850073  -2.732811  5.957097
O    1.196281  1.674312  1.814185
H    1.632420  2.184621  2.527019
