27
Energy: -16518.6309287 eV PBE+vdW (tier 2 basis)
N    0.793939  -0.905149  0.838003
C    0.090604  0.042225  1.715313
C    1.096325  0.685432  2.672295
O    0.993182  0.763044  3.880980
H    1.599378  -0.451459  0.406048
H    0.178884  -1.187269  0.073118
H    -0.332798  0.908513  1.164227
C    -1.086525  -0.630717  2.442131
C    -0.852480  -2.048108  2.987698
C    0.231471  -2.134504  4.057698
N    0.262635  -3.480279  4.653625
C    0.914068  -3.789841  5.773365
N    0.814687  -5.022579  6.304932
N    1.670434  -2.868834  6.388306
H    -1.921876  -0.693485  1.730013
H    -1.422914  0.035467  3.248509
H    -0.586197  -2.721347  2.159064
H    -1.803482  -2.402739  3.414183
H    0.033879  -1.401124  4.851891
H    1.215150  -1.914331  3.616807
H    -0.150802  -4.237929  4.118923
H    0.169067  -5.704407  5.929240
H    1.801513  -1.952273  5.977951
H    2.000607  -3.009800  7.334092
H    1.450100  -5.335125  7.027205
O    2.139499  1.210079  1.986528
H    2.727438  1.644385  2.635473
