27
Energy: -16518.8639669 eV PBE+vdW (tier 2 basis)
N    -0.924359  -1.547616  0.762516
C    -0.451292  -0.617123  1.824308
C    1.032891  -0.283185  1.692703
O    1.715735  0.132213  2.599405
H    -1.897931  -1.328157  0.544614
H    -0.394883  -1.380108  -0.095784
H    -0.941884  0.366880  1.705610
C    -0.815079  -1.123103  3.237339
C    0.083069  -2.196428  3.888007
C    0.538873  -3.347058  2.979760
N    -0.536239  -3.912538  2.164292
C    -1.272898  -4.971982  2.454359
N    -1.181346  -5.613504  3.635981
N    -2.146888  -5.446890  1.540955
H    -1.853845  -1.483280  3.182458
H    -0.835691  -0.260369  3.914866
H    -0.460600  -2.597132  4.757124
H    0.991248  -1.722581  4.283537
H    1.029165  -4.140203  3.560625
H    1.298393  -2.993610  2.268507
H    -0.833904  -3.226936  1.416576
H    -1.495083  -6.570923  3.730206
H    -2.140596  -5.090196  0.594992
H    -2.908267  -6.055166  1.811134
H    -0.611429  -5.238559  4.381901
O    1.490949  -0.464128  0.423956
H    2.421676  -0.164134  0.409236
