27
Energy: -16518.6198588 eV PBE+vdW (tier 2 basis)
N    0.456287  -0.950318  0.176084
C    -0.104816  0.025239  1.099594
C    0.990043  0.436794  2.074536
O    2.173636  0.363567  1.866062
H    1.436110  -0.740366  -0.016799
H    -0.048419  -0.948221  -0.708707
H    -0.390413  0.988001  0.619331
C    -1.364933  -0.533772  1.780763
C    -1.092869  -1.796332  2.623778
C    -1.888560  -1.837933  3.925705
N    -1.524728  -0.680738  4.759588
C    -2.116660  -0.331615  5.896148
N    -2.988991  -1.156680  6.496131
N    -1.854028  0.865660  6.454094
H    -2.098105  -0.759486  0.994517
H    -1.821551  0.263850  2.385176
H    -0.020841  -1.881293  2.860742
H    -1.325848  -2.702012  2.052519
H    -1.662383  -2.770785  4.466454
H    -2.971668  -1.806418  3.723782
H    -0.796611  -0.064027  4.384286
H    -3.558255  -0.847146  7.272678
H    -1.314757  1.560240  5.954203
H    -2.093448  1.063905  7.416621
H    -3.114549  -2.106251  6.171755
O    0.507965  0.974934  3.264307
H    1.314721  1.285626  3.723534
