27
Energy: -16518.5762626 eV PBE+vdW (tier 2 basis)
N    0.359755  -0.397642  0.262889
C    0.081630  -0.052264  1.643410
C    1.326444  -0.080569  2.549588
O    2.470003  -0.130455  2.180533
H    0.851767  -1.289200  0.189806
H    0.968173  0.295352  -0.171932
H    -0.251688  0.999879  1.660346
C    -1.073047  -0.894545  2.214298
C    -0.713382  -2.375173  2.460797
C    -1.338536  -2.939392  3.735280
N    -0.846406  -2.176170  4.892953
C    -1.293611  -2.287749  6.139141
N    -2.105854  -3.297341  6.488953
N    -0.940518  -1.375833  7.064461
H    -1.905274  -0.822022  1.503812
H    -1.418910  -0.422251  3.144658
H    0.378547  -2.512634  2.530713
H    -1.036132  -3.000158  1.619008
H    -1.066260  -4.001116  3.844931
H    -2.437188  -2.863179  3.694664
H    -0.159325  -1.440804  4.692002
H    -2.287575  -4.064014  5.855058
H    -0.453196  -0.530914  6.795767
H    -1.062106  -1.551300  8.053213
H    -2.572373  -3.311051  7.386308
O    1.023086  -0.019460  3.914817
H    1.898667  0.058430  4.346666
