27
Energy: -16518.6281961 eV PBE+vdW (tier 2 basis)
N    0.338737  -1.203435  -0.161894
C    0.539405  -0.275759  0.961520
C    2.031590  -0.207842  1.292037
O    2.537417  -0.374784  2.384526
H    0.956611  -0.955266  -0.935146
H    -0.614748  -1.112799  -0.516501
H    0.280288  0.773460  0.706642
C    -0.331340  -0.658786  2.170854
C    -0.442803  -2.154184  2.505184
C    0.871284  -2.800668  2.930961
N    0.637370  -4.178806  3.393294
C    1.605069  -5.017703  3.758495
N    1.323972  -6.296945  4.068006
N    2.874532  -4.589760  3.809906
H    -1.350031  -0.297411  1.969333
H    0.023039  -0.097784  3.046660
H    -0.839808  -2.699715  1.637030
H    -1.171969  -2.254224  3.325507
H    1.336834  -2.212437  3.736251
H    1.566318  -2.836834  2.080353
H    -0.325135  -4.486277  3.488971
H    2.006013  -6.890405  4.521395
H    3.643093  -5.233388  3.942894
H    3.096838  -3.613282  3.659005
H    0.394960  -6.675134  3.938967
O    2.749941  0.104024  0.187111
H    3.686521  0.175144  0.457641
