27
Energy: -16518.612518 eV PBE+vdW (tier 2 basis)
N    -0.028329  -0.193901  -0.028270
C    -0.239633  0.054159  1.445475
C    1.220345  0.185763  1.978599
O    2.067108  -0.411414  1.192988
H    -0.086463  0.659733  -0.590725
H    -0.645414  -0.903570  -0.432195
H    -0.785933  0.990242  1.597010
C    -0.982726  -1.144937  2.090504
C    -0.501645  -1.517048  3.505650
C    0.750064  -2.428472  3.491625
N    1.694065  -2.138300  4.571326
C    2.995619  -1.837620  4.448358
N    3.760739  -1.850865  5.562164
N    3.564830  -1.582196  3.270473
H    -0.867855  -2.028668  1.439730
H    -2.057136  -0.921598  2.112322
H    -1.318703  -2.030264  4.028498
H    -0.277889  -0.599410  4.064444
H    1.295759  -2.338053  2.547298
H    0.446651  -3.482781  3.573777
H    1.323313  -2.140820  5.515653
H    4.624919  -1.326279  5.595829
H    3.416340  -2.232261  6.433074
H    4.572532  -1.486750  3.241754
H    3.046080  -1.163765  2.470277
O    1.426984  0.722434  3.061823
H    1.044667  -0.512515  0.078025
