27
Energy: -16518.9292194 eV PBE+vdW (tier 2 basis)
N    -0.218525  0.092795  0.307771
C    0.121688  0.191004  1.727588
C    1.635645  0.144680  1.985443
O    2.247341  -0.700896  2.638342
H    0.067281  0.925064  -0.206035
H    0.220072  -0.709909  -0.143198
H    -0.192581  1.193796  2.057173
C    -0.659389  -0.832800  2.561623
C    -0.519131  -2.311964  2.122319
C    -0.197119  -3.264157  3.274054
N    1.126654  -2.930524  3.805136
C    1.792009  -3.605980  4.729035
N    1.234328  -4.646324  5.373811
N    3.062434  -3.256581  5.020228
H    -1.714430  -0.540073  2.501395
H    -0.370610  -0.713725  3.616986
H    0.265232  -2.435410  1.360007
H    -1.446815  -2.653870  1.648919
H    -0.201835  -4.305289  2.914003
H    -0.959088  -3.170065  4.066946
H    1.572173  -2.080816  3.400542
H    1.788302  -5.260500  5.955614
H    3.479469  -2.461583  4.550914
H    3.507465  -3.575102  5.870785
H    0.282797  -4.925547  5.177930
O    2.271827  1.156807  1.380720
H    3.230481  1.065424  1.551837
