27
Energy: -16518.8613764 eV PBE+vdW (tier 2 basis)
N    -0.175910  1.081805  1.460261
C    0.420944  -0.091051  2.122482
C    1.683927  -0.559669  1.388982
O    2.112800  -0.042771  0.381732
H    -0.628765  0.785662  0.590298
H    0.578713  1.702864  1.152740
H    0.749985  0.219821  3.127221
C    -0.607854  -1.229817  2.255001
C    -1.973825  -0.825136  2.823877
C    -2.069705  -0.548012  4.324573
N    -1.260140  0.554134  4.909354
C    -1.410904  1.876921  4.673464
N    -1.296781  2.727978  5.713364
N    -1.632782  2.325416  3.440676
H    -0.162760  -2.034358  2.855849
H    -0.773643  -1.658422  1.253654
H    -2.666024  -1.664092  2.654888
H    -2.405206  0.010733  2.257380
H    -1.747884  -1.440313  4.876640
H    -3.125772  -0.372938  4.581192
H    -0.864288  0.335494  5.817770
H    -1.127942  3.715233  5.564532
H    -1.885179  3.301950  3.330074
H    -1.172743  1.832844  2.595827
H    -1.439070  2.418262  6.666610
O    2.264998  -1.602535  2.023414
H    3.065613  -1.843372  1.515468
