27
Energy: -16518.6971478 eV PBE+vdW (tier 2 basis)
N    0.742583  -1.346066  0.334577
C    0.459997  -1.336775  1.782030
C    0.615990  0.010599  2.495227
O    0.150188  0.236000  3.587504
H    1.740077  -1.481196  0.158769
H    0.525889  -0.430623  -0.065627
H    -0.608208  -1.572918  1.908681
C    1.283081  -2.381925  2.581188
C    1.711196  -3.698592  1.901840
C    0.735357  -4.462134  0.991517
N    -0.663277  -4.503331  1.432038
C    -1.689710  -3.960289  0.758385
N    -1.469962  -3.026194  -0.167402
N    -2.943523  -4.371802  1.033464
H    0.706543  -2.598402  3.489010
H    2.210019  -1.906327  2.933503
H    2.040957  -4.364724  2.712122
H    2.612134  -3.534824  1.291459
H    1.083207  -5.500352  0.892661
H    0.734876  -4.039522  -0.017337
H    -0.891280  -5.076113  2.237979
H    -2.223956  -2.755149  -0.786377
H    -3.119710  -5.238329  1.525080
H    -3.746342  -3.834990  0.732614
H    -0.579348  -2.452328  -0.163086
O    1.341858  0.901352  1.771682
H    1.403362  1.718956  2.305499
