27
Energy: -16518.5503984 eV PBE+vdW (tier 2 basis)
N    0.190767  -0.416532  0.035872
C    -0.143892  0.016977  1.393367
C    1.140499  0.519001  2.110601
O    2.133067  0.833851  1.272941
H    -0.561875  -0.264745  -0.631559
H    0.472475  -1.395866  -0.010188
H    -0.783737  0.910194  1.297039
C    -0.844235  -0.990156  2.316058
C    -2.242486  -1.431319  1.893184
C    -2.980286  -2.214688  2.984809
N    -2.348184  -3.492542  3.361269
C    -1.590237  -3.730025  4.438457
N    -1.395920  -4.999113  4.841189
N    -1.031235  -2.730259  5.131376
H    -0.886749  -0.483794  3.295251
H    -0.181454  -1.865353  2.430536
H    -2.206001  -2.027933  0.968407
H    -2.865025  -0.551525  1.665800
H    -3.999342  -2.459406  2.657687
H    -3.079012  -1.612181  3.898373
H    -2.551048  -4.293305  2.771480
H    -2.010806  -5.746047  4.543865
H    -0.640506  -5.238820  5.470904
H    -0.624331  -2.897173  6.043392
H    -0.863057  -1.825424  4.702176
O    1.218016  0.623134  3.316388
H    1.791978  0.588365  0.371562
