27
Energy: -16518.3925496 eV PBE+vdW (tier 2 basis)
N    0.215916  -0.866971  0.472992
C    0.343706  0.172030  1.469626
C    1.818094  0.563562  1.545374
O    2.737849  -0.193213  1.336649
H    -0.708129  -1.286969  0.425368
H    0.930537  -1.585779  0.584765
H    -0.224293  1.058665  1.144567
C    -0.107515  -0.179491  2.923136
C    -1.604796  -0.478661  3.021974
C    -2.069376  -0.911198  4.412692
N    -1.875910  0.171820  5.389913
C    -2.421870  0.230224  6.604477
N    -2.305651  1.347219  7.344147
N    -3.103675  -0.814542  7.095355
H    0.476634  -1.047168  3.269572
H    0.169385  0.674031  3.567869
H    -1.862753  -1.304411  2.342471
H    -2.197147  0.390269  2.693646
H    -1.506646  -1.803874  4.734040
H    -3.139996  -1.162275  4.386306
H    -1.193101  0.883777  5.146132
H    -1.964442  2.210087  6.940644
H    -3.677961  -0.724919  7.923729
H    -3.073750  -1.718399  6.642154
H    -2.512185  1.346595  8.334708
O    1.973323  1.856069  1.935312
H    2.936635  2.018515  1.984162
