27
Energy: -16518.7856785 eV PBE+vdW (tier 2 basis)
N    0.245068  -1.633735  1.859777
C    -0.623791  -0.556337  2.280027
C    -0.007102  0.791443  2.689946
O    -0.649543  1.835683  2.747220
H    0.904723  -1.898781  2.591178
H    0.786168  -1.394091  1.030392
H    -1.252272  -0.289652  1.415327
C    -1.539889  -1.032669  3.439532
C    -2.815645  -1.769660  3.006776
C    -3.714451  -1.008800  2.014550
N    -3.735283  0.432426  2.321606
C    -3.857657  1.413441  1.416814
N    -4.629736  1.231169  0.333514
N    -3.187963  2.553980  1.615315
H    -1.790818  -0.180355  4.090310
H    -0.952171  -1.705388  4.079994
H    -3.391493  -2.013937  3.910459
H    -2.553720  -2.726211  2.535713
H    -4.730952  -1.425735  2.051723
H    -3.345304  -1.128445  0.985359
H    -3.275923  0.713294  3.182632
H    -5.341393  0.511205  0.320091
H    -2.290069  2.498768  2.118558
H    -3.412901  3.392508  1.094274
H    -4.604440  1.881245  -0.441469
O    1.291963  0.722603  3.000257
H    1.588594  1.617030  3.266127
