27
Energy: -16518.6790475 eV PBE+vdW (tier 2 basis)
N    0.545189  0.527221  -0.293979
C    0.146859  0.238641  1.071030
C    1.107065  -0.707605  1.799252
O    1.719204  -1.619235  1.307006
H    0.675649  -0.336393  -0.824050
H    1.431377  1.030838  -0.324918
H    0.137115  1.191408  1.621892
C    -1.274906  -0.373988  1.055285
C    -1.909858  -0.659729  2.420716
C    -2.192143  0.619332  3.219629
N    -2.598045  0.369428  4.606842
C    -1.769418  0.331444  5.655428
N    -0.442805  0.351551  5.488376
N    -2.279671  0.292987  6.901125
H    -1.233154  -1.311927  0.482276
H    -1.899689  0.317407  0.471517
H    -1.271097  -1.332832  3.012698
H    -2.854573  -1.201092  2.267589
H    -2.996760  1.198679  2.747819
H    -1.317467  1.282175  3.251651
H    -3.568745  0.127777  4.776830
H    0.160753  0.554707  6.275050
H    -1.708559  0.027888  7.692926
H    -3.251443  0.511270  7.078911
H    0.008408  0.154770  4.589483
O    1.225135  -0.417214  3.159325
H    1.877861  -1.065813  3.495634
