27
Energy: -16518.9702907 eV PBE+vdW (tier 2 basis)
N    -0.765605  -0.087167  0.332684
C    -0.195541  -0.302935  1.647447
C    1.192857  0.292232  1.908359
O    1.582349  0.658531  3.018559
H    -0.846146  0.902729  0.105110
H    -0.212605  -0.529953  -0.401264
H    -0.854689  0.195268  2.376327
C    -0.193459  -1.825907  1.940329
C    0.305470  -2.328638  3.303566
C    -0.454449  -1.838727  4.543224
N    -0.030762  -0.486691  4.922046
C    -0.345848  0.133316  6.049704
N    0.251638  1.304736  6.351126
N    -1.238759  -0.385654  6.911155
H    0.405338  -2.318104  1.158476
H    -1.231425  -2.150422  1.778217
H    1.378647  -2.125891  3.442489
H    0.217126  -3.423572  3.290659
H    -0.249229  -2.522771  5.381693
H    -1.540840  -1.855767  4.348504
H    0.596874  0.013986  4.255201
H    -0.139424  1.924836  7.047976
H    -1.722198  -1.247666  6.699256
H    -1.347325  -0.008511  7.843262
H    0.931224  1.698200  5.711258
O    1.965572  0.372074  0.822220
H    2.832233  0.740218  1.089921
