27
Energy: -16519.1401513 eV PBE+vdW (tier 2 basis)
N    0.760331  0.354808  0.799253
C    0.154863  -0.263042  1.989313
C    1.247669  -0.273124  3.088054
O    2.273814  0.506005  2.820883
H    2.060928  0.846616  1.889996
H    0.109166  0.956328  0.298637
H    -0.607799  0.440522  2.362560
C    -0.519537  -1.636306  1.758491
C    -1.641404  -2.016151  2.763148
C    -1.412429  -3.305768  3.555144
N    -0.275431  -3.129363  4.453031
C    0.155640  -3.987959  5.363876
N    1.180388  -3.630844  6.163820
N    -0.409687  -5.200560  5.514706
H    0.254753  -2.418507  1.722078
H    -0.955588  -1.600382  0.751947
H    -2.587209  -2.137181  2.220401
H    -1.810737  -1.197708  3.478603
H    -1.229682  -4.146917  2.864009
H    -2.320288  -3.536777  4.136213
H    0.258795  -2.233409  4.344667
H    1.662793  -4.313106  6.732996
H    1.643490  -2.741577  6.009176
H    -0.180363  -5.789701  6.304008
H    -1.208984  -5.468463  4.957133
O    1.175061  -0.917521  4.133336
H    1.114448  -0.340916  0.141520
