27
Energy: -16518.9192185 eV PBE+vdW (tier 2 basis)
N    1.569296  -0.133175  1.189395
C    0.115446  -0.088438  1.379723
C    -0.167748  1.122365  2.271794
O    -0.699310  1.113760  3.377835
H    1.820052  -0.927892  0.600834
H    1.904340  0.707474  0.718932
H    -0.455157  0.091458  0.442604
C    -0.360437  -1.403811  2.003771
C    -1.895288  -1.570881  2.086202
C    -2.387058  -2.047776  3.453718
N    -2.054877  -1.033087  4.456323
C    -2.263214  -1.124543  5.760866
N    -2.947127  -2.154837  6.288910
N    -1.768482  -0.173475  6.579719
H    0.109662  -1.499054  2.993550
H    0.060381  -2.219600  1.400456
H    -2.242682  -2.291907  1.335932
H    -2.408693  -0.626788  1.847703
H    -1.910418  -3.006591  3.719451
H    -3.477574  -2.202628  3.420364
H    -1.541107  -0.202478  4.099454
H    -2.996166  -2.295989  7.288894
H    -2.106488  -0.076234  7.528072
H    -1.279240  0.619663  6.182491
H    -3.333864  -2.877236  5.697208
O    0.249773  2.256095  1.697174
H    0.076980  2.997604  2.311627
