27
Energy: -16518.7051929 eV PBE+vdW (tier 2 basis)
N    0.800792  -0.699351  -0.537069
C    0.097437  -0.254160  0.649910
C    0.927565  0.286493  1.826330
O    0.514900  1.115453  2.629943
H    1.353892  0.045472  -0.958839
H    1.434746  -1.472019  -0.331775
H    -0.521493  0.603589  0.349838
C    -0.815540  -1.399829  1.163056
C    -2.101462  -1.608201  0.343925
C    -3.346617  -0.835625  0.803826
N    -3.324895  0.620280  0.560441
C    -2.670819  1.531245  1.289965
N    -2.360650  2.723582  0.753270
N    -2.301676  1.301624  2.560936
H    -1.056645  -1.256807  2.226662
H    -0.214888  -2.320085  1.122868
H    -2.383636  -2.670044  0.396184
H    -1.897636  -1.406381  -0.718527
H    -3.554121  -1.021182  1.867986
H    -4.228236  -1.207401  0.267947
H    -3.746936  0.939629  -0.305611
H    -2.452203  2.904400  -0.238109
H    -2.641955  0.451429  2.994669
H    -1.324176  1.533438  2.804962
H    -2.108971  3.496728  1.357404
O    2.153876  -0.247976  1.902024
H    2.601818  0.133196  2.684640
