27
Energy: -16518.6869764 eV PBE+vdW (tier 2 basis)
N    0.594771  0.366118  0.358428
C    -0.266037  -0.282312  1.357083
C    -0.570807  0.732414  2.451137
O    0.059439  0.866834  3.495909
H    0.129970  1.150886  -0.097548
H    1.462325  0.707064  0.775667
H    -1.209545  -0.541662  0.854028
C    0.428263  -1.543813  1.873788
C    -0.407138  -2.565782  2.657023
C    -0.828351  -2.210645  4.087671
N    -2.127899  -1.504701  4.152794
C    -2.499641  -0.609088  5.081811
N    -1.600051  0.212955  5.630660
N    -3.794316  -0.534723  5.443338
H    1.304434  -1.250946  2.473222
H    0.820924  -2.045874  0.979255
H    0.199778  -3.478481  2.737692
H    -1.294289  -2.867217  2.074321
H    -0.069226  -1.590144  4.574001
H    -0.931122  -3.132477  4.680076
H    -2.889503  -1.959336  3.656136
H    -1.849992  0.773252  6.435838
H    -4.161177  0.283836  5.912604
H    -4.430619  -1.305784  5.284864
H    -0.781258  0.492982  5.071246
O    -1.583271  1.561142  2.108458
H    -1.608662  2.288501  2.761499
