27
Energy: -16518.903353 eV PBE+vdW (tier 2 basis)
N    0.855369  -1.156952  0.847816
C    0.073249  -0.357188  1.816366
C    1.018603  0.528605  2.630348
O    2.220708  0.365028  2.665103
H    1.836201  -1.099958  1.155309
H    0.831699  -0.711434  -0.070673
H    -0.633125  0.293228  1.280663
C    -0.717847  -1.288316  2.757230
C    -1.743395  -2.125512  1.978006
C    -1.937305  -3.550039  2.495888
N    -0.705839  -4.352522  2.684969
C    0.192821  -4.725655  1.753754
N    0.484034  -3.951897  0.708021
N    0.813005  -5.913906  1.913191
H    -1.208934  -0.696936  3.540212
H    0.009442  -1.941349  3.265352
H    -1.470618  -2.167158  0.915474
H    -2.730386  -1.642321  2.005580
H    -2.619569  -4.097551  1.828398
H    -2.402731  -3.528461  3.489220
H    -0.676123  -4.892483  3.542629
H    1.045471  -4.362458  -0.030506
H    0.416399  -6.643086  2.492297
H    1.681286  -6.117787  1.434645
H    0.499224  -2.884233  0.763613
O    0.354200  1.476026  3.319324
H    1.012480  1.985069  3.834001
