27
Energy: -16518.6571316 eV PBE+vdW (tier 2 basis)
N    0.346410  -0.696446  0.504271
C    -0.219641  0.168850  1.528766
C    0.907794  0.995420  2.130902
O    1.977565  1.195820  1.610105
H    1.135455  -0.237786  0.047748
H    -0.345187  -0.921409  -0.209042
H    -0.889526  0.960596  1.124587
C    -1.086013  -0.640082  2.522856
C    -0.434322  -1.908824  3.089201
C    0.800776  -1.678627  3.965272
N    0.557681  -0.784738  5.106529
C    0.168530  -1.153462  6.323451
N    -0.139615  -2.429932  6.604381
N    0.093009  -0.239764  7.310227
H    -1.988451  -0.950124  1.976840
H    -1.445427  0.024214  3.321834
H    -0.117437  -2.550969  2.256208
H    -1.197563  -2.466897  3.654156
H    1.612663  -1.225477  3.381372
H    1.207970  -2.627380  4.341501
H    0.538486  0.210724  4.874355
H    -0.176474  -2.758171  7.560728
H    -0.427079  -0.425764  8.157751
H    0.458666  0.694549  7.182914
H    -0.215029  -3.120920  5.870207
O    0.574260  1.587967  3.339149
H    1.293787  2.231272  3.502420
