27
Energy: -16519.0368076 eV PBE+vdW (tier 2 basis)
N    -0.418595  0.044323  -0.000240
C    0.172165  0.087556  1.350089
C    1.694533  -0.119519  1.188845
O    2.104702  -0.114028  -0.066182
H    -1.087566  0.795721  -0.154941
H    -0.894185  -0.837925  -0.189689
H    0.047429  1.107806  1.742983
C    -0.411313  -0.908239  2.376020
C    0.114155  -2.358207  2.234185
C    1.029907  -2.745521  3.411421
N    1.894173  -3.895138  3.138005
C    3.185805  -3.840092  2.775367
N    3.877553  -4.998206  2.701849
N    3.790817  -2.690589  2.487432
H    -1.504753  -0.877184  2.285884
H    -0.186907  -0.534244  3.384695
H    0.677782  -2.478232  1.295556
H    -0.720236  -3.069795  2.173897
H    0.429542  -2.990287  4.298136
H    1.669561  -1.899653  3.685404
H    1.467826  -4.815467  3.148572
H    3.556536  -5.830482  3.178502
H    4.810475  -5.020419  2.312332
H    3.294687  -1.789348  2.341064
H    4.797804  -2.672784  2.384428
O    2.447419  -0.303741  2.140698
H    1.235448  0.023246  -0.576465
