27
Energy: -16518.558627 eV PBE+vdW (tier 2 basis)
N    -0.269682  -0.101178  -0.007097
C    -0.058334  0.180936  1.404829
C    1.382825  0.128176  1.952378
O    1.657812  0.103343  3.134771
H    0.199942  -0.964159  -0.283581
H    0.115396  0.637410  -0.593767
H    -0.366864  1.227911  1.577258
C    -0.951606  -0.720298  2.276747
C    -2.437636  -0.419432  2.082626
C    -3.365922  -1.356913  2.848735
N    -3.156216  -1.223398  4.301943
C    -3.525883  -2.102862  5.231035
N    -3.086011  -1.977008  6.495974
N    -4.330556  -3.128235  4.914762
H    -0.636881  -0.592093  3.321942
H    -0.748398  -1.772894  2.016091
H    -2.686696  -0.497163  1.015114
H    -2.659900  0.623482  2.367083
H    -3.161158  -2.402040  2.569002
H    -4.416353  -1.129228  2.607608
H    -2.700012  -0.373707  4.619870
H    -2.327835  -1.347705  6.726704
H    -4.812601  -3.158667  4.025988
H    -4.462602  -3.906352  5.547798
H    -3.528686  -2.472653  7.258944
O    2.311944  0.142318  0.968510
H    3.185758  0.145782  1.407824
