27
Energy: -16518.9160189 eV PBE+vdW (tier 2 basis)
N    2.599568  -0.309862  1.250066
C    1.311482  -0.961388  1.332274
C    0.118355  -0.197115  1.913463
O    -1.034209  -0.614958  1.835677
H    2.577899  0.519126  0.658296
H    2.943989  -0.026252  2.167123
H    0.984094  -1.160530  0.296547
C    1.446968  -2.322240  2.068334
C    1.779312  -3.470536  1.113683
C    0.592815  -3.933042  0.263074
N    -0.432642  -4.654055  1.034443
C    -1.711860  -4.301506  1.228768
N    -2.129678  -3.042060  1.093177
N    -2.597538  -5.264767  1.559244
H    0.532207  -2.554214  2.633250
H    2.246151  -2.216832  2.814462
H    2.172500  -4.330201  1.677396
H    2.588056  -3.159862  0.435495
H    0.938865  -4.612692  -0.528329
H    0.096738  -3.093212  -0.240552
H    -0.173073  -5.577095  1.368326
H    -3.127471  -2.867094  1.070001
H    -2.407877  -6.241589  1.376030
H    -3.487431  -5.031555  1.980293
H    -1.537390  -2.205534  1.272761
O    0.428049  0.961353  2.501138
H    -0.400878  1.366714  2.828560
