27
Energy: -16518.9664843 eV PBE+vdW (tier 2 basis)
N    0.845788  -1.397613  2.072771
C    0.221104  -0.164235  1.546135
C    0.920804  0.445305  0.322267
O    0.392529  1.232756  -0.424816
H    1.851238  -1.238707  2.184692
H    0.769441  -2.140534  1.374622
H    -0.789720  -0.424373  1.199154
C    0.086713  0.933421  2.623935
C    -0.977717  0.689352  3.710881
C    -0.554090  -0.109177  4.946636
N    -0.216680  -1.493644  4.615009
C    -0.218972  -2.499827  5.473551
N    -0.410596  -2.315023  6.793439
N    -0.046427  -3.764273  5.025860
H    -0.182373  1.855629  2.092698
H    1.073076  1.122114  3.080097
H    -1.871342  0.225029  3.265896
H    -1.305163  1.668836  4.086617
H    -1.389229  -0.105238  5.663577
H    0.307003  0.384105  5.430543
H    0.180361  -1.639042  3.633550
H    -0.652804  -3.088711  7.398639
H    0.036852  -3.935322  4.032659
H    0.276564  -4.493508  5.648312
H    -0.457891  -1.384602  7.185274
O    2.207284  0.020059  0.200695
H    2.584394  0.475592  -0.578477
