27
Energy: -16518.8749058 eV PBE+vdW (tier 2 basis)
N    2.857718  -0.974149  2.895806
C    1.949629  -1.211690  1.764917
C    0.653190  -0.442022  2.023654
O    -0.380831  -0.898805  2.509008
H    3.115192  0.009572  2.974132
H    2.437409  -1.261618  3.781122
H    2.425287  -0.780613  0.871351
C    1.765112  -2.723250  1.585866
C    1.181618  -3.222620  0.255074
C    -0.267024  -2.814795  -0.056209
N    -1.191618  -3.061430  1.051460
C    -1.959853  -4.125781  1.233048
N    -1.886383  -5.205012  0.432719
N    -2.859310  -4.132076  2.237809
H    1.177795  -3.117423  2.430698
H    2.769094  -3.153863  1.694885
H    1.255863  -4.321178  0.254852
H    1.805258  -2.879157  -0.584387
H    -0.633398  -3.318223  -0.961663
H    -0.332924  -1.739632  -0.271852
H    -1.104187  -2.363472  1.811012
H    -2.642422  -5.876483  0.398829
H    -2.993790  -3.303709  2.803804
H    -3.238377  -5.001393  2.590154
H    -1.170297  -5.276315  -0.276893
O    0.788949  0.866655  1.746210
H    -0.026699  1.324484  2.033591
