27
Energy: -16518.6243057 eV PBE+vdW (tier 2 basis)
N    0.722926  0.563332  0.412172
C    0.057683  0.232124  1.662994
C    1.035679  -0.601213  2.479290
O    1.740407  -1.477537  2.056170
H    0.078391  1.001127  -0.245079
H    1.103999  -0.276499  -0.026642
H    -0.129331  1.172864  2.203301
C    -1.285051  -0.546816  1.500479
C    -2.061971  -0.980037  2.755964
C    -2.642182  0.135452  3.630895
N    -1.587224  0.819611  4.391327
C    -1.686823  2.012125  4.968767
N    -2.877671  2.615909  5.109462
N    -0.573872  2.637284  5.397384
H    -1.065130  -1.447487  0.908750
H    -1.935142  0.083340  0.873033
H    -1.458895  -1.655490  3.383927
H    -2.915456  -1.588035  2.424654
H    -3.374250  -0.298833  4.330357
H    -3.165648  0.875030  3.003649
H    -0.666157  0.368484  4.408919
H    -2.946075  3.580908  5.404925
H    0.338865  2.251281  5.188159
H    -0.619190  3.394083  6.067343
H    -3.739982  2.114509  4.943277
O    1.012467  -0.275838  3.831893
H    1.638124  -0.891706  4.266228
