27
Energy: -16518.5637768 eV PBE+vdW (tier 2 basis)
N    0.474426  -0.525166  -0.180870
C    -0.114241  -0.494693  1.149694
C    0.795122  -0.120639  2.338310
O    0.526424  -0.353847  3.499172
H    1.345000  -1.057866  -0.186243
H    0.707028  0.412531  -0.504125
H    -0.885640  0.296519  1.146286
C    -0.814092  -1.831088  1.460496
C    -2.022915  -2.069623  0.555269
C    -2.647117  -3.454177  0.705121
N    -3.116519  -3.664920  2.085236
C    -3.957448  -4.615137  2.488580
N    -4.429502  -4.611959  3.748483
N    -4.357164  -5.575761  1.642155
H    -1.081477  -1.810322  2.528778
H    -0.082325  -2.647107  1.335503
H    -1.707765  -1.956713  -0.491603
H    -2.793299  -1.302914  0.735540
H    -1.908557  -4.231881  0.447058
H    -3.508716  -3.551027  0.028266
H    -2.681862  -3.085854  2.798377
H    -4.265417  -3.827405  4.366046
H    -3.922399  -5.685705  0.735623
H    -5.135287  -6.182402  1.865985
H    -4.871230  -5.430863  4.145898
O    1.915592  0.527664  1.945068
H    2.406607  0.759775  2.758456
