27
Energy: -16518.5671221 eV PBE+vdW (tier 2 basis)
N    0.511690  -0.031420  0.546413
C    0.353104  0.085849  1.999106
C    1.661435  -0.219227  2.729727
O    1.750108  -0.818787  3.780441
H    1.401377  0.369116  0.250907
H    -0.221238  0.494125  0.069718
H    0.111663  1.120145  2.325025
C    -0.782248  -0.818586  2.504512
C    -0.565153  -2.297075  2.171740
C    -1.730251  -3.161274  2.639542
N    -1.481061  -4.569245  2.288141
C    -2.119564  -5.624071  2.791140
N    -3.199482  -5.456989  3.568652
N    -1.683055  -6.870101  2.532339
H    -1.721001  -0.464830  2.049282
H    -0.878904  -0.682040  3.590695
H    0.355979  -2.647533  2.660057
H    -0.430089  -2.398447  1.083532
H    -2.671501  -2.826137  2.172281
H    -1.838953  -3.091644  3.733133
H    -0.782652  -4.737646  1.570327
H    -3.571786  -6.218943  4.120384
H    -2.267073  -7.678001  2.704844
H    -0.787194  -7.030120  2.090436
H    -3.623477  -4.545610  3.681087
O    2.728662  0.310763  2.082576
H    3.517040  0.119385  2.627833
