27
Energy: -16518.516913 eV PBE+vdW (tier 2 basis)
N    0.245636  -1.307910  0.057828
C    0.057469  -0.537222  1.271244
C    1.431898  -0.147874  1.786219
O    2.440883  -0.790652  1.689463
H    -0.626996  -1.721938  -0.266107
H    0.929070  -2.053155  0.198723
H    -0.472522  0.387431  0.993905
C    -0.743341  -1.229252  2.444702
C    -2.154867  -0.668630  2.682403
C    -2.219247  0.526852  3.643591
N    -1.372762  1.658532  3.239535
C    -1.696644  2.637758  2.391163
N    -0.712388  3.289665  1.750858
N    -2.975501  2.975698  2.165193
H    -0.171085  -1.205490  3.386504
H    -0.813536  -2.291598  2.178876
H    -2.789805  -1.451394  3.122473
H    -2.623119  -0.400967  1.721502
H    -1.873623  0.230936  4.643005
H    -3.255283  0.865723  3.773468
H    -0.366960  1.519282  3.353270
H    0.232424  2.916436  1.777076
H    -3.716573  2.646482  2.769214
H    -3.218991  3.651435  1.453090
H    -0.864870  4.187945  1.310992
O    1.408840  1.068640  2.474350
H    2.315340  1.186532  2.825481
