27
Energy: -16519.0527909 eV PBE+vdW (tier 2 basis)
N    -1.092416  -0.130310  0.271590
C    -0.336894  0.263244  1.473033
C    1.084964  0.623069  1.024890
O    1.405835  0.097984  -0.168165
H    -1.570208  0.667069  -0.149126
H    -1.801530  -0.835115  0.471000
H    -0.754460  1.144439  1.982106
C    -0.268743  -0.884275  2.513151
C    0.270741  -2.253210  2.024731
C    1.678076  -2.640424  2.498150
N    2.710501  -1.743202  1.969393
C    3.758929  -1.254444  2.644966
N    4.287957  -0.091160  2.251833
N    4.257666  -1.925550  3.698289
H    -1.290893  -1.018065  2.894017
H    0.321220  -0.518806  3.365476
H    0.225233  -2.334072  0.927871
H    -0.392594  -3.047924  2.391830
H    1.886142  -3.676971  2.191275
H    1.726667  -2.600651  3.595797
H    2.549297  -1.337076  1.048494
H    5.188102  0.213901  2.600434
H    3.650178  0.602200  1.831304
H    4.916320  -1.485219  4.327642
H    4.098908  -2.919059  3.806888
O    1.887607  1.230010  1.712468
H    0.514394  -0.260383  -0.493336
