27
Energy: -16519.0091088 eV PBE+vdW (tier 2 basis)
N    1.375529  -2.106355  0.229788
C    0.967442  -0.867917  0.922748
C    1.957023  -0.570928  2.045065
O    2.818628  -1.328542  2.440898
H    0.748260  -2.258222  -0.562970
H    2.309156  -1.977708  -0.168815
H    1.007823  0.000810  0.243130
C    -0.485838  -0.952058  1.444168
C    -0.772210  -1.676643  2.768707
C    -0.537685  -3.200734  2.847515
N    0.670437  -3.588816  3.585509
C    1.724072  -4.267541  3.109187
N    2.553599  -4.875280  3.982361
N    1.926994  -4.364896  1.797371
H    -1.098914  -1.392073  0.641239
H    -0.846706  0.078723  1.557731
H    -1.833699  -1.498651  2.989166
H    -0.226041  -1.186989  3.589815
H    -0.487084  -3.661198  1.854978
H    -1.385262  -3.669739  3.366458
H    0.673393  -3.392585  4.580692
H    3.504143  -5.098220  3.717927
H    2.663123  -4.980709  1.473356
H    1.651932  -3.548883  1.175814
H    2.299170  -5.000624  4.953294
O    1.741784  0.661724  2.553919
H    2.406929  0.811056  3.254949
