27
Energy: -16518.9563864 eV PBE+vdW (tier 2 basis)
N    0.508869  -0.363562  0.305397
C    -0.549455  -0.185387  1.300291
C    0.018750  0.495760  2.542736
O    -0.208784  0.185381  3.708789
H    0.998920  0.512154  0.124942
H    0.105335  -0.668356  -0.580769
H    -1.349993  0.518372  0.977271
C    -1.230561  -1.523618  1.615488
C    -0.273425  -2.644288  2.084680
C    -0.746080  -3.367126  3.346206
N    -0.812029  -2.409944  4.453989
C    -1.183053  -2.677357  5.696682
N    -1.448471  -3.935241  6.090442
N    -1.312241  -1.667571  6.582511
H    -1.758024  -1.842055  0.705812
H    -2.022056  -1.339493  2.356631
H    0.734894  -2.240503  2.255828
H    -0.148552  -3.396650  1.297053
H    -0.037831  -4.174870  3.591633
H    -1.740184  -3.818193  3.184397
H    -0.604573  -1.421325  4.211691
H    -1.838209  -4.130283  7.002671
H    -1.367537  -1.851018  7.575600
H    -1.061461  -0.726699  6.302931
H    -1.369347  -4.707144  5.442757
O    0.779933  1.550487  2.228021
H    1.092344  1.964692  3.057369
