27
Energy: -16518.8903291 eV PBE+vdW (tier 2 basis)
N    0.370968  0.072177  0.243118
C    0.103719  0.053407  1.670272
C    1.384860  -0.001414  2.492117
O    1.420006  0.218982  3.701721
H    -0.498986  0.084974  -0.287787
H    0.918475  0.883854  -0.039613
H    -0.411515  0.959853  2.050687
C    -0.788691  -1.182962  1.971521
C    -1.118790  -1.481178  3.437238
C    -1.893945  -0.356647  4.138708
N    -2.004525  -0.542698  5.588008
C    -1.114195  -0.094835  6.484910
N    -1.403414  -0.203079  7.798016
N    0.031903  0.462659  6.097954
H    -0.295688  -2.057122  1.524753
H    -1.721609  -1.034673  1.404382
H    -0.196819  -1.691718  3.997226
H    -1.714586  -2.404975  3.476307
H    -2.915949  -0.281554  3.744191
H    -1.424043  0.621079  3.972222
H    -2.739894  -1.150112  5.932530
H    -0.696948  -0.040003  8.502826
H    0.419225  0.370556  5.141365
H    0.606526  0.944933  6.777602
H    -2.349111  -0.368392  8.116113
O    2.479845  -0.309068  1.795668
H    3.234332  -0.314879  2.419716
