27
Energy: -16518.5388817 eV PBE+vdW (tier 2 basis)
N    0.539587  -0.675279  -0.114071
C    0.139006  -0.422400  1.265372
C    1.101599  0.387764  2.156907
O    1.029702  0.438294  3.365908
H    1.491071  -1.043873  -0.152083
H    0.549844  0.188903  -0.654179
H    -0.775988  0.195830  1.230183
C    -0.210751  -1.740306  1.979616
C    -1.398951  -2.443370  1.324308
C    -1.663890  -3.811076  1.944904
N    -2.780532  -4.474542  1.252167
C    -3.455259  -5.533358  1.698548
N    -3.049714  -6.181803  2.799811
N    -4.558752  -5.955955  1.055624
H    -0.410722  -1.522795  3.037263
H    0.675251  -2.396968  1.952698
H    -1.190662  -2.551629  0.247526
H    -2.302094  -1.820158  1.423987
H    -1.929638  -3.703614  3.007998
H    -0.760264  -4.439326  1.873815
H    -3.003921  -4.129771  0.323341
H    -2.156988  -5.974395  3.227877
H    -4.983467  -5.401903  0.323405
H    -4.954161  -6.869752  1.235249
H    -3.645859  -6.856192  3.261886
O    2.025124  1.066646  1.432010
H    2.560357  1.575974  2.072748
