27
Energy: -16519.2628224 eV PBE+vdW (tier 2 basis)
N    -0.351451  1.103524  1.011243
C    0.102562  0.025910  1.904451
C    -0.703657  -1.230787  1.595458
O    -1.662001  -1.283729  0.842274
H    0.262018  1.913850  1.110222
H    -0.299547  0.808763  0.034492
H    1.158551  -0.244727  1.728109
C    -0.001603  0.431814  3.398593
C    -1.387875  0.477317  4.067565
C    -2.356718  1.593135  3.643575
N    -2.801302  1.428172  2.260879
C    -4.000349  1.030902  1.848599
N    -5.118089  1.295015  2.555588
N    -4.086693  0.358909  0.688464
H    0.497773  1.408405  3.505491
H    0.614638  -0.279747  3.963562
H    -1.216764  0.602248  5.147149
H    -1.896609  -0.493720  3.958210
H    -1.880205  2.579561  3.745429
H    -3.223983  1.583681  4.315129
H    -1.998058  1.353233  1.579901
H    -5.136388  2.042869  3.235926
H    -3.275301  -0.183471  0.386955
H    -4.969344  0.241301  0.209043
H    -5.995109  0.845335  2.329338
O    -0.220658  -2.296216  2.254080
H    -0.761836  -3.073547  2.009273
