27
Energy: -16518.9972695 eV PBE+vdW (tier 2 basis)
N    0.160836  -1.315845  1.302984
C    -0.339534  -0.132637  2.039820
C    0.835132  0.670835  2.609217
O    0.819848  1.309843  3.634834
H    0.707417  -1.017976  0.493248
H    -0.627986  -1.853552  0.938199
H    -0.837442  0.585758  1.360102
C    -1.365421  -0.509274  3.123993
C    -1.108729  -1.785163  3.947462
C    0.223060  -1.878076  4.695234
N    1.323582  -2.056609  3.739921
C    2.607670  -2.091769  4.059892
N    3.008893  -2.206751  5.337827
N    3.544076  -1.994220  3.090673
H    -1.455352  0.355823  3.794070
H    -2.344331  -0.625270  2.637876
H    -1.221394  -2.684984  3.323128
H    -1.906375  -1.852270  4.699545
H    0.182458  -2.743013  5.376711
H    0.395629  -0.967735  5.292426
H    1.048483  -2.006758  2.723487
H    3.973101  -2.048659  5.598936
H    3.247621  -1.860658  2.132030
H    4.478447  -2.353898  3.238273
H    2.334389  -2.303875  6.084594
O    1.914196  0.632605  1.771689
H    2.573726  1.253128  2.140830
