27
Energy: -16518.4827132 eV PBE+vdW (tier 2 basis)
N    0.030268  0.351418  0.105483
C    -0.013448  -0.101597  1.484483
C    1.222424  -0.956110  1.728437
O    2.110675  -1.166533  0.946013
H    0.988416  0.466400  -0.223236
H    -0.475432  1.224759  -0.025362
H    0.061974  0.725976  2.226351
C    -1.349098  -0.870977  1.755152
C    -2.202048  -0.417536  2.947669
C    -1.760865  -0.898794  4.336855
N    -0.525281  -0.284082  4.834664
C    -0.440030  0.808304  5.586094
N    -1.523733  1.541608  5.892331
N    0.757536  1.197634  6.064551
H    -1.162923  -1.953227  1.819733
H    -1.937726  -0.732445  0.839889
H    -3.219865  -0.808522  2.799861
H    -2.297854  0.681681  2.944371
H    -1.578876  -1.981809  4.319606
H    -2.554015  -0.737389  5.080670
H    0.336563  -0.664838  4.429257
H    -1.505606  2.200937  6.659631
H    1.568626  0.599128  5.981401
H    0.899149  2.129029  6.432739
H    -2.420797  1.344974  5.469831
O    1.256664  -1.489478  3.011735
H    2.063374  -2.041877  3.042135
