27
Energy: -16518.7696489 eV PBE+vdW (tier 2 basis)
N    -0.422017  0.228862  0.794520
C    0.257277  -0.433041  1.932990
C    1.426021  -1.350416  1.561825
O    2.242703  -1.747074  2.357308
H    -0.356593  -0.385860  -0.021648
H    0.085504  1.076104  0.533191
H    0.691402  0.344976  2.577055
C    -0.772355  -1.226443  2.760720
C    -1.752412  -0.279923  3.471453
C    -3.189092  -0.785466  3.567596
N    -3.829666  -1.194100  2.293007
C    -4.081952  -0.429879  1.213281
N    -3.251637  0.541692  0.831373
N    -5.201150  -0.683131  0.503243
H    -0.247543  -1.860351  3.486049
H    -1.307821  -1.904122  2.076408
H    -1.750921  0.705627  2.987218
H    -1.415644  -0.094629  4.501403
H    -3.819164  -0.024047  4.051564
H    -3.228912  -1.686054  4.193107
H    -4.388982  -2.038116  2.351988
H    -3.577756  1.183482  0.116864
H    -5.987512  -1.170064  0.914525
H    -5.302173  -0.353774  -0.448598
H    -2.196771  0.471448  0.951202
O    1.411403  -1.699582  0.245496
H    2.168434  -2.302005  0.102566
