27
Energy: -16519.1373854 eV PBE+vdW (tier 2 basis)
N    -1.244142  -0.307338  0.005719
C    -0.474854  0.147943  1.173968
C    0.900874  0.633720  0.657512
O    0.945631  0.814754  -0.646443
H    -2.224727  -0.038747  0.058252
H    -1.203677  -1.318910  -0.121292
H    -0.958532  1.068441  1.540431
C    -0.371092  -0.818840  2.367540
C    0.428075  -2.124497  2.113813
C    1.600431  -2.333908  3.082394
N    2.565745  -1.244216  2.934734
C    3.890407  -1.336910  2.909883
N    4.592089  -0.355406  2.314195
N    4.536697  -2.390691  3.441430
H    -1.394310  -1.062134  2.681782
H    0.061308  -0.261833  3.211774
H    0.825702  -2.153122  1.086359
H    -0.230763  -2.997355  2.206419
H    2.094775  -3.291108  2.862974
H    1.232713  -2.374407  4.120111
H    2.192427  -0.356369  2.543186
H    5.564047  -0.190736  2.541101
H    4.088531  0.365650  1.801990
H    5.527774  -2.524395  3.291060
H    4.069832  -3.018697  4.081339
O    1.862166  0.858517  1.391095
H    0.031871  0.498593  -0.948324
