27
Energy: -16518.5259098 eV PBE+vdW (tier 2 basis)
N    -0.184240  0.558336  0.214563
C    -0.686761  0.688718  1.568430
C    0.250893  1.496803  2.485455
O    1.162650  2.191125  2.121243
H    0.696427  0.040994  0.197157
H    0.016010  1.473997  -0.188536
H    -1.611207  1.292805  1.516534
C    -1.060538  -0.695224  2.144992
C    -2.238949  -0.678737  3.142423
C    -2.051397  -1.607207  4.339560
N    -0.913417  -1.133205  5.141146
C    -0.346598  -1.792932  6.144787
N    -0.907618  -2.909345  6.635597
N    0.811426  -1.354522  6.674757
H    -0.167851  -1.155264  2.598206
H    -1.317984  -1.322136  1.282634
H    -3.165619  -0.971405  2.632585
H    -2.416661  0.336907  3.524825
H    -1.852058  -2.638401  4.005991
H    -2.965753  -1.610710  4.954459
H    -0.527120  -0.222804  4.867402
H    -0.410309  -3.508227  7.281438
H    1.320940  -0.594253  6.244468
H    1.134274  -1.679501  7.576685
H    -1.832821  -3.197882  6.346884
O    -0.064920  1.403594  3.845471
H    0.508319  2.072886  4.272284
