27
Energy: -16518.832397 eV PBE+vdW (tier 2 basis)
N    -0.259906  -0.171058  -0.409135
C    -0.362146  0.036256  1.033558
C    1.029776  0.274666  1.616835
O    1.419125  -0.082778  2.723956
H    0.274328  0.571629  -0.858865
H    -1.188287  -0.178228  -0.830670
H    -0.914541  0.967654  1.307432
C    -1.086541  -1.168066  1.679022
C    -2.081492  -0.860837  2.808623
C    -1.497528  -0.216988  4.074549
N    -0.346405  -0.940948  4.612960
C    -0.351416  -1.865022  5.561275
N    0.819581  -2.343826  6.029919
N    -1.493979  -2.337571  6.093901
H    -0.344184  -1.910196  2.005120
H    -1.646670  -1.661340  0.874032
H    -2.584923  -1.802711  3.077207
H    -2.872466  -0.189636  2.439188
H    -2.265097  -0.105352  4.853061
H    -1.138888  0.799486  3.862057
H    0.513357  -0.773705  4.059911
H    0.860140  -3.232813  6.511245
H    -1.489421  -2.811040  6.988063
H    -2.391352  -2.054861  5.724893
H    1.693694  -1.957524  5.696415
O    1.810414  0.984268  0.793101
H    2.672847  1.121689  1.234001
