27
Energy: -16518.6035673 eV PBE+vdW (tier 2 basis)
N    0.619403  -1.901898  0.565885
C    0.066281  -1.134211  1.686400
C    0.466000  0.349026  1.620948
O    1.433225  0.765172  1.023297
H    0.243477  -1.526796  -0.308141
H    1.621011  -1.691463  0.512001
H    -1.033917  -1.177219  1.640330
C    0.536180  -1.703925  3.042025
C    -0.127703  -2.997528  3.532728
C    0.033725  -4.249528  2.661688
N    -0.984500  -4.322662  1.606283
C    -0.786041  -4.657334  0.334463
N    0.313674  -5.320275  -0.051416
N    -1.717001  -4.364936  -0.594489
H    0.368177  -0.942754  3.816388
H    1.628100  -1.844738  2.989517
H    -1.200520  -2.826076  3.725798
H    0.302369  -3.237165  4.515650
H    -0.042016  -5.153890  3.282963
H    1.020676  -4.238843  2.181478
H    -1.918579  -4.018062  1.861438
H    0.991663  -5.628400  0.632611
H    -1.773170  -4.897350  -1.453563
H    -2.493427  -3.754456  -0.377128
H    0.621682  -5.273942  -1.014532
O    -0.385948  1.126760  2.331897
H    -0.053824  2.045493  2.279480
