27
Energy: -16518.963345 eV PBE+vdW (tier 2 basis)
N    -0.744413  -1.228474  -0.385267
C    -0.483547  -0.589489  0.928261
C    0.959966  -0.113249  1.141885
O    1.314831  0.532451  2.097985
H    0.122879  -1.644229  -0.734172
H    -0.974130  -0.505642  -1.069801
H    -1.093709  0.323284  0.981090
C    -0.907713  -1.463611  2.128792
C    -0.159839  -2.790028  2.321255
C    -0.534014  -3.947661  1.384428
N    -1.939086  -4.358170  1.485107
C    -2.913712  -4.087803  0.603238
N    -2.738211  -3.199559  -0.371706
N    -4.087866  -4.744551  0.727629
H    -1.992621  -1.635747  2.063915
H    -0.753984  -0.850837  3.026581
H    -0.321352  -3.126392  3.356602
H    0.927569  -2.636745  2.236509
H    0.075187  -4.827047  1.634577
H    -0.331830  -3.721462  0.332169
H    -2.206973  -4.879184  2.313406
H    -3.425842  -3.156669  -1.114338
H    -4.904511  -4.451564  0.208417
H    -4.157546  -5.603365  1.257620
H    -1.969521  -2.456550  -0.365363
O    1.798913  -0.528558  0.152322
H    2.688390  -0.185392  0.371309
