27
Energy: -16518.5529041 eV PBE+vdW (tier 2 basis)
N    -0.395962  -0.372889  -0.622371
C    -0.075695  -0.465725  0.794424
C    1.380783  -0.782116  1.192478
O    1.718720  -1.137421  2.302800
H    -0.050310  -1.187726  -1.130858
H    0.045655  0.440477  -1.048385
H    -0.259667  0.530793  1.235400
C    -1.008936  -1.468368  1.497009
C    -2.470309  -1.024359  1.464550
C    -3.437120  -2.068398  2.026712
N    -3.181917  -2.433291  3.432781
C    -3.657536  -1.797122  4.503719
N    -3.477408  -2.316817  5.731436
N    -4.338045  -0.648434  4.378468
H    -0.648135  -1.597794  2.526746
H    -0.907866  -2.446945  0.996114
H    -2.764635  -0.816337  0.425333
H    -2.576071  -0.069732  2.008852
H    -3.363737  -3.003381  1.455785
H    -4.484066  -1.742915  1.946297
H    -2.496824  -3.162193  3.602550
H    -3.129121  -3.258637  5.856135
H    -4.898021  -0.287705  5.140133
H    -4.352796  -0.142557  3.502805
H    -3.591908  -1.750014  6.561875
O    2.248475  -0.590504  0.171274
H    3.141630  -0.777361  0.523317
