27
Energy: -16518.5818414 eV PBE+vdW (tier 2 basis)
N    -0.330435  0.305009  0.026624
C    0.503227  -0.016729  1.165268
C    1.976111  -0.298691  0.849521
O    2.449464  -0.566012  -0.223286
H    -0.290239  -0.441005  -0.670382
H    -0.011297  1.153396  -0.440867
H    0.500206  0.861467  1.830696
C    -0.078704  -1.239626  1.917672
C    -1.327482  -0.945301  2.752466
C    -1.063580  -0.354176  4.140843
N    -0.742930  1.087492  4.168366
C    0.398311  1.660599  4.563613
N    1.565557  1.000142  4.527100
N    0.372770  2.927291  5.019844
H    0.691227  -1.700213  2.555581
H    -0.321155  -1.995759  1.156554
H    -1.865636  -1.888497  2.925451
H    -2.018979  -0.304275  2.184757
H    -0.246285  -0.882555  4.649179
H    -1.958343  -0.475054  4.767512
H    -1.521510  1.718799  4.002617
H    2.367555  1.395826  5.002958
H    -0.484887  3.348821  5.354172
H    1.211341  3.494104  5.039993
H    1.775782  0.313683  3.800909
O    2.738816  -0.224317  2.004541
H    3.654288  -0.457351  1.751553
