27
Energy: -16518.9412679 eV PBE+vdW (tier 2 basis)
N    1.969373  -0.533051  1.529722
C    0.719776  0.008494  2.121664
C    0.829728  0.087391  3.647483
O    -0.108214  0.049662  4.407199
H    2.762874  -0.008668  1.906403
H    1.964794  -0.346197  0.523995
H    0.565821  1.060795  1.813260
C    -0.526907  -0.781997  1.702895
C    -0.487334  -2.275620  2.063090
C    0.160135  -3.158261  0.976039
N    0.824134  -4.351575  1.504085
C    2.057338  -4.342320  2.032123
N    2.576263  -5.501676  2.490003
N    2.760511  -3.213568  2.104814
H    -0.689868  -0.648177  0.621838
H    -1.383500  -0.310104  2.198617
H    -1.506737  -2.634962  2.253835
H    0.051176  -2.409930  3.012758
H    0.905929  -2.600841  0.396494
H    -0.589578  -3.503752  0.254093
H    0.264181  -5.184947  1.644078
H    2.161397  -6.392322  2.249947
H    2.380593  -2.248011  1.881054
H    3.731280  -3.263896  2.388799
H    3.478623  -5.523809  2.945162
O    2.119125  0.264099  4.050306
H    2.096843  0.390496  5.019757
