27
Energy: -16518.5684704 eV PBE+vdW (tier 2 basis)
N    2.159895  -0.700749  1.160040
C    0.785504  -0.252107  1.325553
C    0.630197  0.440214  2.678433
O    1.540389  0.689012  3.435783
H    2.752106  -0.267596  1.870916
H    2.528124  -0.452743  0.245156
H    0.490006  0.507370  0.578674
C    -0.202039  -1.439414  1.176907
C    0.059009  -2.528265  2.220715
C    -0.685769  -3.834594  1.973927
N    -2.143037  -3.634661  2.072724
C    -3.055832  -4.602022  2.138367
N    -2.698812  -5.884014  1.972731
N    -4.344938  -4.305204  2.384360
H    -0.058508  -1.853603  0.167144
H    -1.229843  -1.045229  1.222884
H    -0.172742  -2.166384  3.235283
H    1.135622  -2.752512  2.205424
H    -0.389557  -4.582134  2.725007
H    -0.437279  -4.224509  0.972286
H    -2.472815  -2.675500  2.020208
H    -3.331190  -6.639711  2.202083
H    -4.623620  -3.373922  2.664339
H    -5.080002  -4.982088  2.226133
H    -1.766729  -6.129613  1.666042
O    -0.668046  0.757472  2.942541
H    -0.662416  1.240742  3.792393
