27
Energy: -16518.5033761 eV PBE+vdW (tier 2 basis)
N    0.982194  -0.307394  3.698430
C    0.108032  -0.557011  2.561818
C    0.769835  -0.895164  1.217094
O    0.231041  -1.538032  0.338915
H    1.498216  -1.150073  3.950279
H    1.680813  0.402289  3.473326
H    -0.511515  -1.435650  2.797426
C    -0.837202  0.653588  2.376954
C    -1.966451  0.443604  1.365630
C    -2.921881  1.636179  1.264279
N    -3.683525  1.913178  2.495383
C    -4.843546  1.348021  2.834525
N    -5.347100  0.329257  2.123423
N    -5.534308  1.811845  3.891307
H    -0.238997  1.534969  2.090467
H    -1.238404  0.856478  3.381661
H    -2.522846  -0.474158  1.620746
H    -1.560178  0.264805  0.360119
H    -3.643566  1.504565  0.445696
H    -2.366763  2.555964  1.037617
H    -3.254589  2.524713  3.181640
H    -4.782191  -0.167085  1.446563
H    -5.302174  2.696984  4.323181
H    -6.276114  1.268098  4.313232
H    -6.313077  0.046316  2.227430
O    2.011541  -0.362393  1.099398
H    2.343754  -0.612895  0.214461
