27
Energy: -16518.5985553 eV PBE+vdW (tier 2 basis)
N    0.636432  -1.119607  0.726622
C    0.091112  -0.294194  1.869383
C    1.082882  -0.626618  3.026709
O    1.538488  -1.838702  2.893764
H    1.324146  -0.610933  0.162848
H    -0.076133  -1.518502  0.108042
H    0.096692  0.770820  1.615058
C    -1.318511  -0.814032  2.203792
C    -1.916000  -0.344364  3.541468
C    -1.431593  -1.050393  4.817268
N    -1.669563  -2.502727  4.824177
C    -0.775235  -3.458933  5.143434
N    -1.248124  -4.615306  5.660358
N    0.530017  -3.304150  4.947947
H    -1.292233  -1.917432  2.194227
H    -2.000263  -0.508721  1.395352
H    -3.008953  -0.452576  3.472056
H    -1.729379  0.729488  3.686492
H    -1.970827  -0.618573  5.673480
H    -0.367901  -0.872840  4.997961
H    -2.640415  -2.801366  4.831989
H    -0.662782  -5.439536  5.702577
H    -2.130819  -4.646067  6.154197
H    0.943865  -2.669156  4.217838
H    1.166904  -3.958115  5.387256
O    1.252822  0.172467  3.937489
H    1.149713  -1.861079  1.370006
