27
Energy: -16518.7834147 eV PBE+vdW (tier 2 basis)
N    1.595510  0.335388  1.406458
C    0.183637  -0.057537  1.418764
C    -0.648289  1.183648  1.740243
O    -1.484336  1.288591  2.629000
H    2.174067  -0.451356  1.111235
H    1.758734  1.092001  0.742180
H    -0.193018  -0.404503  0.430295
C    -0.035305  -1.169229  2.449290
C    -1.428182  -1.803351  2.391235
C    -1.778935  -2.681749  3.594992
N    -1.525081  -2.107487  4.936567
C    -2.131388  -1.058432  5.514871
N    -2.628485  -0.051866  4.793254
N    -2.235417  -1.035496  6.858723
H    0.175056  -0.753268  3.445560
H    0.729341  -1.942235  2.278847
H    -1.514587  -2.449189  1.504298
H    -2.201924  -1.035940  2.262554
H    -1.177322  -3.598833  3.576183
H    -2.834653  -2.984511  3.538436
H    -0.974674  -2.684960  5.561820
H    -3.210788  0.635053  5.258279
H    -2.397271  -0.168331  7.355178
H    -2.158390  -1.882092  7.407804
H    -2.191918  0.256334  3.905736
O    -0.372263  2.191279  0.901529
H    -0.924120  2.959070  1.152668
