27
Energy: -16518.5438134 eV PBE+vdW (tier 2 basis)
N    0.955329  -1.086026  -0.158860
C    0.767129  -0.636402  1.226191
C    2.083815  -0.714178  2.008750
O    2.430888  -1.650722  2.701010
H    1.407441  -2.002341  -0.182364
H    1.558322  -0.441528  -0.670698
H    0.451114  0.416842  1.185609
C    -0.316818  -1.485950  1.893718
C    -0.719363  -1.000894  3.288545
C    -1.685143  -1.950627  4.002856
N    -2.964206  -2.159643  3.301321
C    -4.059964  -1.411623  3.434250
N    -4.034552  -0.269381  4.136338
N    -5.217053  -1.807025  2.873731
H    0.053196  -2.521887  1.964508
H    -1.177582  -1.486602  1.208850
H    -1.149366  0.013487  3.225571
H    0.169590  -0.923520  3.931734
H    -1.910723  -1.611707  5.023892
H    -1.228351  -2.943796  4.103420
H    -2.988420  -2.884352  2.591692
H    -4.890683  0.173852  4.443778
H    -5.987766  -1.163029  2.750660
H    -5.331958  -2.745375  2.512905
H    -3.159488  0.145318  4.428303
O    2.859490  0.374190  1.775935
H    3.713292  0.221405  2.228123
