27
Energy: -16518.9910052 eV PBE+vdW (tier 2 basis)
N    1.286930  -0.405519  1.271556
C    0.058254  -0.050576  1.999052
C    0.282210  -0.368759  3.497105
O    1.523696  -0.718702  3.788314
H    1.615892  0.347591  0.670971
H    1.176146  -1.236751  0.692334
H    -0.048901  1.045576  1.978552
C    -1.266254  -0.627243  1.459172
C    -1.362987  -2.142268  1.182925
C    -1.008050  -3.119756  2.310278
N    -1.698515  -2.770563  3.564813
C    -1.468060  -3.387203  4.738281
N    -1.407081  -2.641768  5.845388
N    -1.307880  -4.718701  4.788996
H    -1.493484  -0.116270  0.513431
H    -2.062159  -0.310892  2.149602
H    -0.727584  -2.415753  0.326469
H    -2.392086  -2.339100  0.850148
H    0.080165  -3.136186  2.492076
H    -1.297662  -4.129216  1.988851
H    -1.830329  -1.763247  3.688137
H    -1.156582  -1.653264  5.743305
H    -1.447043  -3.051328  6.770243
H    -1.606237  -5.304575  4.019999
H    -1.018401  -5.178664  5.642364
O    -0.611739  -0.303206  4.335427
H    1.975741  -0.694657  2.880211
