27
Energy: -16519.0167945 eV PBE+vdW (tier 2 basis)
N    -1.597428  1.943525  3.060556
C    -0.287089  1.577441  2.514953
C    -0.468116  0.505417  1.449987
O    -1.351380  -0.341410  1.431351
H    -2.215853  2.284272  2.323108
H    -1.483639  2.715167  3.719272
H    0.244193  2.414556  2.029264
C    0.651564  1.033911  3.629059
C    0.323041  -0.358785  4.189187
C    -1.008798  -0.425169  4.955652
N    -1.484574  -1.792249  5.179536
C    -2.387656  -2.420799  4.415656
N    -2.795429  -1.905355  3.256357
N    -2.899326  -3.593772  4.845780
H    0.656811  1.781107  4.438623
H    1.674177  1.016874  3.228989
H    1.145109  -0.671133  4.850178
H    0.303208  -1.094720  3.370999
H    -1.786964  0.127636  4.414960
H    -0.911792  0.052339  5.940279
H    -1.055764  -2.334965  5.921780
H    -3.598873  -2.306557  2.789518
H    -2.840914  -3.866582  5.817830
H    -3.421909  -4.194533  4.222671
H    -2.269210  -1.184776  2.733888
O    0.498334  0.561460  0.521760
H    0.356277  -0.174900  -0.107193
