27
Energy: -16518.9977316 eV PBE+vdW (tier 2 basis)
N    -0.457132  -1.608478  1.747536
C    0.566645  -0.564398  1.930142
C    1.693511  -0.796009  0.927041
O    2.095802  -1.895513  0.574666
H    -1.094319  -1.586360  2.545462
H    -1.030151  -1.374912  0.933796
H    0.167940  0.444063  1.735923
C    1.145631  -0.528061  3.376499
C    2.298700  -1.466082  3.784926
C    1.992753  -2.949041  4.014597
N    1.584492  -3.606634  2.772051
C    0.741471  -4.628359  2.680561
N    0.013454  -4.746197  1.559793
N    0.597096  -5.506606  3.691595
H    0.296074  -0.651875  4.067867
H    1.505925  0.497065  3.534868
H    2.693511  -1.087517  4.738550
H    3.136780  -1.377598  3.076116
H    1.188129  -3.064544  4.757942
H    2.894800  -3.430921  4.423436
H    1.737976  -3.077879  1.895295
H    -0.443776  -5.608120  1.294958
H    -0.147859  -6.190695  3.682717
H    1.324461  -5.616772  4.386366
H    -0.164292  -3.888163  1.039307
O    2.232961  0.354885  0.503698
H    2.978416  0.139722  -0.093706
