27
Energy: -16518.8626445 eV PBE+vdW (tier 2 basis)
N    2.883366  -0.677495  1.971026
C    1.600547  -1.211378  1.564550
C    0.344471  -0.360098  1.824768
O    -0.797291  -0.705542  1.521633
H    2.930693  -0.527231  2.978977
H    3.089372  0.213487  1.521123
H    1.624985  -1.284200  0.462412
C    1.390602  -2.639591  2.153287
C    1.320101  -3.776267  1.122988
C    0.206415  -3.632141  0.073520
N    -1.097215  -3.300887  0.649002
C    -2.070594  -4.141808  0.963835
N    -1.925130  -5.477017  0.869417
N    -3.257689  -3.653512  1.379612
H    0.494253  -2.662776  2.788889
H    2.243693  -2.835320  2.814538
H    1.197456  -4.724925  1.668088
H    2.275408  -3.852383  0.582193
H    0.125075  -4.534401  -0.548125
H    0.439466  -2.816544  -0.625128
H    -1.169617  -2.311372  0.964347
H    -2.734838  -6.082561  0.831386
H    -3.407622  -2.652639  1.409224
H    -3.904446  -4.234464  1.896926
H    -1.034458  -5.881334  0.614898
O    0.598487  0.820185  2.396370
H    -0.251490  1.295216  2.498243
