27
Energy: -16518.5543728 eV PBE+vdW (tier 2 basis)
N    -0.033697  -0.693583  0.257978
C    -0.497979  -0.234572  1.550060
C    -0.527503  1.286160  1.727819
O    0.209011  2.082440  1.208000
H    -0.654337  -0.396054  -0.494450
H    0.890985  -0.312201  0.050156
H    -1.540911  -0.575318  1.658918
C    0.378861  -0.863230  2.664656
C    0.054945  -2.347525  2.912893
C    -0.838021  -2.592635  4.136515
N    -2.023167  -1.718142  4.113894
C    -2.438511  -0.913775  5.097251
N    -2.227680  -1.242133  6.380800
N    -3.078979  0.222939  4.778887
H    0.286558  -0.285402  3.597295
H    1.424427  -0.750170  2.347806
H    0.975215  -2.923453  3.078704
H    -0.399627  -2.777470  2.007628
H    -0.284416  -2.362801  5.057412
H    -1.150877  -3.645223  4.183835
H    -2.446060  -1.547102  3.206579
H    -2.323136  -0.556044  7.118775
H    -3.622261  0.722318  5.472557
H    -2.808553  0.721251  3.927778
H    -2.027041  -2.197790  6.648458
O    -1.533347  1.676270  2.603684
H    -1.467900  2.651242  2.662114
