27
Energy: -16518.4954358 eV PBE+vdW (tier 2 basis)
N    -0.432511  0.535339  0.490003
C    0.335163  -0.044805  1.600179
C    1.616698  -0.708553  1.033833
O    1.588845  -0.883678  -0.292160
H    -0.184202  1.510316  0.325783
H    -1.439177  0.495156  0.642160
H    0.670237  0.709380  2.331032
C    -0.506815  -1.110128  2.333183
C    0.196930  -1.726135  3.546908
C    -0.538068  -2.922137  4.153432
N    -1.839864  -2.605028  4.770732
C    -2.024505  -2.216940  6.034012
N    -3.268432  -2.148829  6.541708
N    -0.982608  -1.897462  6.814485
H    -0.770022  -1.903193  1.612704
H    -1.451844  -0.631321  2.642600
H    0.366040  -0.947598  4.309669
H    1.199220  -2.068638  3.252514
H    0.079329  -3.420932  4.913768
H    -0.741812  -3.678409  3.383957
H    -2.662222  -2.643960  4.178451
H    -4.048971  -2.600545  6.082825
H    -3.455451  -1.665069  7.410601
H    -0.056893  -1.769529  6.426420
H    -1.083193  -1.830521  7.819273
O    2.533902  -1.068174  1.741666
H    0.730364  -0.460710  -0.577040
