27
Energy: -16518.9251775 eV PBE+vdW (tier 2 basis)
N    1.130345  -1.724498  0.734919
C    0.265805  -1.093769  1.751113
C    0.454480  0.432421  1.713592
O    1.147762  0.998734  0.897027
H    1.253974  -1.047296  -0.027854
H    2.070015  -1.834031  1.126490
H    -0.787233  -1.255936  1.457308
C    0.487239  -1.697353  3.149230
C    -0.272697  -2.989091  3.484019
C    -0.005672  -4.243080  2.623114
N    -1.078423  -4.554106  1.666575
C    -0.985761  -4.608561  0.326688
N    -0.010552  -3.977886  -0.317571
N    -1.921633  -5.312076  -0.347894
H    0.190751  -0.949839  3.895216
H    1.569890  -1.849582  3.294228
H    -1.354579  -2.785076  3.483183
H    -0.025477  -3.242145  4.524183
H    0.090326  -5.120293  3.277450
H    0.933382  -4.170695  2.063481
H    -1.947691  -4.892002  2.066453
H    0.124664  -4.177078  -1.301886
H    -2.032864  -5.201673  -1.347071
H    -2.472837  -6.028861  0.105880
H    0.498276  -3.125912  0.111239
O    -0.282320  1.056221  2.655851
H    -0.145169  2.018464  2.546037
