27
Energy: -16518.5320511 eV PBE+vdW (tier 2 basis)
N    0.734356  -0.846166  -0.155489
C    0.372111  -0.271015  1.131792
C    1.518444  -0.271912  2.153678
O    2.317800  -1.167219  2.293504
H    1.149595  -1.771041  -0.020191
H    1.446594  -0.279160  -0.616508
H    0.080024  0.776161  0.958733
C    -0.823978  -1.062621  1.703427
C    -1.461454  -0.531134  2.994077
C    -1.947403  0.919584  2.939422
N    -2.892785  1.107606  1.828119
C    -3.688515  2.161776  1.654672
N    -3.585225  3.229859  2.458725
N    -4.614587  2.158359  0.679331
H    -0.498128  -2.097643  1.885675
H    -1.557666  -1.143361  0.882985
H    -0.746922  -0.590184  3.826667
H    -2.302860  -1.183423  3.270079
H    -1.091192  1.602904  2.820841
H    -2.461151  1.166701  3.879996
H    -2.860881  0.413383  1.086585
H    -4.291322  3.954461  2.464339
H    -4.826741  1.315486  0.161398
H    -5.077450  3.010182  0.389884
H    -2.812834  3.322573  3.105276
O    1.522914  0.866175  2.911769
H    2.275775  0.785594  3.532265
