27
Energy: -16518.5519161 eV PBE+vdW (tier 2 basis)
N    0.475830  0.026649  0.457997
C    -0.393019  0.261570  1.618239
C    0.016689  1.542175  2.356718
O    0.756699  1.587039  3.320113
H    1.460023  0.061290  0.731300
H    0.336506  0.747121  -0.250878
H    -1.416171  0.395952  1.236455
C    -0.332865  -0.948247  2.553593
C    -1.344236  -0.889502  3.702203
C    -1.152849  -1.984441  4.748246
N    -1.368939  -3.320628  4.166693
C    -0.926004  -4.471152  4.671908
N    -0.368499  -4.509851  5.890681
N    -1.025185  -5.607413  3.958642
H    0.684994  -1.012751  2.970271
H    -0.481973  -1.837551  1.923631
H    -2.378776  -0.919482  3.320689
H    -1.245190  0.064345  4.239220
H    -1.850435  -1.833696  5.587238
H    -0.123415  -1.942679  5.135652
H    -1.950364  -3.369475  3.335715
H    0.153157  -5.318525  6.203272
H    -1.261302  -5.590312  2.974966
H    -0.918584  -6.513571  4.395951
H    -0.415051  -3.713067  6.512152
O    -0.496664  2.643158  1.754318
H    -0.130769  3.422934  2.217750
