27
Energy: -16518.7908936 eV PBE+vdW (tier 2 basis)
N    0.301654  -0.377735  -0.485422
C    0.433739  -0.106160  0.944384
C    1.811267  -0.540656  1.421828
O    2.485999  -1.452736  0.964056
H    -0.541596  0.068997  -0.847066
H    1.083843  0.021104  -1.005353
H    0.362602  0.962792  1.209957
C    -0.672084  -0.845496  1.773389
C    -1.268079  -2.105045  1.130925
C    -0.321827  -3.262258  0.819757
N    0.160636  -3.937537  2.040257
C    1.344056  -4.547288  2.195959
N    2.403269  -4.185013  1.470127
N    1.458572  -5.533902  3.107848
H    -1.496007  -0.135916  1.928771
H    -0.282676  -1.061658  2.779207
H    -1.743666  -1.843584  0.176803
H    -2.088833  -2.460784  1.775789
H    0.530772  -2.899705  0.238655
H    -0.848957  -4.007364  0.204125
H    -0.551185  -4.172835  2.726073
H    2.458899  -3.234960  1.077038
H    0.646249  -6.024933  3.457679
H    2.365564  -5.840578  3.434852
H    3.250289  -4.737628  1.501177
O    2.225275  0.212356  2.455650
H    3.103050  -0.117310  2.734565
