27
Energy: -16518.5333674 eV PBE+vdW (tier 2 basis)
N    -0.683185  0.559413  0.853308
C    -0.010566  -0.140016  1.938569
C    1.508276  0.080464  1.968687
O    2.223268  0.118838  0.995725
H    -0.250840  0.314842  -0.040626
H    -0.577545  1.569491  0.953453
H    -0.421998  0.242939  2.885468
C    -0.311367  -1.648473  1.811386
C    0.236137  -2.558581  2.917861
C    -0.184687  -2.187652  4.341804
N    -1.649992  -2.176192  4.474442
C    -2.360647  -1.394745  5.286906
N    -1.758708  -0.680204  6.248699
N    -3.695307  -1.309126  5.143618
H    0.092463  -1.998013  0.849532
H    -1.404967  -1.734752  1.725086
H    1.335446  -2.566367  2.909548
H    -0.063003  -3.597785  2.708704
H    0.190763  -1.185831  4.591833
H    0.244192  -2.903143  5.059796
H    -2.166167  -2.842924  3.908109
H    -2.243890  0.068688  6.725824
H    -4.280527  -0.936853  5.880417
H    -4.155687  -1.647009  4.308185
H    -0.796530  -0.856702  6.506347
O    1.975710  0.215997  3.249167
H    2.943254  0.347328  3.179328
