27
Energy: -16518.9576396 eV PBE+vdW (tier 2 basis)
N    0.801942  -0.336266  0.933994
C    -0.034725  0.385947  1.892972
C    0.806009  0.815974  3.092229
O    0.477035  0.740155  4.272830
H    1.639762  0.195257  0.699242
H    0.287671  -0.482844  0.065053
H    -0.422438  1.354962  1.504007
C    -1.254562  -0.454763  2.292640
C    -0.922658  -1.855351  2.860183
C    -1.649164  -2.175791  4.166650
N    -1.222010  -1.230525  5.202046
C    -1.518911  -1.294045  6.490575
N    -2.379589  -2.211354  6.966929
N    -0.934959  -0.432824  7.350237
H    -1.885090  -0.556613  1.398686
H    -1.857199  0.130964  3.002267
H    0.161071  -1.960608  3.012918
H    -1.185661  -2.633694  2.134123
H    -1.408729  -3.203130  4.483133
H    -2.741416  -2.106885  4.023035
H    -0.624928  -0.443644  4.879627
H    -2.834866  -2.864183  6.343770
H    -0.300474  0.271578  6.993041
H    -1.322630  -0.277350  8.271483
H    -2.473276  -2.374822  7.960469
O    1.967674  1.363456  2.715866
H    2.449624  1.648569  3.517950
