27
Energy: -16518.8467428 eV PBE+vdW (tier 2 basis)
N    -0.271813  -0.387854  -0.066250
C    -0.191989  0.059495  1.345925
C    1.222186  0.375403  1.852005
O    1.443657  1.009588  2.855334
H    0.510924  -1.021912  -0.248080
H    -0.118697  0.408071  -0.688935
H    -0.736467  1.011230  1.433054
C    -0.838618  -0.979044  2.295587
C    -2.364602  -0.869240  2.476423
C    -3.188763  -0.700116  1.190014
N    -2.769530  -1.590354  0.108551
C    -3.289701  -2.768334  -0.195155
N    -2.869809  -3.416333  -1.302444
N    -4.241992  -3.352536  0.558084
H    -0.384030  -0.877688  3.289147
H    -0.565160  -1.983376  1.935386
H    -2.596564  -0.009531  3.122219
H    -2.701810  -1.761447  3.025948
H    -3.073273  0.319530  0.797332
H    -4.262963  -0.819910  1.386192
H    -1.827991  -1.292076  -0.267499
H    -2.261338  -2.953843  -1.964436
H    -4.837878  -4.073189  0.171331
H    -4.520029  -2.948525  1.441892
H    -3.023136  -4.409301  -1.417926
O    2.186914  -0.167206  1.062017
H    3.047642  0.058774  1.467934
