27
Energy: -16519.1622183 eV PBE+vdW (tier 2 basis)
N    0.153542  -0.316250  -0.046841
C    0.196999  -0.164153  1.414839
C    1.569428  -0.679940  1.901764
O    2.247851  -1.342517  0.985048
H    0.328897  0.558530  -0.538470
H    -0.733439  -0.692186  -0.377998
H    0.143206  0.894864  1.712115
C    -0.970410  -0.945973  2.063314
C    -0.939861  -1.118710  3.586950
C    -0.959450  0.204974  4.365200
N    -0.731437  0.033276  5.801415
C    0.475257  0.032904  6.391324
N    0.534089  -0.015223  7.738638
N    1.592324  0.089926  5.672944
H    -0.997089  -1.949249  1.610561
H    -1.902721  -0.442505  1.762383
H    -0.054698  -1.699594  3.878940
H    -1.812988  -1.719821  3.880462
H    -1.926736  0.712300  4.250222
H    -0.195010  0.900042  3.995495
H    -1.523096  -0.234025  6.375759
H    -0.269884  0.213046  8.308092
H    1.413451  -0.163162  8.215386
H    1.629996  -0.093826  4.649726
H    2.478292  0.240999  6.139255
O    1.997971  -0.501023  3.037200
H    1.659513  -1.260704  0.166276
