27
Energy: -16518.5447128 eV PBE+vdW (tier 2 basis)
N    0.558441  -1.085651  1.839641
C    -0.045219  0.241310  1.886132
C    0.472536  1.303604  0.903853
O    -0.193885  2.234958  0.510044
H    1.567169  -1.025487  1.990786
H    0.437037  -1.503028  0.916832
H    -1.109250  0.138797  1.621421
C    0.058849  0.838781  3.308480
C    -0.429405  -0.097858  4.419370
C    -1.878324  -0.541251  4.234093
N    -2.311132  -1.337482  5.392424
C    -3.394718  -2.111689  5.439260
N    -4.284511  -2.092923  4.436817
N    -3.602450  -2.926717  6.488953
H    -0.496420  1.787431  3.329185
H    1.110358  1.089906  3.514379
H    -0.329304  0.429395  5.382031
H    0.206759  -0.993153  4.455198
H    -1.957183  -1.171418  3.335779
H    -2.537400  0.335768  4.118717
H    -1.759091  -1.248763  6.240033
H    -5.005475  -2.798594  4.360638
H    -4.506272  -3.349734  6.655597
H    -2.879179  -3.090381  7.177101
H    -4.226456  -1.399787  3.702383
O    1.768347  1.096630  0.555730
H    2.020178  1.829336  -0.040879
