27
Energy: -16519.0108274 eV PBE+vdW (tier 2 basis)
N    -0.222139  -1.082074  2.744975
C    1.004724  -0.462524  2.201776
C    1.333459  -0.964479  0.798645
O    2.308588  -0.628688  0.174997
H    -0.466168  -0.629279  3.628191
H    -1.010692  -0.929665  2.113851
H    0.876666  0.626783  2.068648
C    2.216909  -0.644000  3.147969
C    2.901384  -2.020498  3.223736
C    2.144086  -3.163426  3.914676
N    0.936586  -3.533486  3.177752
C    0.666380  -4.694394  2.603482
N    -0.229491  -4.726454  1.594462
N    1.253793  -5.846380  2.980977
H    1.905860  -0.317554  4.153558
H    2.975547  0.077885  2.819736
H    3.838061  -1.883499  3.783828
H    3.203280  -2.346797  2.216816
H    1.860900  -2.879484  4.939874
H    2.811165  -4.031448  3.991270
H    0.299163  -2.708524  2.972540
H    -0.749702  -5.566064  1.376256
H    1.215201  -6.668128  2.392734
H    1.748334  -5.917444  3.859569
H    -0.501053  -3.854294  1.153402
O    0.389855  -1.826762  0.290020
H    0.674300  -2.004321  -0.629739
