27
Energy: -16518.4983708 eV PBE+vdW (tier 2 basis)
N    -0.220176  0.256278  -0.433529
C    0.279085  -0.277201  0.833453
C    1.809257  -0.320493  0.814475
O    2.494351  -1.233307  1.229919
H    0.289507  1.098239  -0.698854
H    -1.204424  0.510364  -0.352100
H    0.032022  0.363163  1.711451
C    -0.314174  -1.675521  1.065164
C    -0.112197  -2.220988  2.482233
C    -0.575969  -3.670197  2.590407
N    -0.285262  -4.192865  3.935325
C    -0.734822  -5.342905  4.436007
N    -0.518090  -5.652613  5.727053
N    -1.423989  -6.194939  3.663593
H    0.126941  -2.358731  0.324800
H    -1.390116  -1.619275  0.838430
H    -0.661390  -1.604914  3.211895
H    0.958586  -2.171793  2.730564
H    -0.052282  -4.281166  1.836354
H    -1.660003  -3.746947  2.412321
H    0.393548  -3.672743  4.483268
H    -0.640374  -6.597216  6.068341
H    -1.480224  -6.061587  2.662414
H    -1.924225  -6.979006  4.061784
H    -0.135343  -4.972827  6.371217
O    2.328022  0.821339  0.306310
H    3.301219  0.732387  0.333704
