27
Energy: -16518.5854289 eV PBE+vdW (tier 2 basis)
N    0.171603  -0.406650  0.259340
C    -0.148065  -0.005589  1.624122
C    1.096710  0.343524  2.450044
O    2.206928  -0.082081  2.219554
H    1.052186  -0.928981  0.266173
H    0.339903  0.414660  -0.321064
H    -0.795945  0.883045  1.595892
C    -0.906098  -1.142474  2.351763
C    -2.212417  -1.487985  1.635378
C    -2.848736  -2.761320  2.182296
N    -4.076314  -3.074870  1.431632
C    -4.778101  -4.203344  1.529459
N    -4.474580  -5.108163  2.471212
N    -5.790686  -4.450995  0.679743
H    -1.095124  -0.850817  3.395036
H    -0.247226  -2.026144  2.375754
H    -1.989391  -1.610667  0.564321
H    -2.922755  -0.650631  1.737283
H    -3.093399  -2.640662  3.251104
H    -2.148630  -3.605083  2.077529
H    -4.421388  -2.355977  0.803365
H    -4.878682  -6.035516  2.459812
H    -5.953739  -3.864058  -0.127943
H    -6.457282  -5.191184  0.856693
H    -3.797128  -4.901097  3.193207
O    0.798976  1.161296  3.491036
H    1.631569  1.315519  3.981017
