27
Energy: -16518.5060596 eV PBE+vdW (tier 2 basis)
N    0.216754  0.058677  0.155222
C    0.014161  0.098276  1.594911
C    1.285635  0.445283  2.381533
O    2.395086  0.041486  2.122580
H    1.032741  -0.514636  -0.070115
H    0.404286  0.991415  -0.212438
H    -0.735611  0.874742  1.805592
C    -0.515185  -1.281038  2.050440
C    -0.781900  -1.457937  3.550543
C    -1.848298  -0.498038  4.092125
N    -2.156315  -0.709157  5.514869
C    -3.068623  -1.550872  6.003404
N    -3.370462  -1.529507  7.314021
N    -3.708426  -2.415245  5.202579
H    0.217954  -2.040173  1.740222
H    -1.426862  -1.473880  1.465773
H    0.144421  -1.321093  4.129028
H    -1.090294  -2.500777  3.727805
H    -2.787004  -0.568044  3.522154
H    -1.510761  0.541753  4.008272
H    -1.564859  -0.232233  6.187621
H    -3.068451  -0.770068  7.910549
H    -3.397842  -2.578880  4.254073
H    -4.549950  -2.886501  5.508614
H    -3.869480  -2.294048  7.750333
O    1.023136  1.269297  3.445682
H    1.887132  1.453969  3.867186
