27
Energy: -16518.838743 eV PBE+vdW (tier 2 basis)
N    0.432972  -0.238277  0.185143
C    -0.297146  0.054392  1.404626
C    0.657549  0.196502  2.579817
O    0.409870  0.827499  3.604400
H    -0.189764  -0.241337  -0.621376
H    0.909496  -1.138824  0.222817
H    -0.753693  1.050574  1.289503
C    -1.454199  -0.939431  1.755929
C    -2.464399  -0.451903  2.811991
C    -2.160874  -0.921043  4.243735
N    -2.957092  -0.221389  5.258077
C    -2.637859  0.962624  5.801094
N    -3.451632  1.487310  6.740555
N    -1.542861  1.622898  5.428092
H    -1.029955  -1.919068  2.028918
H    -1.987063  -1.099892  0.809183
H    -3.471663  -0.800050  2.542353
H    -2.510931  0.647973  2.789472
H    -1.103302  -0.793014  4.502119
H    -2.378620  -1.991145  4.353030
H    -3.893975  -0.566996  5.434768
H    -4.158988  0.925627  7.195228
H    -0.922757  1.314495  4.660131
H    -1.229666  2.418686  5.969632
H    -3.293237  2.415970  7.107740
O    1.799996  -0.479489  2.425657
H    2.345158  -0.338492  3.225861
