27
Energy: -16518.6023952 eV PBE+vdW (tier 2 basis)
N    1.105802  0.584935  1.145552
C    0.200443  0.005378  2.123673
C    0.820138  -1.302288  2.589940
O    1.418678  -2.083820  1.898854
H    1.347291  -0.097253  0.425377
H    0.693800  1.400018  0.693605
H    0.159013  0.685413  2.988845
C    -1.245688  -0.266492  1.604012
C    -2.243016  -0.847840  2.616500
C    -2.547217  0.115336  3.772016
N    -3.309917  -0.498827  4.864168
C    -2.775554  -1.054757  5.956915
N    -1.456845  -1.251997  6.056821
N    -3.577547  -1.403938  6.980667
H    -1.171835  -0.946064  0.743115
H    -1.626813  0.689746  1.212248
H    -1.866133  -1.800009  3.019461
H    -3.181692  -1.092073  2.097854
H    -3.130968  0.974309  3.415125
H    -1.630634  0.530147  4.210967
H    -4.314510  -0.582432  4.748266
H    -1.043405  -1.449226  6.959438
H    -4.525848  -1.057783  7.048296
H    -3.254592  -2.025932  7.710242
H    -0.828082  -1.227707  5.248162
O    0.596680  -1.557884  3.937838
H    1.044659  -2.413177  4.103862
