27
Energy: -16518.6163341 eV PBE+vdW (tier 2 basis)
N    2.298822  -0.364912  1.538032
C    1.038673  -1.086698  1.557462
C    -0.005553  -0.413882  2.452452
O    -1.174846  -0.779996  2.516481
H    2.963875  -0.795631  0.897446
H    2.185952  0.607445  1.254391
H    0.527218  -1.127846  0.569919
C    1.272391  -2.536926  2.052680
C    1.747849  -3.535831  0.986499
C    0.701969  -3.961178  -0.057408
N    -0.481177  -4.608386  0.536255
C    -1.512201  -3.949938  1.087432
N    -1.898134  -2.740422  0.645272
N    -2.210826  -4.506468  2.088149
H    0.360104  -2.913491  2.535799
H    2.031062  -2.475427  2.845217
H    2.116659  -4.438063  1.497730
H    2.614797  -3.141619  0.433520
H    1.137419  -4.681747  -0.759946
H    0.376274  -3.110722  -0.669758
H    -0.389508  -5.593609  0.766538
H    -1.993328  -1.993397  1.354882
H    -1.851704  -5.285414  2.625452
H    -3.124921  -4.140697  2.327423
H    -1.484555  -2.419750  -0.222735
O    0.463256  0.622236  3.151444
H    -0.280567  0.987366  3.673373
