27
Energy: -16518.6105788 eV PBE+vdW (tier 2 basis)
N    0.155850  -0.547297  -0.284704
C    -0.089659  -0.025917  1.067267
C    1.190312  0.554972  1.677920
O    1.953387  -0.060530  2.397552
H    1.018900  -1.093856  -0.310338
H    0.265729  0.215115  -0.952988
H    -0.831107  0.780886  0.978815
C    -0.627967  -1.136857  1.976546
C    -1.961016  -1.719171  1.512650
C    -2.467136  -2.870439  2.384028
N    -1.635832  -4.087209  2.321017
C    -0.734415  -4.492349  3.218925
N    -0.273007  -3.660131  4.163258
N    -0.296052  -5.764577  3.193912
H    -0.725394  -0.726925  2.997089
H    0.150499  -1.916874  2.012026
H    -1.875433  -2.045915  0.466251
H    -2.740062  -0.941341  1.528242
H    -3.474952  -3.171516  2.069135
H    -2.544503  -2.577267  3.440553
H    -1.763911  -4.683431  1.509310
H    0.263756  -4.013592  4.945144
H    -0.799895  -6.484344  2.691646
H    0.563283  -6.031634  3.657014
H    -0.287048  -2.656362  4.018898
O    1.407755  1.823525  1.260262
H    2.270208  2.106853  1.624793
