27
Energy: -16518.8853106 eV PBE+vdW (tier 2 basis)
N    1.181051  -0.653267  1.230965
C    -0.208310  -0.728210  1.671868
C    -0.465445  -0.226454  3.098314
O    -1.260558  -0.699792  3.905470
H    1.833678  -0.978362  1.943173
H    1.450097  0.301513  1.000984
H    -0.773791  -0.011401  1.050388
C    -0.813141  -2.115965  1.372545
C    -0.074916  -3.330741  1.961570
C    -0.539765  -3.834003  3.332698
N    -1.877233  -4.445103  3.294080
C    -3.006423  -3.969998  3.834839
N    -3.095115  -2.718268  4.279583
N    -4.076305  -4.788728  3.921697
H    -0.785682  -2.202566  0.279407
H    -1.878449  -2.127706  1.647459
H    1.004007  -3.126317  2.023998
H    -0.151879  -4.169024  1.252545
H    -0.549105  -3.041281  4.087953
H    0.151801  -4.608171  3.694010
H    -1.955508  -5.323497  2.791501
H    -3.873582  -2.450110  4.868005
H    -3.981044  -5.791738  3.835476
H    -4.998806  -4.421636  4.113432
H    -2.383737  -1.996018  4.063514
O    0.271060  0.853214  3.396550
H    0.023473  1.146280  4.296602
