27
Energy: -16519.056273 eV PBE+vdW (tier 2 basis)
N    0.924491  1.106853  0.748651
C    0.486358  -0.078183  1.502122
C    1.563601  -1.176930  1.291762
O    2.653844  -0.743337  0.697403
H    2.435967  0.229068  0.509738
H    0.809793  1.972633  1.270936
H    0.557814  0.177698  2.571940
C    -0.945220  -0.592908  1.187427
C    -1.860770  -0.868474  2.394016
C    -1.332369  -1.878725  3.425352
N    -0.839112  -3.113747  2.825530
C    -1.456305  -4.279736  2.735914
N    -0.774035  -5.350235  2.277902
N    -2.745121  -4.448209  3.093993
H    -0.880684  -1.492407  0.558658
H    -1.445495  0.167259  0.572514
H    -2.830478  -1.214622  2.005028
H    -2.064379  0.069975  2.932522
H    -2.097243  -2.096468  4.183416
H    -0.482848  -1.453057  3.979021
H    0.085517  -2.979693  2.346502
H    -1.262516  -6.156850  1.911399
H    0.205173  -5.253312  2.036829
H    -3.104848  -5.372387  3.295066
H    -3.296547  -3.663059  3.411326
O    1.435933  -2.343523  1.657920
H    0.431482  1.205378  -0.138885
