27
Energy: -16518.5831224 eV PBE+vdW (tier 2 basis)
N    0.928673  -0.607232  0.906367
C    -0.327972  0.032527  1.271246
C    -0.217992  1.558441  1.366940
O    0.765865  2.142578  1.767239
H    1.073766  -0.571892  -0.101880
H    1.706888  -0.096891  1.331644
H    -1.090554  -0.214764  0.519419
C    -0.806055  -0.494280  2.647863
C    -1.071345  -1.999255  2.622553
C    -1.278327  -2.640763  3.992991
N    -2.499896  -2.202712  4.696612
C    -2.581562  -1.310465  5.685343
N    -1.558397  -0.492953  5.969600
N    -3.704477  -1.232391  6.423399
H    -1.702000  0.067634  2.956250
H    0.004157  -0.265111  3.366041
H    -0.205815  -2.491298  2.154442
H    -1.938927  -2.218997  1.980284
H    -0.423639  -2.454154  4.658336
H    -1.358985  -3.731211  3.892212
H    -3.373000  -2.624232  4.395290
H    -1.523108  0.013457  6.844961
H    -3.906197  -0.415481  6.985641
H    -4.389423  -1.977279  6.418706
H    -0.817984  -0.332442  5.296819
O    -1.363263  2.177882  0.985835
H    -1.215432  3.140285  1.084846
