15
Energy: -601001.563316 eV PBE+vdW (tier 2 basis)
N    0.429000  -1.441102  0.101944
C    -0.434721  -0.345684  0.689309
C    0.312183  0.052029  1.982282
O    1.329718  -0.527217  2.306257
H    1.235986  -1.512321  0.782973
H    -0.048175  -2.349816  0.057618
H    -0.423324  0.510848  -0.000207
C    -1.897619  -0.755651  0.896228
O    -2.028572  -1.810442  1.848132
H    -2.332485  -1.075670  -0.064270
H    -2.439135  0.141676  1.228602
H    0.785786  -1.214525  -0.835043
O    -0.286954  1.050893  2.611265
H    0.252010  1.334916  3.381391
Pb    -3.181699  -2.836930  3.215517
