15
Energy: -600999.754068 eV PBE+vdW (tier 2 basis)
N    0.071387  0.117719  -0.104981
C    -0.027382  0.039334  1.307086
C    1.362350  0.067801  1.967341
O    2.403978  0.273503  1.431756
H    -0.505911  0.792609  -0.596458
H    0.989975  -0.035447  -0.518196
H    -0.615653  0.873358  1.724369
C    -0.768696  -1.304260  1.632304
O    -0.880552  -1.525758  3.126732
H    -0.225937  -2.157497  1.207297
H    -1.790574  -1.258776  1.241595
H    -0.023621  -1.098806  3.513041
O    1.233856  -0.211348  3.332149
H    2.121363  -0.199726  3.753488
Pb    -2.429509  -2.736044  4.190810
