15
Energy: -601001.289374 eV PBE+vdW (tier 2 basis)
N    -0.077065  -1.072317  -0.209333
C    -0.098652  -0.155755  0.981212
C    1.394303  0.153895  1.297741
O    2.263203  -0.530590  0.803339
H    -0.047980  -0.497840  -1.063102
H    0.877205  -1.508433  -0.174641
H    -0.645556  0.760918  0.726647
C    -0.726057  -0.838105  2.192805
O    -1.976760  -1.495669  1.737914
H    -0.985411  -0.098290  2.959417
H    -0.076461  -1.611958  2.624676
H    -2.577435  -1.665783  2.491406
O    1.509616  1.163846  2.141253
H    2.455316  1.341673  2.343747
Pb    -1.944567  -2.589551  -0.311069
