15
Energy: -601000.865383 eV PBE+vdW (tier 2 basis)
N    4.045686  -0.128069  -0.072608
C    4.098911  -0.578126  1.276474
C    5.505940  -1.050394  1.677374
O    6.543196  -0.615672  1.093386
H    4.023210  -0.837593  -0.799991
H    3.405383  0.637161  -0.259576
H    3.926071  0.288981  1.942855
C    3.020072  -1.635913  1.582534
O    3.177584  -2.091123  3.034574
H    3.106146  -2.525330  0.945756
H    2.018332  -1.201344  1.526130
H    2.634581  -2.875841  3.267288
O    5.646859  -1.886831  2.668004
H    4.191849  -2.246293  3.157065
Pb    8.055156  -1.666010  2.453944
