15
Energy: -601001.366 eV PBE+vdW (tier 2 basis)
N    0.486687  -0.412391  0.049178
C    0.265629  0.087788  1.438452
C    1.555282  0.011066  2.240081
O    2.516096  -0.709852  1.866316
H    0.570785  0.381390  -0.597960
H    -0.402446  -0.885287  -0.210872
H    -0.094812  1.127594  1.397078
C    -0.828761  -0.797727  2.114710
O    -1.803319  -0.958016  1.109696
H    -1.210153  -0.276593  3.007163
H    -0.398293  -1.765302  2.437399
H    -2.596742  -1.406481  1.451477
O    1.695706  0.636558  3.366606
H    0.946478  1.216401  3.620571
Pb    2.516102  -1.808934  -0.112793
