15
Energy: -601001.382136 eV PBE+vdW (tier 2 basis)
N    -1.629778  -1.167387  -1.796159
C    -1.739432  -0.739753  -0.338649
C    -0.357332  -0.315584  0.217352
O    -0.174395  -0.160867  1.391908
H    -1.086455  -2.038064  -1.897528
H    -1.126392  -0.447080  -2.338803
H    -2.372889  0.160158  -0.336274
C    -2.368356  -1.816343  0.550945
O    -3.779638  -1.907796  0.362750
H    -2.121534  -1.531252  1.583422
H    -1.910512  -2.801394  0.356814
H    -2.555262  -1.315160  -2.222870
O    0.518491  -0.130386  -0.789205
H    1.376560  0.184145  -0.430124
Pb    -5.605078  -2.363241  1.211420
