15
Energy: -601001.377232 eV PBE+vdW (tier 2 basis)
N    -1.281845  0.648348  1.390672
C    -1.497750  1.256343  2.731116
C    -0.179579  1.398537  3.462075
O    0.811110  0.680324  3.161020
H    -2.140588  0.086548  1.212284
H    -1.259081  1.375391  0.665493
H    -1.992387  2.233671  2.625974
C    -2.441817  0.271021  3.547556
O    -3.374235  -0.282325  2.655962
H    -2.898320  0.813312  4.385828
H    -1.836615  -0.552076  3.961072
H    -4.263143  0.093820  2.781134
O    -0.037684  2.190958  4.479422
H    -0.810309  2.761384  4.676756
Pb    0.821243  -0.656253  1.336636
