15
Energy: -601002.086592 eV PBE+vdW (tier 2 basis)
N    0.278566  -0.493928  0.014596
C    0.183316  -0.260128  1.481801
C    1.579329  -0.517836  2.076389
O    2.304889  -1.403596  1.584396
H    -0.651521  -0.442010  -0.418025
H    0.844633  0.233900  -0.438234
H    -0.166506  0.757839  1.715297
C    -0.816162  -1.268086  2.079407
O    -0.409959  -2.590167  1.624281
H    -1.831821  -1.046992  1.719341
H    -0.805602  -1.229569  3.177362
H    -0.942392  -3.289581  2.047286
O    2.008927  0.120741  3.124342
H    1.432928  0.847575  3.440522
Pb    1.351061  -2.757534  -0.055482
