15
Energy: -601000.619076 eV PBE+vdW (tier 2 basis)
N    -0.349797  -0.167672  -0.062049
C    -0.132828  -0.076921  1.342377
C    1.303136  0.123493  1.811833
O    1.694373  -0.249650  2.979086
H    -0.536316  0.708714  -0.540369
H    0.299378  -0.747317  -0.587956
H    -0.662169  0.813260  1.732550
C    -0.768416  -1.336266  2.006716
O    -0.605589  -1.345952  3.463207
H    -0.298754  -2.245476  1.603257
H    -1.828020  -1.333371  1.729719
H    0.908942  -0.700954  3.443141
O    2.137083  0.675816  1.008792
H    3.037989  0.788977  1.394434
Pb    -1.706814  -2.092478  5.095046
