15
Energy: -601000.631827 eV PBE+vdW (tier 2 basis)
N    -0.138059  0.179639  0.134583
C    -0.224061  -0.073492  1.563189
C    1.158642  -0.423994  2.063309
O    1.592208  -1.642844  2.055387
H    0.180020  1.119345  -0.100397
H    0.383126  -0.508074  -0.406306
H    -0.543792  0.851722  2.064750
C    -1.260165  -1.151054  1.916736
O    -0.863132  -2.459527  1.400109
H    -2.215920  -0.837870  1.478161
H    -1.367920  -1.237502  3.008330
H    0.826667  -2.246765  1.807117
O    1.954347  0.525349  2.406050
H    2.867968  0.220228  2.618003
Pb    -1.885996  -4.127619  0.643030
