15
Energy: -601001.617026 eV PBE+vdW (tier 2 basis)
N    0.290886  1.106526  1.906012
C    0.338120  0.666461  3.356068
C    1.646898  1.304095  3.904220
O    1.993774  0.899142  5.112485
H    -0.622470  1.487888  1.625368
H    0.548964  0.368695  1.237389
H    -0.515472  1.139271  3.862956
C    0.259904  -0.842896  3.600129
O    1.604722  -1.437865  3.606235
H    -0.347296  -1.354110  2.841006
H    -0.213163  -1.015147  4.574709
H    1.566485  -2.333175  3.222101
O    2.249591  2.094076  3.208104
H    1.031285  1.860136  1.856760
Pb    3.134773  -0.858095  5.541459
