15
Energy: -601000.894334 eV PBE+vdW (tier 2 basis)
N    -0.142250  -0.188168  0.015989
C    0.147487  -0.220123  1.414380
C    1.549573  -0.707013  1.812200
O    2.554999  -0.495099  1.065038
H    0.003054  0.704042  -0.446932
H    0.208208  -0.961804  -0.542365
H    0.095508  0.808140  1.817379
C    -0.978494  -1.046387  2.064335
O    -0.693411  -1.165854  3.556722
H    -1.046692  -2.060303  1.651880
H    -1.933433  -0.521129  1.987891
H    -1.288034  -1.793316  4.022314
O    1.730256  -1.344764  2.934324
H    0.302284  -1.419752  3.628646
Pb    4.110607  -1.392706  2.498680
