15
Energy: -601001.565374 eV PBE+vdW (tier 2 basis)
N    -0.374858  -0.230950  0.260781
C    -0.193076  -0.251716  1.762843
C    1.350140  -0.184444  1.929039
O    2.062344  -0.193604  0.945274
H    0.627034  -0.256425  -0.096926
H    -0.897837  -1.036578  -0.102573
H    -0.641419  0.657954  2.183304
C    -0.790935  -1.494202  2.435246
O    -2.216589  -1.476414  2.406070
H    -0.425222  -1.506880  3.471636
H    -0.428889  -2.410773  1.938991
H    -0.824909  0.627167  -0.080334
O    1.710163  -0.119158  3.197508
H    2.688194  -0.058218  3.271625
Pb    -4.021143  -2.058761  3.214518
