15
Energy: -601002.109794 eV PBE+vdW (tier 2 basis)
N    0.079072  -0.389636  0.060332
C    -0.089922  0.113455  1.477061
C    1.293453  0.287988  2.104367
O    2.341717  0.203617  1.376807
H    -0.687340  -0.087331  -0.556310
H    0.980350  -0.093994  -0.345420
H    -0.578798  1.098425  1.461074
C    -0.952184  -0.914177  2.226237
O    -0.326788  -2.157829  1.926838
H    -1.991418  -0.866293  1.861671
H    -0.945302  -0.673884  3.299635
H    -0.869842  -2.903313  2.235724
O    1.372470  0.547476  3.349458
H    0.066643  -1.431588  0.134304
Pb    3.689890  0.655086  3.276222
