15
Energy: -601001.757056 eV PBE+vdW (tier 2 basis)
N    -0.090783  -0.027452  -0.055523
C    -0.070873  0.041534  1.458754
C    1.374214  0.024122  1.949741
O    2.227955  -0.714507  1.346378
H    -1.030984  -0.275354  -0.402891
H    0.574854  -0.744872  -0.390782
H    0.166525  0.870965  -0.491297
H    -0.555062  0.974864  1.769457
C    -0.818654  -1.202043  2.022690
O    -0.398485  -1.343205  3.356297
H    -0.546059  -2.086503  1.412555
H    -1.903028  -1.028261  1.927394
H    -1.075543  -1.809998  3.874031
O    1.683713  0.694897  2.984556
Pb    3.759883  -0.316557  3.119108
