15
Energy: -601001.782876 eV PBE+vdW (tier 2 basis)
N    -0.311651  -1.271935  0.228389
C    -0.064830  -0.385521  1.445211
C    1.453072  -0.221424  1.663951
O    2.026259  -0.410342  2.735700
H    -1.292253  -1.187897  -0.083327
H    0.291796  -1.020708  -0.571071
H    -0.459238  0.610428  1.185894
C    -0.798803  -0.943646  2.666924
O    -0.241787  -2.169297  3.102703
H    -1.861890  -1.101931  2.414750
H    -0.790611  -0.150263  3.433803
H    -0.151208  -2.264464  0.468765
O    2.053201  0.182588  0.561857
H    3.017306  0.331599  0.696080
Pb    1.434018  -2.209724  4.399176
