19
Energy: -240145.246421 eV PBE+vdW (tier 2 basis)
N    0.66481  -1.79165  0.14892
C    -0.01622  -0.77998  1.02133
C    0.87523  0.42798  1.36152
O    0.65201  1.20585  2.25466
H    1.30559  -1.27079  -0.45967
H    1.28692  -2.33428  0.75835
H    -0.84380  -0.34906  0.43143
C    -0.59354  -1.40374  2.30500
C    -2.02372  -1.97750  2.17474
C    -2.09118  -2.87355  0.96954
O    -2.54691  -2.39913  -0.13463
O    -1.52835  -4.02595  1.00029
H    -0.60614  -0.62371  3.07521
H    0.09032  -2.19076  2.65916
H    -2.75101  -1.16504  2.06206
H    -2.26123  -2.54728  3.08141
O    1.91587  0.55072  0.48950
H    2.39888  1.36542  0.73308
Ba    -0.86082  -3.69830  -1.33797
