19
Energy: -240144.996126 eV PBE+vdW (tier 2 basis)
N    -0.83346  0.50117  1.35694
C    0.52838  0.06065  1.63088
C    1.49898  0.34185  0.47882
O    1.17096  0.47977  -0.67849
H    -0.89204  1.51866  1.39258
H    -1.08673  0.24295  0.39947
H    0.90005  0.58829  2.52046
C    0.54889  -1.46105  1.91780
C    -0.42775  -1.86933  3.02042
C    0.01204  -1.63377  4.43060
O    1.04325  -0.91003  4.70890
O    -0.66835  -2.15667  5.39841
H    1.57315  -1.77688  2.15505
H    0.25776  -1.98699  0.99623
H    -0.72121  -2.92611  2.94735
H    -1.36403  -1.29467  2.88713
O    2.78973  0.39169  0.90643
H    3.34109  0.53708  0.11166
Ba    0.73510  -1.19624  7.09964
