19
Energy: -240145.861896 eV PBE+vdW (tier 2 basis)
N    0.66546  -0.07046  -0.18398
C    0.21715  -0.06487  1.22852
C    1.44644  -0.29729  2.11876
O    2.51723  -0.69905  1.67988
H    -0.10988  -0.37934  -0.77366
H    0.90073  0.88151  -0.46947
H    -0.18355  0.92924  1.49439
C    -0.93368  -1.08368  1.50648
C    -0.57794  -2.56728  1.73970
C    0.40727  -3.10292  0.71546
O    0.20843  -2.87137  -0.52434
O    1.50710  -3.60104  1.13272
H    -1.62930  -0.99412  0.66019
H    -1.49472  -0.73009  2.38333
H    -1.50956  -3.14864  1.68876
H    -0.15181  -2.72511  2.73799
O    1.33200  -0.05723  3.42387
H    0.44762  0.28382  3.65408
Ba    2.66501  -2.17006  -0.53968
