19
Energy: -240144.732255 eV PBE+vdW (tier 2 basis)
N    0.18290  0.51639  0.22599
C    0.02068  -0.08077  1.53436
C    1.36245  -0.40796  2.19623
O    1.49601  -0.57619  3.38902
H    -0.68707  0.88244  -0.15334
H    0.61676  -0.10834  -0.45134
H    -0.44284  0.66985  2.19278
C    -0.83266  -1.38173  1.63078
C    -2.28873  -1.15791  1.17771
C    -3.08125  -2.41347  1.36565
O    -3.88960  -2.53044  2.36469
O    -2.92988  -3.40621  0.55325
H    -0.81568  -1.72301  2.67642
H    -0.37048  -2.16410  1.00990
H    -2.30800  -0.88983  0.11100
H    -2.75508  -0.35585  1.76407
O    2.36561  -0.55598  1.29838
H    3.16657  -0.78021  1.81221
Ba    -4.42365  -4.82748  1.82313
