19
Energy: -240146.144692 eV PBE+vdW (tier 2 basis)
N    1.42726  -1.37424  1.52082
C    0.45083  -0.25527  1.53408
C    1.10887  0.94175  2.21466
O    2.18017  0.88977  2.81634
H    0.90834  -2.25439  1.49314
H    1.97782  -1.33027  0.66133
H    0.22368  0.07276  0.50658
C    -0.92035  -0.64802  2.16375
C    -1.06815  -0.65369  3.70218
C    0.12364  -1.28046  4.39883
O    0.82664  -0.54763  5.17750
O    0.51472  -2.44655  4.05410
H    -1.16309  -1.64223  1.76249
H    -1.67418  0.03768  1.75729
H    -1.97753  -1.21860  3.94994
H    -1.19735  0.36405  4.08820
O    0.39911  2.05767  2.08303
H    0.85601  2.78231  2.55735
Ba    2.84656  -1.43664  4.03439
