19
Energy: -240145.861246 eV PBE+vdW (tier 2 basis)
N    -0.44429  -0.06404  0.51646
C    0.01537  -0.16976  1.89476
C    1.53366  0.02428  1.96379
O    2.41653  -0.76909  1.59494
H    -0.31614  0.86613  0.12385
H    -0.04004  -0.77230  -0.09849
H    -0.39755  0.68910  2.43897
C    -0.50239  -1.45030  2.60201
C    -0.74041  -2.69884  1.72329
C    0.53947  -3.21256  1.12118
O    1.36600  -3.86144  1.85431
O    0.85076  -2.88388  -0.08256
H    -1.47222  -1.18880  3.04404
H    0.16244  -1.70616  3.43939
H    -1.45672  -2.46903  0.92658
H    -1.16566  -3.48114  2.36471
O    1.85925  1.23792  2.40965
H    2.83205  1.34558  2.37421
Ba    3.24389  -2.96667  0.55089
