19
Energy: -240144.791587 eV PBE+vdW (tier 2 basis)
N    0.19355  0.43309  0.14208
C    0.00402  -0.05229  1.49197
C    1.38889  -0.25151  2.10759
O    2.34559  -0.68170  1.50327
H    -0.67477  0.56666  -0.36954
H    0.82898  -0.16284  -0.38790
H    -0.52533  0.71501  2.07656
C    -0.75258  -1.40642  1.66314
C    -2.20506  -1.32810  1.15067
C    -2.87463  -2.65988  1.28898
O    -3.65186  -2.90111  2.29021
O    -2.64874  -3.59117  0.42298
H    -0.75610  -1.68235  2.72899
H    -0.20483  -2.18415  1.11066
H    -2.20441  -1.05599  0.08511
H    -2.77383  -0.58260  1.72084
O    1.40371  0.05979  3.42743
H    2.31035  -0.12040  3.74736
Ba    -4.04141  -5.18829  1.58843
