19
Energy: -240144.902231 eV PBE+vdW (tier 2 basis)
N    -0.36160  0.42951  -0.03881
C    -0.08355  0.09192  1.36647
C    1.38520  -0.29940  1.54967
O    1.84376  -1.42005  1.41429
H    0.06574  -0.24542  -0.67490
H    0.03044  1.34149  -0.27237
H    -0.25609  1.00309  1.95372
C    -1.04395  -0.98796  1.88873
C    -1.06621  -2.26707  1.04987
C    -1.87368  -3.39016  1.61405
O    -2.16413  -4.40315  0.86280
O    -2.26175  -3.39032  2.84422
H    -2.04899  -0.54407  1.90947
H    -0.77707  -1.23008  2.92667
H    -0.03889  -2.66000  0.93880
H    -1.42784  -2.08834  0.02684
O    2.15574  0.78335  1.81849
H    3.08342  0.47403  1.84702
Ba    -3.26127  -5.58857  2.64430
