19
Energy: -240145.776166 eV PBE+vdW (tier 2 basis)
N    0.02798  -0.03894  -0.20328
C    -0.07470  -0.11650  1.28526
C    1.34193  0.00017  1.86684
O    2.31431  0.25919  1.18650
H    0.17754  -1.00069  -0.53040
H    0.93873  0.41453  -0.37817
H    -0.60849  0.78190  1.64053
C    -0.84585  -1.36399  1.76072
C    -2.38665  -1.20414  1.79369
C    -2.85759  -0.54545  0.52398
O    -3.06237  0.72336  0.52779
O    -2.87507  -1.20727  -0.57284
H    -0.51327  -1.62019  2.77277
H    -0.57317  -2.21344  1.11543
H    -2.68336  -0.58264  2.64646
H    -2.84529  -2.19504  1.89744
O    1.36187  -0.15621  3.20073
H    2.28206  -0.01989  3.50383
Ba    -2.16006  0.84629  -1.74567
