19
Energy: -240145.213886 eV PBE+vdW (tier 2 basis)
N    0.34265  -0.58339  -0.02502
C    0.04910  -0.21088  1.41485
C    1.34303  0.27885  2.11764
O    1.40403  1.41370  2.52502
H    -0.57863  -0.70475  -0.46369
H    0.71155  0.27096  -0.45881
H    -0.56917  0.69737  1.40287
C    -0.79747  -1.27240  2.14248
C    -0.15675  -2.61358  2.57821
C    0.60231  -3.22673  1.43665
O    0.00541  -3.74650  0.44208
O    1.88910  -3.06075  1.40291
H    -1.66880  -1.48786  1.50405
H    -1.19849  -0.79030  3.04420
H    -0.96191  -3.29040  2.89025
H    0.52129  -2.46762  3.42753
O    2.39906  -0.55441  2.20972
H    2.18695  -1.50366  1.99548
Ba    1.77670  -2.81870  -1.04369
