19
Energy: -240144.982471 eV PBE+vdW (tier 2 basis)
N    -0.65637  0.78304  0.68781
C    -0.13927  0.12364  1.88200
C    1.37251  0.19479  2.12962
O    1.88263  0.18940  3.22934
H    -0.52722  1.79265  0.74328
H    -0.15311  0.47091  -0.14421
H    -0.58593  0.60632  2.76243
C    -0.55578  -1.36520  1.88232
C    -2.07291  -1.55024  1.84209
C    -2.79009  -1.38837  3.14747
O    -4.03887  -1.71051  3.22979
O    -2.18991  -0.92742  4.19196
H    -0.12173  -1.86349  2.75894
H    -0.12385  -1.84732  0.99273
H    -2.36344  -2.53052  1.43745
H    -2.50816  -0.80962  1.14593
O    2.08421  0.23178  0.97206
H    3.02859  0.24492  1.22409
Ba    -4.17945  -1.09479  5.56002
