19
Energy: -240145.750186 eV PBE+vdW (tier 2 basis)
N    -0.86785  0.36060  0.17422
C    -0.46300  -0.00407  1.53299
C    0.97898  0.45652  1.74614
O    1.97333  -0.15385  1.33148
H    -0.28585  -0.09195  -0.53142
H    -0.86349  1.36603  0.00602
H    -1.11185  0.55010  2.23216
C    -0.68558  -1.50784  1.74646
C    -0.45487  -2.03835  3.17924
C    1.01824  -2.05348  3.51318
O    1.52793  -1.08761  4.18603
O    1.76321  -2.95701  2.99330
H    -0.05896  -2.07409  1.04123
H    -1.72887  -1.69337  1.45997
H    -0.83448  -3.06659  3.22680
H    -0.99466  -1.43172  3.91747
O    1.18856  1.64218  2.33113
H    0.35374  2.00950  2.67723
Ba    3.64446  -1.36801  2.88237
