19
Energy: -240145.790441 eV PBE+vdW (tier 2 basis)
N    0.32738  -0.10141  -0.11877
C    -0.11896  0.23690  1.22154
C    1.02067  0.79983  2.05406
O    0.85021  1.45949  3.09479
H    0.59649  0.72087  -0.65899
H    -0.41839  -0.57127  -0.63024
H    -0.90467  1.01739  1.27090
C    -0.67828  -1.04754  1.92642
C    -2.08035  -0.88092  2.54480
C    -2.03689  0.15483  3.64123
O    -1.46513  -0.13560  4.75135
O    -2.43323  1.35013  3.39766
H    0.01739  -1.40888  2.69582
H    -0.70980  -1.83309  1.16077
H    -2.38975  -1.84366  2.97186
H    -2.80982  -0.57662  1.78425
O    2.23447  0.53175  1.60198
H    2.89043  0.91807  2.21797
Ba    -0.73976  2.20771  4.98561
