19
Energy: -240145.982051 eV PBE+vdW (tier 2 basis)
N    0.63998  -0.52063  0.14721
C    0.17107  -0.18314  1.50789
C    1.40749  -0.12073  2.42071
O    2.54904  -0.32303  2.01299
H    -0.14109  -0.86217  -0.41535
H    0.97619  0.32524  -0.31686
H    -0.24202  0.84271  1.54007
C    -0.96230  -1.12900  2.01777
C    -0.99998  -2.55346  1.42363
C    0.38252  -3.16236  1.30621
O    1.20513  -2.96160  2.26516
O    0.75155  -3.69499  0.20834
H    -1.92586  -0.64755  1.80759
H    -0.88712  -1.20506  3.11105
H    -1.47966  -2.57522  0.43722
H    -1.61714  -3.18291  2.08067
O    1.23681  0.25310  3.68392
H    0.29507  0.39296  3.89761
Ba    2.90808  -2.43245  0.49156
