19
Energy: -240145.746105 eV PBE+vdW (tier 2 basis)
N    -0.60593  1.25982  0.88933
C    -0.06668  0.41162  1.93611
C    1.43434  0.14687  1.81180
O    2.25724  0.35162  2.72138
H    -0.52709  0.84280  -0.03762
H    -0.18542  2.18725  0.87007
H    -0.17721  0.94191  2.89094
C    -0.89928  -0.89288  2.01835
C    -0.30852  -2.06214  2.82878
C    0.39762  -1.66289  4.10514
O    -0.02240  -0.66248  4.78914
O    1.49327  -2.25081  4.41825
H    -1.07792  -1.25163  0.99457
H    -1.87317  -0.58877  2.42011
H    0.40287  -2.65081  2.23555
H    -1.12254  -2.75330  3.09626
O    1.81800  -0.30110  0.62084
H    2.78906  -0.42294  0.61943
Ba    2.34276  -0.11413  5.29557
