19
Energy: -240145.740312 eV PBE+vdW (tier 2 basis)
N    1.41618  -0.87686  0.83195
C    0.14044  -0.55992  1.47709
C    0.54219  0.56670  2.43387
O    0.98112  0.43096  3.58703
H    1.32989  -1.00843  -0.17173
H    1.86979  -1.68807  1.24691
H    -0.51474  -0.09094  0.73040
C    -0.56909  -1.77500  2.09085
C    -1.90269  -1.51255  2.82877
C    -1.64323  -1.00689  4.22733
O    -1.01963  -1.77729  5.04588
O    -1.90586  0.20491  4.54220
H    0.11606  -2.30307  2.77118
H    -0.75936  -2.45742  1.25086
H    -2.44314  -2.46528  2.90907
H    -2.53769  -0.80185  2.28577
O    0.45038  1.75903  1.85667
H    0.84585  2.43695  2.44029
Ba    0.11052  0.16601  6.00661
