19
Energy: -240145.021489 eV PBE+vdW (tier 2 basis)
N    -0.47127  -0.14712  0.29358
C    0.06666  -0.02052  1.64207
C    1.57685  -0.27198  1.70548
O    2.19289  -0.93535  0.90006
H    0.02990  -0.89176  -0.19814
H    -0.31058  0.70624  -0.24011
H    -0.12526  0.99781  2.01074
C    -0.63240  -1.02978  2.58606
C    -2.14356  -0.80244  2.57719
C    -2.97244  -1.92854  3.09811
O    -4.13626  -1.68769  3.60819
O    -2.56644  -3.15194  3.01347
H    -0.22438  -0.93564  3.60172
H    -0.41027  -2.04802  2.23568
H    -2.43797  -0.66182  1.51660
H    -2.44145  0.11621  3.10005
O    2.14081  0.31041  2.79378
H    3.09200  0.08280  2.77678
Ba    -4.61796  -4.02626  3.94655
