19
Energy: -240145.208699 eV PBE+vdW (tier 2 basis)
N    0.09160  0.06467  0.06004
C    -0.17772  -0.09398  1.47986
C    1.11592  -0.07105  2.29611
O    2.08037  -0.77029  2.16826
H    0.48209  0.97813  -0.16689
H    0.73026  -0.65219  -0.28669
H    -0.79941  0.75316  1.79634
C    -0.97302  -1.39936  1.70369
C    -1.12269  -1.87560  3.16090
C    -1.39402  -0.76472  4.14264
O    -0.78372  -0.74901  5.27073
O    -2.13190  0.23241  3.79748
H    -0.48217  -2.20341  1.13742
H    -1.95254  -1.23417  1.23942
H    -0.23372  -2.41547  3.51000
H    -1.95979  -2.58853  3.21811
O    1.15236  0.98270  3.27267
H    2.07514  0.93658  3.60086
Ba    -0.77384  1.69720  5.20148
