19
Energy: -240146.234017 eV PBE+vdW (tier 2 basis)
N    0.30170  -0.42782  0.15936
C    0.01796  -0.29359  1.60187
C    1.38518  -0.46005  2.30945
O    1.55015  -0.37522  3.53607
H    0.04059  0.39907  -0.37396
H    -0.16471  -1.23378  -0.25505
H    -0.30424  0.73663  1.81957
C    -1.06288  -1.27926  2.12884
C    -2.09415  -0.66736  3.10094
C    -1.42555  -0.23282  4.38492
O    -1.08581  0.99232  4.53325
O    -1.08976  -1.12692  5.23772
H    -0.59205  -2.15311  2.60013
H    -1.61700  -1.65368  1.25732
H    -2.84479  -1.43312  3.33414
H    -2.59556  0.19228  2.63885
O    2.37550  -0.68382  1.49402
H    1.88475  -0.66055  0.57883
Ba    0.87365  0.22982  5.88472
