19
Energy: -240145.183428 eV PBE+vdW (tier 2 basis)
N    -0.02625  -0.00539  0.05364
C    0.13590  -0.02177  1.49512
C    1.61384  0.09766  1.79193
O    2.53126  -0.33746  1.16141
H    -1.01156  -0.02395  -0.20431
H    0.44123  -0.79632  -0.39027
H    -0.35887  0.87963  1.88687
C    -0.42594  -1.26862  2.28165
C    -1.67471  -0.94538  3.13352
C    -1.27649  0.07326  4.16765
O    -0.57512  -0.28897  5.17829
O    -1.48542  1.32285  3.93847
H    0.33859  -1.70965  2.93788
H    -0.67798  -2.03570  1.53853
H    -2.01998  -1.86044  3.63049
H    -2.48452  -0.54377  2.51204
O    1.89224  0.78839  3.01861
H    2.86920  0.72529  3.06697
Ba    0.54512  1.89276  5.18281
