19
Energy: -240144.855312 eV PBE+vdW (tier 2 basis)
N    -0.34610  0.29355  0.14585
C    -0.00967  -0.09442  1.52139
C    1.50902  -0.21340  1.69468
O    2.14860  -1.24644  1.63193
H    0.07865  -0.34996  -0.52459
H    0.00470  1.22778  -0.06582
H    -0.36547  0.71131  2.18137
C    -0.71566  -1.40778  1.86275
C    -0.51606  -1.83834  3.31452
C    -1.11146  -3.16559  3.67581
O    -1.19046  -3.50816  4.91989
O    -1.51901  -3.98515  2.76932
H    -0.34281  -2.19624  1.19430
H    -1.78230  -1.27253  1.63994
H    -0.90186  -1.10022  4.03452
H    0.56033  -1.93242  3.54454
O    2.08235  1.00604  1.86241
H    3.05017  0.86694  1.87977
Ba    -2.06184  -5.69611  4.39643
