19
Energy: -240145.808750 eV PBE+vdW (tier 2 basis)
N    0.27228  0.12735  -0.13093
C    -0.14473  0.24673  1.25630
C    0.97934  0.85128  2.07792
O    0.81771  1.60228  3.05336
H    -0.53202  -0.04352  -0.73239
H    0.93864  -0.63184  -0.27258
H    -0.96204  0.98134  1.29183
C    -0.63893  -1.06555  1.98172
C    -2.01854  -0.93863  2.66314
C    -1.98507  0.16240  3.69426
O    -1.36584  -0.02755  4.79974
O    -2.44982  1.31961  3.38921
H    0.09952  -1.41398  2.71839
H    -0.69812  -1.84384  1.20985
H    -2.25987  -1.88952  3.15534
H    -2.79541  -0.71343  1.92212
O    2.18936  0.46868  1.69761
H    2.85663  0.87735  2.28518
Ba    -0.80825  2.37895  4.90306
