19
Energy: -240145.820975 eV PBE+vdW (tier 2 basis)
N    -0.57077  0.58577  0.44523
C    0.02991  0.17271  1.69540
C    1.54125  0.36979  1.82209
O    2.13949  0.58135  2.89076
H    -0.21454  0.05999  -0.35259
H    -0.44054  1.57838  0.25487
H    -0.40352  0.78643  2.50002
C    -0.29909  -1.32965  1.98911
C    -1.01757  -1.56987  3.33317
C    -0.14884  -1.08495  4.46650
O    -0.37371  0.06922  4.98154
O    0.89021  -1.76003  4.79691
H    0.60607  -1.95178  1.94576
H    -0.95825  -1.65993  1.17623
H    -1.19846  -2.64618  3.44901
H    -1.97693  -1.03934  3.35417
O    2.20106  0.28890  0.67198
H    3.15825  0.39888  0.84388
Ba    2.03599  0.31929  5.46597
