19
Energy: -240145.777056 eV PBE+vdW (tier 2 basis)
N    0.04672  0.13056  0.13506
C    -0.08279  0.03957  1.57675
C    1.30210  -0.05917  2.22237
O    2.27929  -0.60083  1.70364
H    0.14730  -0.78491  -0.30596
H    -0.75884  0.59767  -0.27527
H    -0.50095  0.99918  1.92099
C    -1.01135  -1.08894  2.16828
C    -1.04764  -2.41623  1.38094
C    0.32876  -2.99695  1.14123
O    1.01472  -3.43726  2.12439
O    0.83012  -2.92947  -0.04033
H    -2.03450  -0.69088  2.18796
H    -0.73493  -1.29278  3.21370
H    -1.54375  -2.27922  0.41324
H    -1.63745  -3.13509  1.96566
O    1.45878  0.43832  3.44897
H    0.64796  0.88443  3.75711
Ba    3.12343  -2.85200  0.91226
