14
Energy: -162928.45648 eV PBE+vdW (tier 2 basis)
N    0.147593  0.326678  0.131261
C    0.099643  0.099502  1.612183
C    1.513183  0.040954  2.209908
O    2.547772  -0.258826  1.566868
H    -0.644811  -0.143620  -0.323912
H    0.072507  1.325642  -0.102392
H    -0.404433  0.962234  2.078344
H    -0.683633  -1.345504  3.032139
C    -0.641790  -1.201963  1.945734
H    -1.675519  -1.144238  1.580241
H    -0.150181  -2.082754  1.505203
H    2.420885  0.185588  3.888913
O    1.527045  0.279770  3.482458
Cd    2.149739  -0.466462  -0.569947
