14
Energy: -162928.772558 eV PBE+vdW (tier 2 basis)
N    -0.140490  0.161890  0.071827
C    -0.034612  -0.027716  1.580574
C    1.450644  -0.100321  1.983922
O    2.346513  -0.104342  1.081713
H    0.218818  -0.659234  -0.440298
H    0.379366  0.986057  -0.266800
H    -1.130901  0.282723  -0.194154
H    -0.442355  0.887149  2.036737
C    -0.821011  -1.257719  2.021578
H    -1.877991  -1.149978  1.741563
H    -0.776422  -1.344546  3.113335
H    -0.425468  -2.182523  1.580164
O    1.712294  -0.155453  3.224481
Cd    3.876615  -0.227986  2.761359
