36
Energy: -611334.190662 eV PBE+vdW (tier 2 basis)
C    3.173683  0.803790  1.222374
C    2.048810  0.958245  2.191181
O    2.189153  1.790402  3.153183
H    2.969620  0.077041  0.429462
H    4.071089  0.491820  1.775557
H    3.402495  1.779993  0.774113
N    0.954714  0.214031  2.024194
C    -0.246958  0.038700  2.880422
C    -1.149229  1.274436  2.788027
O    -0.835470  2.379049  3.385774
H    0.973656  -0.396657  1.210262
H    -0.766571  -0.789819  2.380277
C    0.082936  -0.432311  4.308806
C    -1.073806  -1.040956  5.124838
C    -1.660785  -2.403084  4.656978
N    -2.821599  -2.297211  3.772264
C    -2.762321  -2.029318  2.426598
N    -1.693804  -2.593778  1.735305
N    -3.555088  -1.232021  1.765106
H    0.511450  0.391452  4.911336
H    0.896453  -1.167673  4.222512
H    -1.898611  -0.318508  5.231874
H    -0.681018  -1.189187  6.140799
H    -1.988500  -2.956330  5.545523
H    -0.886142  -3.023467  4.188333
H    -3.650622  -1.918400  4.222013
H    -1.877588  -2.602865  0.733660
H    -1.393776  -3.507438  2.067903
H    -4.311013  -0.878100  2.359758
N    -2.247546  1.198230  2.081361
C    -3.171000  2.318396  1.893479
H    -2.596419  0.246376  1.748615
H    -4.025456  1.955146  1.316211
H    -2.680001  3.127519  1.339252
H    -3.514145  2.709517  2.859372
Pb    0.959179  3.136609  4.429561
