36
Energy: -611335.341363 eV PBE+vdW (tier 2 basis)
C    0.283288  0.174394  0.750591
C    0.377061  0.496761  2.215503
O    1.493664  0.860043  2.674595
H    0.541283  1.072953  0.174431
H    -0.704582  -0.178926  0.435794
H    1.034850  -0.587154  0.507008
N    -0.767536  0.366941  2.926360
C    -1.098130  0.624849  4.346815
C    0.134138  1.214864  5.017607
O    1.010366  0.397291  5.513944
H    -1.571490  0.103795  2.362540
H    -1.877963  1.401769  4.341873
C    -1.715247  -0.614003  5.031374
C    -0.891754  -1.908315  5.039532
C    -1.706232  -3.141694  5.455542
N    -2.187003  -3.134467  6.846494
C    -1.614092  -3.759704  7.884685
N    -2.309323  -3.942491  9.017082
N    -0.352343  -4.202928  7.809897
H    -2.680022  -0.802115  4.529769
H    -1.966588  -0.307026  6.058354
H    -0.008887  -1.787029  5.680847
H    -0.509342  -2.114955  4.028217
H    -1.120733  -4.058698  5.304871
H    -2.597635  -3.246674  4.821161
H    -3.079251  -2.687523  7.029287
H    -1.851822  -4.222211  9.876708
H    -3.319751  -3.873334  9.035292
H    0.267009  -3.914829  7.064362
N    0.448626  2.492115  4.941297
C    -0.378489  3.518736  4.314824
H    0.011644  -4.859844  8.489768
H    -0.462638  3.388720  3.224607
H    0.073857  4.496845  4.506507
H    -1.387973  3.539297  4.748874
Pb    2.639053  1.733407  4.547943
