36
Energy: -611334.952145 eV PBE+vdW (tier 2 basis)
C    0.523407  2.987694  0.330137
C    0.488068  1.754778  1.172816
O    1.492682  0.981318  1.223922
H    -0.394671  3.581310  0.393626
H    0.693469  2.702596  -0.717080
H    1.374612  3.610067  0.636890
N    -0.626119  1.491244  1.877064
C    -0.734101  0.336123  2.763828
C    -1.528957  -0.856374  2.188618
O    -0.943157  -1.961223  2.160002
H    -1.383730  2.166389  1.821298
H    0.286068  -0.040685  2.766590
C    -1.072480  0.717476  4.217387
C    -1.125583  -0.447227  5.228535
C    0.019117  -1.488814  5.226981
N    1.350731  -0.920051  4.961153
C    2.114809  -1.118156  3.886277
N    1.684318  -1.968722  2.814824
N    3.269238  -0.540737  3.611720
H    -2.033671  1.247711  4.272308
H    -0.311296  1.449117  4.527944
H    -2.054362  -1.021778  5.100179
H    -1.199288  0.007457  6.225796
H    -0.165265  -2.266589  4.481170
H    0.053875  -1.988020  6.204039
H    1.706232  -0.255749  5.647315
H    2.050768  -2.919903  2.922086
H    0.633382  -2.008280  2.616905
H    3.690539  0.068065  4.314981
N    -2.792932  -0.728966  1.769982
C    -3.639391  0.460038  1.718391
H    -3.187449  -1.592933  1.399264
H    -4.686012  0.143283  1.766640
H    -3.497106  1.020469  0.783693
H    -3.463913  1.113717  2.579819
Pb    3.170022  -0.611614  1.279631
