36
Energy: -611334.992474 eV PBE+vdW (tier 2 basis)
C    0.163578  0.980124  0.573955
C    -0.155235  0.809526  2.027665
O    0.807003  1.218667  2.841204
H    -0.705982  0.776232  -0.056642
H    0.988060  0.311358  0.290412
H    0.508568  2.005326  0.389278
N    -1.308301  0.318782  2.398076
C    -1.572511  0.251178  3.825958
C    -0.723536  -0.843989  4.503575
O    0.143149  -0.473356  5.381942
H    -2.433338  -0.781062  -0.941742
H    -1.172681  1.165811  4.309578
C    -3.070430  0.281581  4.233187
C    -4.151072  -0.535707  3.500759
C    -4.723049  0.072278  2.216207
N    -3.785982  -0.005775  1.093510
C    -4.149252  0.055992  -0.186472
N    -5.402781  0.368066  -0.546476
N    -3.237516  -0.203410  -1.147599
H    -3.365273  1.341182  4.188702
H    -3.105985  0.022816  5.301999
H    -5.000670  -0.607741  4.194604
H    -3.846781  -1.571026  3.310452
H    -5.015359  1.120340  2.403978
H    -5.632216  -0.485055  1.948412
H    -2.773475  0.076738  1.356566
H    -5.728403  0.231836  -1.495871
H    -6.047846  0.798061  0.103960
H    -3.448974  -0.039876  -2.124255
N    -0.788026  -2.135319  4.226503
C    -1.589257  -2.850116  3.237702
H    -0.143855  -2.701825  4.780312
H    -2.450369  -3.337339  3.711712
H    -0.959826  -3.622805  2.782193
H    -1.920465  -2.160299  2.458546
Pb    1.520783  1.252265  4.889960
