36
Energy: -611334.110714 eV PBE+vdW (tier 2 basis)
C    0.230134  0.497055  0.188256
C    0.026441  0.402322  1.659635
O    0.929646  0.888961  2.448232
H    -0.639258  1.000002  -0.280012
H    0.302938  -0.508120  -0.252624
H    1.150937  1.044881  -0.026513
N    -1.092145  -0.143447  2.126947
C    -1.551112  -0.081725  3.523700
C    -0.951801  -1.255750  4.318847
O    0.292020  -1.229351  4.641877
H    -1.762664  -0.516960  1.401913
H    -1.091474  0.814559  3.972637
C    -3.074904  0.123842  3.602141
C    -3.980834  -0.918656  2.904558
C    -5.003859  -0.292756  1.918823
N    -4.450368  0.715200  1.024870
C    -3.452376  0.547422  0.090535
N    -2.947521  -0.781303  -0.004288
N    -2.853416  1.441804  -0.609115
H    -3.255804  1.107189  3.144797
H    -3.341782  0.235037  4.662181
H    -4.569777  -1.482884  3.643856
H    -3.380897  -1.662159  2.359532
H    -5.794138  0.208362  2.490821
H    -5.505007  -1.104910  1.366373
H    -4.890899  1.626945  1.029865
H    -2.438610  -0.857443  -0.886150
H    -3.670743  -1.501334  0.019204
H    -3.206183  2.389460  -0.455574
N    -1.708000  -2.271878  4.673639
C    -1.274141  -3.451719  5.425439
H    -2.686868  -2.233784  4.393163
H    -1.923466  -3.577536  6.299561
H    -0.239566  -3.319651  5.747308
H    -1.353615  -4.341664  4.788824
Pb    1.947395  0.254997  4.291195
