36
Energy: -611333.901529 eV PBE+vdW (tier 2 basis)
C    -2.757078  -0.213375  0.503339
C    -1.931076  -0.111567  1.741688
O    -0.721159  0.316151  1.635091
H    -3.469261  -1.050418  0.547122
H    -2.100142  -0.327391  -0.364608
H    -3.323294  0.721721  0.370405
N    -2.482997  -0.458100  2.899354
C    -1.853625  -0.608932  4.221821
C    -1.440346  0.744745  4.810324
O    -0.314627  1.289053  4.526783
H    -3.417350  -0.955009  2.869491
H    -2.677438  -0.976381  4.846172
C    -0.742945  -1.678266  4.289950
C    -1.109232  -2.996488  3.594337
C    -2.381460  -3.733699  4.123653
N    -3.278061  -4.185329  3.064076
C    -4.047496  -3.321072  2.300180
N    -4.647958  -2.248765  3.037278
N    -4.284542  -3.349150  1.042785
H    -0.503704  -1.837432  5.352558
H    0.201199  -1.315787  3.836515
H    -0.242402  -3.665219  3.673500
H    -1.243826  -2.811892  2.519101
H    -2.947838  -3.105686  4.824301
H    -2.086197  -4.616399  4.702454
H    -2.932239  -4.980944  2.533336
H    -5.431921  -1.909702  2.474710
H    -5.011066  -2.559791  3.940608
H    -3.778934  -4.087868  0.546671
N    -2.242302  1.371245  5.651505
C    -3.562483  0.958416  6.143631
H    -1.875231  2.256330  6.005866
H    -4.016143  1.818856  6.643429
H    -3.473788  0.143352  6.873224
H    -4.215006  0.662528  5.314788
Pb    1.032166  1.065967  2.749497
