36
Energy: -611335.018313 eV PBE+vdW (tier 2 basis)
C    0.595636  0.772578  0.021040
C    0.283577  0.671304  1.479439
O    1.185852  0.995197  2.323867
H    0.880191  1.809596  -0.204369
H    -0.241440  0.482155  -0.622155
H    1.467248  0.146113  -0.209114
N    -0.931681  0.272134  1.850474
C    -1.477246  0.212121  3.222785
C    -1.017556  -1.077937  3.925298
O    0.199206  -1.024037  4.510231
H    -1.561310  -0.014551  1.104743
H    -1.056648  1.075253  3.764395
C    -3.003028  0.356516  3.139484
C    -3.670603  0.523034  4.508819
C    -5.187607  0.749616  4.434721
N    -5.967053  -0.406201  3.967882
C    -6.572981  -1.314491  4.744104
N    -7.480520  -2.145980  4.209978
N    -6.286696  -1.407341  6.049298
H    -3.394888  -0.542957  2.640342
H    -3.229888  1.233847  2.512654
H    -3.247797  1.396386  5.029404
H    -3.448661  -0.358100  5.129023
H    -5.421362  1.579025  3.753205
H    -5.580318  1.048647  5.416008
H    -6.100939  -0.508454  2.967784
H    -7.807789  -2.961572  4.713769
H    -7.920346  -1.947476  3.319573
H    -5.484128  -0.941223  6.450476
N    -1.790919  -2.087346  3.909157
C    -1.377419  -3.350361  4.495091
H    -6.890471  -1.919756  6.680961
H    -2.210575  -3.760016  5.080621
H    -0.481727  -3.285211  5.127063
H    -1.186814  -4.069587  3.684689
Pb    1.947001  0.179558  4.296670
