36
Energy: -611335.040423 eV PBE+vdW (tier 2 basis)
C    -0.614699  -0.906438  -0.000733
C    -0.534742  -0.202675  1.319703
O    0.453605  0.679709  1.401801
H    -1.386905  -1.680586  0.002686
H    0.352364  -1.368316  -0.237681
H    -0.822594  -0.179206  -0.797510
N    -1.410449  -0.457199  2.251280
C    -1.321260  0.280439  3.508079
C    -0.101908  -0.170528  4.324231
O    0.881870  0.645630  4.474455
H    -3.212401  -1.107902  1.798228
H    -1.120249  1.354015  3.314024
C    -2.664521  0.209897  4.253946
C    -3.750819  0.932225  3.440171
C    -5.164761  0.384499  3.626074
N    -5.344325  -1.074208  3.413556
C    -5.138579  -1.779648  2.282228
N    -5.981971  -2.784188  1.990674
N    -4.107534  -1.522115  1.470007
H    -2.567019  0.652996  5.254573
H    -2.945164  -0.841564  4.397670
H    -3.494134  0.916771  2.372115
H    -3.789468  1.996099  3.715065
H    -5.856351  0.930180  2.967335
H    -5.500052  0.552777  4.656974
H    -6.009271  -1.501817  4.050884
H    -5.733416  -3.506881  1.325008
H    -6.917566  -2.817551  2.379002
H    -4.099360  -1.951087  0.551575
N    0.006944  -1.371371  4.867536
C    -0.914891  -2.505350  4.803723
H    0.876875  -1.516012  5.381168
H    -1.600192  -2.503652  5.660637
H    -0.321397  -3.424798  4.832977
H    -1.473365  -2.479339  3.863806
Pb    1.682340  1.848598  2.737197
