36
Energy: -611335.2454 eV PBE+vdW (tier 2 basis)
C    -0.796169  -0.424712  -0.387071
C    -0.522954  -0.438814  1.078301
O    0.657988  -0.613888  1.510484
H    -0.562449  0.570316  -0.798187
H    -1.830513  -0.681446  -0.636709
H    -0.109648  -1.128902  -0.872529
N    -1.521206  -0.257667  1.973376
C    -2.588311  0.723288  1.831597
C    -1.943866  2.128392  1.875915
O    -0.749532  2.287805  2.285459
H    -1.284761  -0.476406  2.947669
H    -3.062884  0.589954  0.848797
C    -3.663379  0.494657  2.925075
C    -3.467300  1.134874  4.314062
C    -2.117046  1.005395  5.028321
N    -1.593477  -0.378956  5.052639
C    -0.291334  -0.650195  5.395324
N    -0.070280  -1.729887  6.165930
N    0.696028  0.113453  4.931017
H    -3.769237  -0.596308  3.010271
H    -4.629865  0.844919  2.542136
H    -4.260397  0.727465  4.958643
H    -3.675445  2.214307  4.263572
H    -2.230754  1.376048  6.058813
H    -1.362076  1.635505  4.552818
H    -2.261311  -1.067070  5.396556
H    0.862884  -2.109123  6.282016
H    -0.804386  -2.154796  6.722035
H    1.568172  -0.078852  5.429506
N    -2.643228  3.185943  1.486930
C    -4.018964  3.242509  0.987321
H    -2.147763  4.073933  1.571421
H    -4.105304  4.101844  0.315434
H    -4.733383  3.368024  1.811202
H    -4.269655  2.341060  0.418909
Pb    1.282022  1.180807  2.899125
