36
Energy: -611335.724417 eV PBE+vdW (tier 2 basis)
C    -0.574079  0.228571  0.068450
C    -1.037063  -0.291865  1.393309
O    -0.920309  -1.531478  1.659678
H    0.499602  0.024606  -0.045752
H    -0.749224  1.299714  -0.075378
H    -1.086242  -0.331469  -0.725929
N    -1.569991  0.590842  2.249532
C    -2.208169  0.446444  3.571509
C    -1.424237  -0.424536  4.570979
O    -0.248933  -0.827366  4.349377
H    -1.611678  1.541554  1.890336
H    -2.096783  1.452898  4.010659
C    -3.744270  0.229073  3.465384
C    -4.322832  -1.020991  2.785900
C    -4.167951  -2.369015  3.498124
N    -2.809422  -2.869101  3.323129
C    -2.200387  -3.866607  3.984331
N    -2.916452  -4.628923  4.836718
N    -0.880435  -4.030866  3.801896
H    -4.126370  1.103784  2.919159
H    -4.179488  0.336824  4.471906
H    -3.948534  -1.112094  1.753610
H    -5.400289  -0.837041  2.675797
H    -4.898788  -3.075753  3.072483
H    -4.389818  -2.271857  4.573075
H    -2.276343  -2.473289  2.547217
H    -2.463566  -5.366737  5.363019
H    -3.924616  -4.697630  4.752581
H    -0.531044  -4.926676  4.143098
N    -1.989127  -0.613394  5.759513
C    -1.313448  -1.281815  6.873919
H    -2.902186  -0.206939  5.936459
H    -1.949353  -1.204605  7.759471
H    -0.348792  -0.803016  7.077911
H    -1.147159  -2.340924  6.642278
Pb    0.700327  -2.524503  3.074341
