36
Energy: -611335.077972 eV PBE+vdW (tier 2 basis)
C    -0.686000  1.128715  -0.401403
C    -1.250759  0.114100  0.532261
O    -0.684287  -1.012459  0.672877
H    0.169344  1.635141  0.072767
H    -1.416952  1.877026  -0.722902
H    -0.284456  0.603226  -1.277026
N    -2.384675  0.369365  1.234955
C    -2.636072  1.619070  1.941686
C    -1.674265  1.650511  3.164655
O    -1.025863  0.620948  3.517895
H    -2.731209  -0.443843  1.744448
H    -2.352823  2.443921  1.272286
C    -4.129420  1.822215  2.315490
C    -4.711111  1.107452  3.555251
C    -5.295862  -0.306012  3.381622
N    -4.327060  -1.324323  2.952045
C    -3.292454  -1.807976  3.680611
N    -3.166697  -1.441442  4.972511
N    -2.315415  -2.555956  3.142757
H    -4.719994  1.596673  1.415125
H    -4.263237  2.901079  2.475832
H    -5.549558  1.719854  3.916775
H    -3.977508  1.123477  4.376298
H    -6.086446  -0.298321  2.621465
H    -5.786799  -0.623018  4.315624
H    -4.474772  -1.750320  2.042648
H    -2.566378  -2.015928  5.553803
H    -3.924784  -0.972357  5.454199
H    -2.585636  -2.976244  2.249589
N    -1.568285  2.800174  3.818479
C    -0.717353  3.044272  4.984981
H    -2.101093  3.592722  3.467646
H    -1.313183  3.503265  5.782001
H    0.101482  3.722827  4.715587
H    -0.305337  2.094967  5.333009
Pb    -0.197181  -1.564169  2.918176
