36
Energy: -611334.848377 eV PBE+vdW (tier 2 basis)
C    0.090228  1.322004  1.695898
C    -0.413478  0.076353  2.356476
O    0.339187  -0.596493  3.173640
H    0.370316  2.064644  2.458491
H    -0.653165  1.779371  1.035414
H    0.982472  1.085003  1.098787
N    -1.632302  -0.328675  2.114441
C    -2.300991  -1.559144  2.536176
C    -3.402313  -1.695650  1.428959
O    -3.642094  -0.700549  0.733823
H    -2.250981  0.125181  1.394986
H    -1.589839  -2.397178  2.485895
C    -2.948985  -1.483658  3.935792
C    -2.009362  -1.563397  5.153953
C    -1.492009  -0.216793  5.678667
N    -0.764421  -0.387774  6.937150
C    0.509400  -0.099053  7.229664
N    0.853704  -0.077916  8.534359
N    1.454678  0.173473  6.294224
H    -3.644387  -2.331383  3.998917
H    -3.582672  -0.584638  3.983595
H    -1.161316  -2.230979  4.942763
H    -2.573521  -2.038538  5.970730
H    -2.335351  0.463500  5.871594
H    -0.827680  0.285444  4.972600
H    -1.327674  -0.712364  7.718999
H    1.823416  -0.104574  8.824779
H    0.159688  -0.092721  9.273551
H    2.267436  0.566940  6.777488
N    -4.021383  -2.877273  1.327688
C    -5.092930  -3.146187  0.367995
H    -3.715805  -3.642418  1.920159
H    -6.005356  -3.448896  0.895225
H    -4.791072  -3.943297  -0.321731
H    -5.286595  -2.231348  -0.197743
Pb    2.266676  -0.179786  4.193383
