36
Energy: -611335.233082 eV PBE+vdW (tier 2 basis)
C    0.536044  0.845574  0.404976
C    0.482257  0.911698  1.899719
O    1.579306  0.993685  2.555551
H    1.489948  0.402203  0.099497
H    0.516811  1.866280  -0.007862
H    -0.301073  0.286007  -0.028390
N    -0.653129  0.897164  2.633415
C    -1.861118  1.528097  2.110996
C    -1.671792  3.054679  2.291514
O    -0.822240  3.495259  3.132027
H    -0.423698  -1.251956  2.881335
H    -1.980754  1.322236  1.034719
C    -3.129201  1.070792  2.864657
C    -3.842983  -0.193816  2.361461
C    -3.187164  -1.561746  2.606710
N    -2.380775  -2.076013  1.478747
C    -1.160551  -2.632642  1.578508
N    -0.794768  -3.598307  0.724152
N    -0.306837  -2.197523  2.513398
H    -3.870300  1.881528  2.832780
H    -2.868392  0.958662  3.929417
H    -4.090906  -0.090466  1.293108
H    -4.813915  -0.222260  2.875435
H    -3.976151  -2.304721  2.791008
H    -2.556655  -1.552311  3.502795
H    -2.914102  -2.347709  0.656508
H    -1.482246  -4.151557  0.224975
H    0.175998  -3.871967  0.621554
H    0.538915  -2.710740  2.730191
N    -2.388057  3.923869  1.590604
C    -3.438527  3.669749  0.606761
H    -2.200771  4.900951  1.819567
H    -3.364284  4.419352  -0.187955
H    -4.432492  3.742872  1.067874
H    -3.322052  2.679092  0.157680
Pb    0.519235  2.042340  4.379919
