36
Energy: -611333.818936 eV PBE+vdW (tier 2 basis)
C    0.913633  0.965527  1.248228
C    0.357111  0.204323  2.389193
O    0.901136  0.290230  3.545787
H    0.771515  0.448406  0.291123
H    1.970566  1.192742  1.408949
H    0.331475  1.918226  1.198279
N    -0.770903  -0.501908  2.203390
C    -1.652740  -1.043913  3.251144
C    -1.133816  -2.431356  3.678215
O    -0.120414  -2.512511  4.456973
H    -1.137189  -0.511843  1.253614
H    -1.525196  -0.404280  4.139652
C    -3.136059  -0.980221  2.843246
C    -3.696399  0.451977  2.682308
C    -3.694522  0.971062  1.223298
N    -3.803314  2.408249  1.088396
C    -2.683636  3.217036  1.102696
N    -2.807278  4.430507  0.511860
N    -1.541381  2.878888  1.655972
H    -3.701238  -1.496955  3.631440
H    -3.306257  -1.550312  1.912116
H    -3.140814  1.146121  3.330197
H    -4.726824  0.471499  3.059182
H    -4.532200  0.513902  0.679898
H    -2.776896  0.650880  0.698235
H    -4.673006  2.785887  0.729879
H    -2.032759  5.076033  0.600770
H    -3.519504  4.634543  -0.176603
H    -1.701268  2.069214  2.257457
N    -1.730361  -3.519405  3.235777
C    -1.340568  -4.899560  3.535769
H    -2.548079  -3.390526  2.643075
H    -1.024876  -5.399527  2.611834
H    -2.201489  -5.432586  3.955687
H    -0.519401  -4.897525  4.254813
Pb    1.347381  -1.007660  5.298518
