36
Energy: -611335.274229 eV PBE+vdW (tier 2 basis)
C    -2.405882  -0.247380  0.013892
C    -2.018851  -0.768901  1.364247
O    -1.341425  -1.832490  1.453742
H    -3.052863  0.635334  0.048621
H    -2.914272  -1.044466  -0.544371
H    -1.493966  -0.000624  -0.547129
N    -2.439549  -0.075265  2.437123
C    -2.290794  -0.364224  3.879959
C    -0.813679  -0.241251  4.315133
O    0.016324  -1.176719  4.106578
H    -2.989995  0.750878  2.222560
H    -2.863229  0.434522  4.364040
C    -2.820536  -1.725270  4.367806
C    -4.147371  -2.243600  3.801272
C    -4.230366  -3.784093  3.879106
N    -3.156096  -4.405737  3.092056
C    -1.894104  -4.650481  3.508592
N    -1.620261  -4.790661  4.824226
N    -0.847492  -4.714585  2.660459
H    -2.881253  -1.656106  5.464523
H    -2.032866  -2.453834  4.171710
H    -4.265888  -1.951186  2.746739
H    -5.008277  -1.817046  4.334594
H    -5.189350  -4.136226  3.480413
H    -4.186712  -4.139096  4.916982
H    -3.229325  -4.241150  2.091741
H    -0.759246  -5.274890  5.053966
H    -2.365395  -4.865798  5.506303
H    -1.165921  -4.869665  1.698257
N    -0.416631  0.853619  4.953181
C    -1.198481  2.038029  5.328021
H    0.565782  0.843668  5.228006
H    -1.653466  2.511080  4.449825
H    -0.512724  2.760385  5.779235
H    -1.968675  1.792664  6.069773
Pb    0.524369  -2.808041  2.459613
