36
Energy: -611335.032781 eV PBE+vdW (tier 2 basis)
C    0.251468  -3.165573  2.033447
C    -0.213174  -1.881656  2.647083
O    0.564043  -0.828586  2.356031
H    0.326141  -3.053011  0.943587
H    1.258701  -3.412082  2.395989
H    -0.434447  -3.980931  2.276719
N    -1.297058  -1.859097  3.359073
C    -1.747422  -0.596168  3.914225
C    -0.839794  -0.205182  5.087286
O    -0.051616  0.802876  4.955976
H    -7.128723  -3.818861  1.390268
H    -1.608966  0.236970  3.191776
C    -3.254916  -0.638578  4.236421
C    -4.077428  -0.758645  2.947474
C    -5.598356  -0.714802  3.148690
N    -6.179921  -1.889495  3.816921
C    -6.743036  -2.941984  3.207213
N    -7.512829  -3.785526  3.912021
N    -6.544896  -3.168289  1.902315
H    -3.533220  0.280048  4.776600
H    -3.466283  -1.490301  4.896558
H    -3.781659  -1.678158  2.418988
H    -3.829085  0.078377  2.275706
H    -6.108555  -0.590833  2.183662
H    -5.881735  0.158402  3.752273
H    -6.241479  -1.870480  4.829032
H    -7.790480  -4.683926  3.534893
H    -7.918481  -3.514385  4.799599
H    -5.821650  -2.687277  1.384255
N    -0.785911  -0.890104  6.219042
C    -1.481744  -2.124830  6.581070
H    -0.119153  -0.519891  6.896454
H    -0.810547  -2.720257  7.208672
H    -1.713493  -2.697071  5.677807
H    -2.393197  -1.909116  7.153135
Pb    1.151351  1.107707  3.055449
