36
Energy: -611335.834992 eV PBE+vdW (tier 2 basis)
C    -1.097409  0.425629  0.157498
C    -1.091848  0.029934  1.600749
O    -1.090967  -1.196264  1.911792
H    -2.004185  0.017050  -0.310389
H    -0.241397  -0.037853  -0.349519
H    -1.072748  1.508524  -0.002565
N    -1.108903  1.014756  2.518160
C    -1.319629  0.905058  3.976077
C    -0.058833  0.403571  4.697178
O    0.323181  -0.803471  4.664118
H    -1.105420  1.959284  2.144254
H    -1.475646  1.941630  4.305717
C    -2.601007  0.118366  4.321578
C    -2.811628  -0.152977  5.822692
C    -2.493305  -1.591208  6.252253
N    -3.346627  -2.562087  5.567955
C    -2.950254  -3.654364  4.883580
N    -3.862289  -4.638590  4.727639
N    -1.716008  -3.773849  4.370845
H    -2.624726  -0.826834  3.766077
H    -3.432564  0.713260  3.922177
H    -3.857021  0.065545  6.081701
H    -2.220002  0.531292  6.449981
H    -2.647323  -1.692645  7.336759
H    -1.451610  -1.860251  6.052864
H    -4.336675  -2.516769  5.791878
H    -3.719363  -5.380422  4.053940
H    -4.684630  -4.707444  5.316100
H    -1.541976  -4.756417  4.145995
N    0.622459  1.292160  5.409313
C    1.840231  0.977623  6.161383
H    0.290876  2.252060  5.426944
H    2.112293  1.850407  6.760173
H    2.662241  0.737467  5.475840
H    1.664579  0.121373  6.821986
Pb    0.039055  -2.665354  3.301640
