36
Energy: -611335.49885 eV PBE+vdW (tier 2 basis)
C    -1.000055  -0.522562  -0.363754
C    -1.460237  -0.095348  0.991777
O    -1.163113  1.053800  1.427167
H    0.098445  -0.535334  -0.380267
H    -1.319224  0.224944  -1.101668
H    -1.375560  -1.508012  -0.658809
N    -2.197294  -0.959038  1.722890
C    -2.751387  -0.570094  3.015312
C    -1.697378  -0.718501  4.135162
O    -1.115405  0.335022  4.555349
H    -2.419088  -1.864405  1.318284
H    -2.866047  0.513248  2.940560
C    -4.159495  -1.097318  3.329648
C    -4.779721  -0.284915  4.486949
C    -5.682175  0.910409  4.104540
N    -5.271780  1.772702  2.980444
C    -4.172064  2.551251  2.884575
N    -3.963267  3.206840  1.707830
N    -3.228284  2.644623  3.819048
H    -4.154355  -2.163793  3.580988
H    -4.765042  -0.996934  2.417045
H    -3.986980  0.039351  5.178353
H    -5.419977  -0.941167  5.090832
H    -5.862652  1.523726  5.000888
H    -6.661967  0.523266  3.801550
H    -6.012719  1.971120  2.314919
H    -3.491124  4.103158  1.757270
H    -4.636345  3.124009  0.953617
H    -3.527118  2.294198  4.729809
N    -1.359410  -1.884329  4.667838
C    -1.834838  -3.235754  4.368992
H    -0.647381  -1.808326  5.395970
H    -1.002811  -3.930830  4.522016
H    -2.157587  -3.323624  3.328546
H    -2.656533  -3.522827  5.037711
Pb    -0.914526  2.353027  3.392147
