36
Energy: -611334.445891 eV PBE+vdW (tier 2 basis)
C    -1.109005  0.183971  2.784450
C    -0.091609  1.268665  2.720231
O    1.152982  0.976190  2.677348
H    -1.251558  -0.247135  1.780838
H    -2.073278  0.530619  3.167013
H    -0.718358  -0.620712  3.420053
N    -0.462729  2.563597  2.675181
C    -1.490013  3.052375  1.732807
C    -1.067515  2.618940  0.314895
O    0.248912  2.571861  0.050895
H    0.314481  3.215634  2.795453
H    -2.437782  2.545489  1.950126
C    -1.653401  4.573836  1.951315
C    -2.187395  5.449030  0.805841
C    -3.531461  5.109713  0.140892
N    -4.604314  4.708966  1.056763
C    -5.275913  3.545642  0.996008
N    -6.472130  3.454285  1.604437
N    -4.757175  2.481688  0.375366
H    -0.666624  4.992489  2.206212
H    -2.269927  4.703734  2.851786
H    -1.448762  5.494934  -0.008397
H    -2.236677  6.470834  1.209082
H    -3.406091  4.306282  -0.588700
H    -3.874109  5.991010  -0.419582
H    -5.005980  5.431323  1.647026
H    -6.932818  2.560632  1.723711
H    -7.004934  4.279859  1.850193
H    -5.362745  1.700281  0.153350
N    -1.999955  2.330601  -0.514321
C    -1.690789  1.933042  -1.882894
H    -3.768123  2.445019  0.025848
H    -2.432771  2.377439  -2.558001
H    -1.788371  0.841381  -1.979530
H    -0.685974  2.228603  -2.208229
Pb    2.140159  1.768504  0.742029
