36
Energy: -611333.004203 eV PBE+vdW (tier 2 basis)
C    -0.079800  0.409085  0.068155
C    -0.000575  -0.022810  1.489152
O    1.157754  -0.181252  2.013062
H    0.167623  -0.429423  -0.600552
H    0.710136  1.158501  -0.083996
H    -1.045921  0.835042  -0.205423
N    -1.081883  -0.194153  2.285800
C    -2.266237  -1.039710  2.045822
C    -1.846569  -2.484690  2.391591
O    -0.606415  -2.828273  2.413564
H    -0.810616  -0.204133  3.270872
H    -3.012768  -0.722361  2.789920
C    -2.935969  -0.955505  0.663176
C    -3.778827  0.309774  0.473048
C    -4.740128  0.227653  -0.738316
N    -5.457013  -1.036001  -0.866449
C    -6.159857  -1.688290  0.126332
N    -6.597538  -0.904523  1.178444
N    -6.358620  -2.973128  0.189294
H    -3.604365  -1.823330  0.593247
H    -2.202182  -1.100132  -0.141096
H    -3.156025  1.207397  0.346453
H    -4.365341  0.472413  1.388065
H    -4.185773  0.358846  -1.675974
H    -5.437608  1.078851  -0.683167
H    -5.236173  -1.606390  -1.673764
H    -7.265112  -1.401678  1.763199
H    -6.907820  0.036333  0.950033
H    -5.994721  -3.468241  -0.630289
N    -2.765720  -3.390938  2.673759
C    -4.221085  -3.242816  2.761979
H    -2.394828  -4.326825  2.845538
H    -4.584217  -3.938127  3.525452
H    -4.722129  -3.475019  1.805862
H    -4.494197  -2.224173  3.055575
Pb    1.565324  -2.274767  2.839319
