36
Energy: -611333.85825 eV PBE+vdW (tier 2 basis)
C    -1.020844  -0.515542  -0.250167
C    -0.733098  -0.008340  1.122628
O    0.337100  0.662223  1.320340
H    -1.958006  -1.077859  -0.314869
H    -0.189294  -1.148911  -0.586991
H    -1.065617  0.341353  -0.937480
N    -1.612236  -0.249503  2.098250
C    -1.601507  0.308518  3.458592
C    -0.612078  -0.483256  4.345373
O    0.628442  -0.120014  4.319807
H    -2.448977  -0.772527  1.844565
H    -1.115340  1.293228  3.383146
C    -3.028143  0.554225  4.002574
C    -4.184420  -0.292331  3.430031
C    -5.330461  -0.527881  4.446537
N    -5.675306  0.619461  5.263211
C    -5.225713  0.748143  6.560925
N    -5.910966  1.656448  7.322192
N    -4.175727  0.065330  6.935308
H    -3.254800  1.610123  3.811605
H    -3.007449  0.460591  5.100282
H    -3.862311  -1.301410  3.116273
H    -4.586250  0.196632  2.530313
H    -5.054927  -1.339629  5.130448
H    -6.223809  -0.853425  3.897559
H    -6.458795  1.192273  4.974864
H    -6.886145  1.856216  7.129488
H    -5.632502  1.777313  8.287745
H    -3.993921  0.185078  7.933654
N    -0.924054  -1.486677  5.137312
C    -2.207758  -2.136623  5.427002
H    -0.116898  -1.850545  5.647096
H    -2.875020  -1.459647  5.993131
H    -1.990727  -3.021272  6.031421
H    -2.688518  -2.466091  4.500043
Pb    1.876112  1.072927  2.900688
