36
Energy: -611335.053453 eV PBE+vdW (tier 2 basis)
C    -1.534717  -1.560005  1.849786
C    -0.824676  -0.810505  2.939364
O    0.487625  -0.703302  2.730630
H    -2.614753  -1.589320  2.014354
H    -1.135441  -2.580860  1.776528
H    -1.338700  -1.075860  0.883932
N    -1.499020  -0.369981  3.956888
C    -0.874082  0.337713  5.084307
C    -0.242650  1.671112  4.655629
O    0.994184  1.799605  4.344485
H    -2.771378  -1.585741  4.530116
H    -1.719200  0.640667  5.722648
C    0.049849  -0.563653  5.945812
C    -0.564051  -0.940803  7.303917
C    -1.940252  -1.612635  7.281507
N    -1.969821  -2.937252  6.640835
C    -2.838566  -3.318637  5.683573
N    -3.202465  -4.609976  5.614094
N    -3.322480  -2.429500  4.812047
H    1.004669  -0.057447  6.148602
H    0.283854  -1.473345  5.375947
H    -0.667889  -0.037760  7.925282
H    0.146582  -1.584201  7.843846
H    -2.692371  -0.992038  6.779729
H    -2.286622  -1.733590  8.318440
H    -1.517519  -3.691036  7.150766
H    -3.653531  -4.984242  4.787801
H    -3.119393  -5.227713  6.413122
H    -4.114822  -2.688134  4.235496
N    -1.037979  2.726973  4.626553
C    -0.653882  4.075222  4.208288
H    -2.008749  2.580039  4.892472
H    -1.144363  4.802102  4.863761
H    -0.970098  4.256992  3.172761
H    0.430272  4.184984  4.287035
Pb    2.265254  0.408888  3.132264
