36
Energy: -611335.34941 eV PBE+vdW (tier 2 basis)
C    0.406985  0.805147  0.349204
C    0.052690  0.949708  1.793415
O    0.693286  1.754019  2.528027
H    -0.257648  0.125506  -0.194492
H    1.439779  0.439002  0.269789
H    0.384499  1.794261  -0.126690
N    -0.965288  0.209800  2.285442
C    -1.404825  0.374512  3.664340
C    -0.486714  -0.326537  4.682736
O    0.237015  0.417871  5.420631
H    -1.459784  -0.414352  1.654188
H    -1.211850  1.427764  3.880882
C    -2.900318  0.166529  3.942253
C    -3.860956  1.257941  3.407156
C    -3.356172  2.707715  3.270360
N    -2.464006  3.145444  4.355375
C    -1.533191  4.121957  4.234218
N    -1.781591  5.124809  3.370109
N    -0.394136  4.020541  4.934302
H    -2.990841  0.116147  5.038343
H    -3.248491  -0.812351  3.586268
H    -4.747982  1.241968  4.054160
H    -4.226520  0.980061  2.409505
H    -4.240483  3.358543  3.196078
H    -2.791829  2.827528  2.333570
H    -2.469773  2.658867  5.245246
H    -1.059219  5.798303  3.143431
H    -2.731114  5.373585  3.112512
H    0.049489  4.933701  5.069324
N    -0.436086  -1.641062  4.838967
C    -1.201825  -2.691372  4.166927
H    0.204336  -1.945837  5.573676
H    -2.114451  -2.932697  4.726715
H    -0.577471  -3.588793  4.110669
H    -1.461387  -2.398471  3.146258
Pb    1.301262  2.392391  4.741960
