36
Energy: -611335.225163 eV PBE+vdW (tier 2 basis)
C    -1.771479  -2.544588  -0.189590
C    -0.706320  -1.541096  -0.479699
O    0.149717  -1.810663  -1.396767
H    -2.155013  -2.931187  -1.141825
H    -2.598988  -2.144769  0.403558
H    -1.332316  -3.400022  0.344236
N    -0.625429  -0.384453  0.164989
C    -1.421564  0.187821  1.250790
C    -1.041332  1.694497  1.231082
O    0.040583  2.042134  0.711454
H    0.054711  0.308151  -0.167577
H    -2.489016  0.078346  1.009548
C    -1.170466  -0.464059  2.637779
C    0.101965  -0.121449  3.434252
C    1.454916  -0.641801  2.929096
N    1.988139  0.193547  1.846305
C    2.497439  -0.229355  0.697943
N    2.549097  0.696531  -0.391692
N    2.882535  -1.439373  0.348474
H    -1.250458  -1.554943  2.517371
H    -2.026049  -0.184650  3.269621
H    -0.035946  -0.553090  4.435602
H    0.172915  0.965002  3.607191
H    1.369215  -1.674219  2.560456
H    2.177152  -0.648899  3.757268
H    1.757676  1.186105  1.895513
H    3.497504  1.034823  -0.576966
H    1.906341  1.491598  -0.281195
H    2.966680  -2.145121  1.079586
N    -1.897296  2.528537  1.820742
C    -1.697757  3.973569  1.938003
H    -2.770211  2.148846  2.176777
H    -2.509291  4.503597  1.425724
H    -0.744209  4.235339  1.473545
H    -1.687806  4.267582  2.994296
Pb    2.331121  -1.478417  -1.924486
