36
Energy: -611335.180888 eV PBE+vdW (tier 2 basis)
C    -0.755457  -1.046803  -0.143219
C    -0.677340  -0.589714  1.281875
O    0.548986  -0.284611  1.680880
H    -1.790633  -1.155810  -0.478885
H    -0.234536  -2.007454  -0.257266
H    -0.240753  -0.326825  -0.792114
N    -1.761632  -0.495990  2.001882
C    -1.643708  0.035902  3.356458
C    -0.977663  -0.983347  4.292627
O    0.208021  -0.743169  4.732571
H    -4.077094  -1.941629  -0.061525
H    -0.936638  0.889944  3.361522
C    -2.976606  0.598111  3.891229
C    -3.543164  1.728439  3.001081
C    -4.737203  1.338409  2.126534
N    -4.406913  0.225195  1.231885
C    -5.252667  -0.306181  0.352111
N    -6.452576  0.246668  0.121394
N    -4.908480  -1.425710  -0.313761
H    -2.788695  0.986158  4.901596
H    -3.722147  -0.198979  4.006598
H    -2.750501  2.150761  2.365034
H    -3.884840  2.553428  3.638690
H    -5.031604  2.222455  1.538163
H    -5.592129  1.057505  2.763606
H    -3.449237  -0.180171  1.340652
H    -7.129163  -0.192981  -0.490115
H    -6.697037  1.151238  0.502312
H    -5.458627  -1.774910  -1.087907
N    -1.550633  -2.116618  4.661800
C    -2.850252  -2.668552  4.281609
H    -0.980889  -2.682340  5.292143
H    -2.751317  -3.757345  4.218611
H    -3.146827  -2.286091  3.301560
H    -3.613209  -2.429214  5.033163
Pb    1.829264  0.068345  3.388419
