36
Energy: -611335.591278 eV PBE+vdW (tier 2 basis)
C    0.081082  1.038705  0.340605
C    0.066289  0.452797  1.718925
O    1.126577  -0.044853  2.189166
H    0.407392  0.264222  -0.366507
H    0.828642  1.841925  0.301916
H    -0.888798  1.431648  0.018272
N    -1.105658  0.476514  2.386472
C    -1.428914  -0.124627  3.697190
C    -0.819731  0.732165  4.817979
O    0.417584  0.732897  5.059621
H    -1.879528  0.912198  1.894064
H    -2.521677  -0.044686  3.781069
C    -1.069177  -1.625470  3.718147
C    -1.222231  -2.403432  5.033945
C    -0.234384  -2.165949  6.182203
N    1.221091  -2.203323  5.810366
C    1.675721  -3.260307  4.934548
N    1.543226  -4.532621  5.331973
N    2.181697  -2.811633  3.824870
H    -0.066792  -1.772402  3.305821
H    -1.739712  -2.092657  2.983027
H    -1.197903  -3.469368  4.764202
H    -2.225683  -2.248511  5.459795
H    -0.444730  -2.913516  6.963449
H    -0.377678  -1.184108  6.649001
H    1.763671  -2.226184  6.680379
H    1.160845  -4.767751  6.240986
H    1.882019  -5.305525  4.766674
H    2.546459  -3.497205  3.159913
N    -1.665072  1.487282  5.516388
C    -1.280301  2.408770  6.585389
H    -2.649506  1.454492  5.266194
H    -1.420211  3.445793  6.255381
H    -0.229001  2.247642  6.834315
H    -1.904689  2.227314  7.467428
Pb    2.321079  -0.387240  4.167833
