36
Energy: -611334.980153 eV PBE+vdW (tier 2 basis)
C    -0.097276  -1.070966  -0.154614
C    -0.130602  -0.357147  1.155147
O    0.982741  -0.039574  1.705516
H    0.596551  -0.536567  -0.817036
H    -1.074962  -1.145773  -0.638804
H    0.318398  -2.079197  -0.017920
N    -1.266836  -0.019025  1.754577
C    -2.665217  -0.343020  1.463776
C    -3.450399  0.538635  2.463436
O    -2.868052  0.932245  3.499833
H    -1.206604  0.592481  2.575624
H    -2.897586  -0.041130  0.433528
C    -2.999222  -1.858393  1.625650
C    -3.559145  -2.401445  2.956192
C    -2.784349  -2.195310  4.270406
N    -1.343260  -2.462571  4.156881
C    -0.333411  -1.641588  4.444476
N    -0.568021  -0.274432  4.790686
N    0.954536  -1.914549  4.385022
H    -2.097762  -2.420843  1.345126
H    -3.740799  -2.110958  0.856018
H    -3.709202  -3.480176  2.800338
H    -4.567531  -2.000496  3.137085
H    -2.912885  -1.177735  4.647547
H    -3.197825  -2.869706  5.033531
H    -1.081489  -3.399518  3.853841
H    -0.480399  -0.124709  5.800170
H    -1.464365  0.133175  4.455959
H    1.238004  -2.881001  4.219092
N    -4.727897  0.822742  2.208599
C    -5.536225  0.435230  1.052210
H    -5.183024  1.374463  2.934674
H    -6.372323  1.135453  0.967171
H    -5.943768  -0.578403  1.165065
H    -4.957100  0.496593  0.124037
Pb    1.837115  0.176114  3.811993
