36
Energy: -611333.149982 eV PBE+vdW (tier 2 basis)
C    0.802998  1.192341  0.913331
C    0.374386  0.749848  2.266082
O    1.224392  0.703811  3.221449
H    1.011064  2.273292  0.914113
H    0.079635  0.952631  0.128882
H    1.760776  0.700881  0.689394
N    -0.899632  0.384207  2.518716
C    -2.069208  1.151925  2.091462
C    -2.085776  2.448278  2.937903
O    -1.317436  2.571909  3.965871
H    -1.025189  -0.093069  3.413105
H    -1.932991  1.438997  1.038546
C    -3.364231  0.324111  2.202488
C    -3.718285  -0.205686  3.600853
C    -5.205099  -0.632692  3.720590
N    -6.125967  0.491611  3.817811
C    -6.521888  1.313802  2.774979
N    -6.611977  0.719072  1.531451
N    -6.745843  2.590699  2.872048
H    -3.270464  -0.513285  1.496288
H    -4.186136  0.937329  1.816071
H    -3.530602  0.557237  4.375697
H    -3.099968  -1.082310  3.855061
H    -5.332592  -1.240571  4.624992
H    -5.481094  -1.279548  2.877621
H    -6.169345  0.939616  4.727781
H    -7.082766  1.317035  0.857053
H    -6.946012  -0.240075  1.504436
H    -6.640636  2.934191  3.831155
N    -2.886165  3.449325  2.626714
C    -3.851287  3.581326  1.531158
H    -2.826651  4.244029  3.265880
H    -3.818776  4.616567  1.175306
H    -4.873490  3.355015  1.890781
H    -3.594239  2.918205  0.700198
Pb    0.599665  1.947599  5.043314
