36
Energy: -611334.957144 eV PBE+vdW (tier 2 basis)
C    -1.542355  -0.718089  2.162905
C    -1.609147  0.314760  3.234961
O    -0.948604  0.163738  4.313829
H    -0.617915  -0.591032  1.577418
H    -2.401885  -0.696882  1.485582
H    -1.472089  -1.703451  2.640408
N    -2.362509  1.426622  3.095290
C    -2.440661  2.209013  1.869866
C    -1.041789  2.831630  1.628293
O    -0.148463  2.795844  2.529072
H    -2.456147  1.944436  3.975511
H    -2.631890  1.511654  1.040410
C    -3.629098  3.216764  1.892596
C    -3.458623  4.668380  2.386901
C    -3.415308  4.975828  3.894738
N    -2.099069  4.733304  4.497560
C    -1.712551  3.753188  5.325698
N    -2.632610  2.851348  5.782107
N    -0.429926  3.531664  5.653638
H    -4.442879  2.719433  2.441338
H    -3.995576  3.289785  0.861329
H    -4.332545  5.215009  2.003615
H    -2.594113  5.149981  1.901518
H    -4.185794  4.410107  4.433493
H    -3.658651  6.035662  4.048363
H    -1.345609  5.310997  4.135484
H    -3.613909  3.112015  5.795415
H    -2.339254  2.326026  6.601760
H    0.148081  4.359802  5.479978
N    -0.769733  3.396243  0.455708
C    -1.624658  3.520177  -0.727653
H    0.173628  3.776557  0.381928
H    -2.250403  4.420509  -0.678104
H    -2.260134  2.636436  -0.849616
H    -0.979028  3.594288  -1.607844
Pb    0.714660  1.790175  4.570997
