36
Energy: -611334.778801 eV PBE+vdW (tier 2 basis)
C    0.596972  0.052225  -0.485377
C    0.527087  0.253536  0.999960
O    1.539928  0.415285  1.696022
H    -0.380659  0.005351  -0.977435
H    1.139428  -0.882707  -0.682617
H    1.191216  0.861621  -0.926622
N    -0.726256  0.252230  1.566185
C    -1.020725  0.222573  3.001406
C    -0.611642  1.477843  3.789225
O    -1.429812  1.987549  4.646688
H    -1.517931  0.200908  0.935632
H    -2.115389  0.215522  3.062609
C    -0.446047  -1.047957  3.697808
C    -1.208420  -2.352093  3.410786
C    -2.361790  -2.685011  4.369712
N    -3.422043  -1.660241  4.378303
C    -3.590199  -0.647782  5.226873
N    -2.744814  -0.493163  6.369421
N    -4.445072  0.349967  5.131066
H    -0.374807  -0.865885  4.782978
H    0.595917  -1.150774  3.369323
H    -0.510136  -3.199010  3.470371
H    -1.574726  -2.355128  2.372138
H    -2.000228  -2.825334  5.397390
H    -2.832998  -3.634112  4.083686
H    -4.026926  -1.650931  3.558393
H    -3.232256  -0.765562  7.228564
H    -1.850552  -0.982742  6.323473
H    -5.154593  0.303656  4.398128
N    0.583711  1.977840  3.609574
C    1.112818  3.150761  4.299445
H    1.172209  1.446222  2.910905
H    0.400030  3.981686  4.247445
H    2.046244  3.442118  3.811169
H    1.319064  2.920778  5.353121
Pb    -3.152108  2.092367  6.068793
