36
Energy: -611334.141796 eV PBE+vdW (tier 2 basis)
C    2.093987  0.133637  0.252947
C    1.269150  0.571132  1.416092
O    1.874514  1.181378  2.384867
H    2.495660  1.019675  -0.259390
H    1.518438  -0.464557  -0.460951
H    2.957482  -0.436885  0.619905
N    -0.024832  0.310742  1.398669
C    -1.011974  0.474155  2.484578
C    -1.317470  1.960843  2.721339
O    -0.568483  2.707259  3.443763
H    -0.359843  -0.422681  0.671624
H    -1.923694  0.043032  2.050229
C    -0.704756  -0.316464  3.791484
C    -1.839230  -1.271366  4.238661
C    -1.828572  -2.698030  3.642371
N    -1.961711  -2.769864  2.187153
C    -0.935561  -2.508474  1.312565
N    0.331667  -2.847221  1.736206
N    -1.039062  -1.877313  0.165628
H    -0.530649  0.392594  4.617318
H    0.225537  -0.882172  3.648333
H    -2.816920  -0.797880  4.050343
H    -1.782361  -1.391313  5.330222
H    -2.661235  -3.262281  4.081743
H    -0.917707  -3.224495  3.954755
H    -2.886227  -2.559169  1.823510
H    0.989640  -2.912531  0.964777
H    0.407029  -3.630778  2.377594
H    -2.013451  -1.688351  -0.084450
N    -2.404669  2.461727  2.166032
C    -2.850133  3.854310  2.261914
H    -2.971725  1.833777  1.600986
H    -3.939547  3.868140  2.369829
H    -2.572263  4.400097  1.350823
H    -2.386119  4.326889  3.130634
Pb    1.573232  2.524691  4.082137
