36
Energy: -611335.107624 eV PBE+vdW (tier 2 basis)
C    -0.059368  0.728145  -0.042195
C    -0.186030  0.457735  1.422932
O    0.845271  0.038332  2.052283
H    0.251549  -0.201141  -0.540259
H    0.741207  1.460225  -0.210714
H    -0.984914  1.088272  -0.502956
N    -1.372200  0.648878  2.001453
C    -1.870697  0.313443  3.358261
C    -1.361862  1.237441  4.472233
O    -0.052620  1.401254  4.646924
H    -2.087150  1.006162  1.373866
H    -2.941526  0.532211  3.285496
C    -1.720915  -1.187047  3.693757
C    -2.357773  -1.624860  5.026226
C    -3.885330  -1.532060  5.148864
N    -4.351152  -0.156328  5.347036
C    -5.619791  0.190579  5.562789
N    -6.592981  -0.728186  5.652346
N    -5.929262  1.495873  5.669010
H    -0.659116  -1.471934  3.715375
H    -2.162202  -1.758888  2.863724
H    -1.894796  -1.096819  5.873715
H    -2.103162  -2.684277  5.165340
H    -4.183313  -2.147698  6.013052
H    -4.361518  -1.965014  4.252371
H    -3.637336  0.616487  5.346475
H    -7.559844  -0.462307  5.792121
H    -6.384572  -1.717607  5.658090
H    -6.848366  1.803977  5.959066
N    -2.259798  1.743019  5.240495
C    -1.871185  2.572549  6.375123
H    -5.205985  2.198631  5.581775
H    -2.581158  2.412497  7.195842
H    -1.933492  3.633293  6.090441
H    -0.852399  2.375401  6.732237
Pb    1.823664  0.598212  3.990523
