36
Energy: -611334.638209 eV PBE+vdW (tier 2 basis)
C    0.879968  3.436099  2.076129
C    0.041568  2.895164  3.195942
O    0.046268  3.383681  4.334844
H    0.536470  4.454899  1.849415
H    0.837799  2.836195  1.160350
H    1.919829  3.519036  2.413971
N    -0.755853  1.810772  2.916912
C    -1.798235  1.354669  3.829746
C    -1.239305  0.557127  5.045817
O    -1.648388  -0.629724  5.356484
H    -0.713311  1.397820  1.991263
H    -2.267611  2.254874  4.266019
C    -2.843451  0.505728  3.125320
C    -3.859348  1.156317  2.188294
C    -4.935907  0.127107  1.782914
N    -5.610203  -0.469463  2.955520
C    -5.147996  -1.487489  3.688506
N    -5.590550  -1.625144  5.024544
N    -4.206478  -2.359459  3.377006
H    -3.417545  0.065404  3.945971
H    -2.337255  -0.329488  2.613140
H    -3.399683  1.536431  1.265031
H    -4.336318  2.018615  2.678362
H    -4.506851  -0.677721  1.170748
H    -5.715598  0.594673  1.171465
H    -6.451282  0.000290  3.282165
H    -6.069159  -2.510192  5.204644
H    -6.117442  -0.843367  5.414860
H    -3.916503  -2.386312  2.399364
N    -0.343274  1.172181  5.774182
C    0.306479  0.620065  6.958672
H    -0.103917  2.140481  5.423950
H    0.980127  1.379305  7.363514
H    0.886300  -0.274855  6.699919
H    -0.437808  0.355817  7.720193
Pb    -2.919589  -2.491296  5.359990
