36
Energy: -611334.834382 eV PBE+vdW (tier 2 basis)
C    0.435135  -1.289831  1.819144
C    -0.350287  -1.708404  3.015502
O    0.249045  -2.439110  3.903129
H    1.327934  -0.751137  2.167689
H    -0.124745  -0.647746  1.134195
H    0.799791  -2.174803  1.280411
N    -1.600940  -1.349801  3.215515
C    -2.567199  -0.624846  2.389264
C    -3.632798  -0.201175  3.449205
O    -3.635671  -0.798807  4.538564
H    -2.074557  -1.523922  4.132476
H    -2.104867  0.261055  1.933121
C    -3.180365  -1.540097  1.301382
C    -3.841036  -2.816477  1.874972
C    -3.302269  -4.118080  1.251446
N    -3.451787  -5.288002  2.124757
C    -2.670056  -5.556475  3.185338
N    -3.041666  -6.524108  4.050257
N    -1.542609  -4.858457  3.418062
H    -2.382144  -1.800499  0.589113
H    -3.903746  -0.950578  0.723752
H    -4.929052  -2.775754  1.743243
H    -3.683755  -2.862325  2.961103
H    -2.241265  -4.012027  0.971461
H    -3.817427  -4.359017  0.314148
H    -4.200161  -5.940236  1.910180
H    -2.330200  -7.025437  4.568638
H    -3.924565  -7.010427  3.936889
H    -1.283888  -4.306507  2.600242
N    -4.494603  0.752849  3.088902
C    -5.572057  1.244216  3.948432
H    -4.367253  1.205900  2.188830
H    -6.537667  1.133492  3.441368
H    -5.409886  2.301816  4.188410
H    -5.573517  0.659646  4.871694
Pb    -0.367994  -4.122995  5.226852
