36
Energy: -611334.944281 eV PBE+vdW (tier 2 basis)
C    -0.536529  2.695147  0.529368
C    -0.402416  1.363358  1.008767
O    0.649711  1.044083  1.696038
H    0.389286  3.145341  0.164755
H    -1.443366  3.051943  0.044415
H    0.780752  -1.262647  -2.046649
N    -1.415414  0.409686  0.981801
C    -2.818935  0.824038  1.055387
C    -3.095094  1.477283  2.442479
O    -2.154891  1.902429  3.172302
H    -1.183664  -0.315864  1.665115
H    -2.965839  1.617888  0.306345
C    -3.762761  -0.339136  0.692187
C    -3.450024  -0.970403  -0.681103
C    -2.623860  -2.265091  -0.576301
N    -2.098497  -2.728776  -1.861236
C    -0.917676  -2.364565  -2.380503
N    -0.456792  -2.970815  -3.483023
N    -0.191980  -1.398166  -1.799939
H    -4.793536  0.038564  0.663838
H    -3.742709  -1.101938  1.486970
H    -2.924261  -0.240875  -1.315328
H    -4.388796  -1.198853  -1.202402
H    -3.239312  -3.077806  -0.169502
H    -1.775117  -2.154394  0.112178
H    -2.687911  -3.334117  -2.423573
H    0.338358  -2.606374  -3.993664
H    -0.878193  -3.821729  -3.835913
H    -0.567766  -0.836708  -1.041145
N    -4.354091  1.590529  2.850390
C    -4.741109  2.227434  4.112548
H    -5.092360  1.213673  2.265974
H    -4.245220  1.732365  4.955225
H    -5.824544  2.139494  4.225456
H    -4.463393  3.288278  4.107567
Pb    0.005073  2.934055  2.956544
