36
Energy: -611335.121712 eV PBE+vdW (tier 2 basis)
C    -0.551924  -0.037882  0.354515
C    -0.553919  0.246588  1.827435
O    0.524911  0.905270  2.239944
H    -0.600704  0.905849  -0.206172
H    -1.383662  -0.685730  0.065205
H    0.389156  -0.525651  0.070637
N    -1.566532  -0.112375  2.561253
C    -1.584713  0.207499  3.989446
C    -0.672582  -0.769963  4.746441
O    0.542540  -0.451631  5.005938
H    -3.280704  -0.338020  1.648070
H    -1.130155  1.199606  4.178990
C    -3.041350  0.300835  4.486389
C    -3.941212  -0.905712  4.161717
C    -5.384782  -0.543627  3.790564
N    -5.557501  0.479941  2.735909
C    -5.232821  0.363222  1.432146
N    -6.024609  0.939907  0.514529
N    -4.135254  -0.300525  1.053861
H    -3.450884  1.195506  3.994653
H    -3.049240  0.518680  5.563259
H    -4.034633  -1.575889  5.030852
H    -3.505505  -1.503690  3.349126
H    -5.898135  -0.127667  4.665910
H    -5.925532  -1.456342  3.500592
H    -6.265936  1.178775  2.935929
H    -5.698403  1.116473  -0.428643
H    -6.988929  1.174688  0.720371
H    -4.018241  -0.516453  0.070259
N    -1.112157  -1.957246  5.121237
C    -0.290886  -2.968437  5.792799
H    -2.075253  -2.192288  4.903153
H    -0.950504  -3.752625  6.172842
H    0.254569  -2.514396  6.626593
H    0.428101  -3.409241  5.090802
Pb    1.828889  1.066217  3.939511
