36
Energy: -611333.948934 eV PBE+vdW (tier 2 basis)
C    -2.479547  0.950925  0.246251
C    -1.803571  0.927236  1.569634
O    -0.526838  1.119929  1.625617
H    -1.768694  1.233965  -0.533883
H    -3.332801  1.660315  0.267449
H    -2.888062  -0.043359  0.012943
N    -2.525532  0.724563  2.669902
C    -1.975345  0.738110  4.022096
C    -1.047584  -0.481221  4.223730
O    0.225951  -0.284170  4.249935
H    -3.586742  0.698159  2.577963
H    -1.297561  1.604246  4.112242
C    -3.042894  0.885346  5.128680
C    -3.533270  2.320781  5.435015
C    -4.864877  2.788599  4.812592
N    -4.807069  3.252105  3.432790
C    -5.012296  2.544468  2.277267
N    -5.279986  1.151042  2.451803
N    -4.893253  2.949207  1.063294
H    -2.581831  0.489642  6.045109
H    -3.898638  0.229314  4.920830
H    -2.748350  3.056212  5.200146
H    -3.671471  2.378118  6.523911
H    -5.231970  3.631045  5.413292
H    -5.631478  2.007226  4.928556
H    -4.663504  4.246788  3.300414
H    -5.925101  0.949284  3.216522
H    -5.688697  0.811040  1.579017
H    -4.655278  3.941092  0.983945
N    -1.483956  -1.717233  4.370009
C    -2.852494  -2.241770  4.386465
H    -0.739320  -2.402677  4.510737
H    -2.815524  -3.281830  4.047977
H    -3.494079  -1.678338  3.703359
H    -3.266794  -2.216831  5.401881
Pb    1.357352  0.960215  2.763962
