36
Energy: -611334.709382 eV PBE+vdW (tier 2 basis)
C    0.040092  0.674706  -0.014910
C    -0.029564  0.285380  1.422443
O    1.074230  -0.039288  2.019485
H    -0.898958  1.087232  -0.394188
H    0.334280  -0.189500  -0.626853
H    0.834766  1.424550  -0.128989
N    -1.146903  0.283749  2.114959
C    -2.549076  0.248677  1.694638
C    -3.293829  0.224760  3.061729
O    -2.644124  -0.126221  4.062017
H    -1.134978  0.082041  3.139465
H    -2.803001  1.145547  1.114584
C    -2.868686  -1.022802  0.865422
C    -2.627597  -2.380789  1.551181
C    -1.172742  -2.635479  1.965764
N    -0.932521  -4.027529  2.307171
C    0.122189  -4.457664  3.018610
N    0.189223  -5.768617  3.319492
N    1.085462  -3.605368  3.433154
H    -2.299292  -0.975839  -0.074667
H    -3.925093  -0.971661  0.569737
H    -2.934429  -3.153607  0.828928
H    -3.277107  -2.494932  2.430806
H    -0.941414  -2.045391  2.862325
H    -0.487035  -2.334321  1.154215
H    -1.561302  -4.724671  1.919965
H    1.009808  -6.169736  3.755963
H    -0.570329  -6.407678  3.114037
H    1.721617  -4.110148  4.057316
N    -4.595575  0.531618  3.102651
C    -5.475822  0.985815  2.029169
H    -5.005464  0.440926  4.030964
H    -4.906730  1.471453  1.230100
H    -6.173292  1.726670  2.434078
H    -6.057111  0.155454  1.605701
Pb    2.064983  -1.502176  3.379146
