36
Energy: -611334.480496 eV PBE+vdW (tier 2 basis)
C    0.187627  -0.718411  0.202223
C    0.037330  -0.326119  1.639812
O    1.071651  -0.011053  2.344461
H    -0.768326  -0.905312  -0.297868
H    0.788270  -1.637756  0.137147
H    0.720926  0.071226  -0.344409
N    -1.176189  -0.284462  2.167283
C    -1.631956  -0.070987  3.568186
C    -3.151103  0.251724  3.624985
O    -3.740573  -0.014497  4.658110
H    -1.928566  -0.581147  1.543987
H    -1.554703  -1.045153  4.074470
C    -0.843211  0.955691  4.394116
C    -0.823346  2.390184  3.843451
C    0.392021  3.185522  4.332257
N    1.607917  2.608882  3.741823
C    2.762615  2.303713  4.337167
N    3.093579  2.873159  5.505058
N    3.589953  1.403100  3.737336
H    0.177482  0.584269  4.541171
H    -1.322183  0.943855  5.383207
H    -1.732366  2.931489  4.137461
H    -0.815562  2.401364  2.739672
H    0.470524  3.129996  5.427124
H    0.306856  4.244347  4.050470
H    1.505873  2.255029  2.796598
H    2.612656  3.696334  5.850679
H    3.886092  2.544890  6.044056
H    4.553483  1.493072  4.068154
N    -3.731491  0.790798  2.515198
C    -5.156424  1.134208  2.511672
H    -3.148021  1.242620  1.818501
H    -5.500217  1.218612  1.476358
H    -5.345897  2.077589  3.041089
H    -5.711457  0.338064  3.016751
Pb    3.286577  -0.435321  2.474107
