36
Energy: -611333.074485 eV PBE+vdW (tier 2 basis)
C    -0.966550  -2.564896  0.963954
C    -0.512480  -1.195847  1.332019
O    0.786828  -0.969760  1.312938
H    -0.507767  -2.858995  0.011041
H    -2.054414  -2.634586  0.879239
H    -0.621611  -3.279773  1.724837
N    -1.299690  -0.220182  1.670093
C    -2.759131  -0.124513  1.773593
C    -2.934103  1.429033  1.741934
O    -1.910507  2.113841  1.962728
H    -0.965573  0.777574  1.871574
H    -3.234679  -0.579599  0.894181
C    -3.249980  -0.770511  3.096488
C    -4.760382  -0.700702  3.350035
C    -5.595839  -1.526496  2.352002
N    -7.001616  -1.169148  2.336834
C    -7.494529  -0.160868  1.557394
N    -8.847163  -0.037457  1.508236
N    -6.641280  0.617263  0.920802
H    -2.722063  -0.278294  3.926071
H    -2.922113  -1.822363  3.100024
H    -5.100922  0.342184  3.332262
H    -4.948066  -1.061159  4.371099
H    -5.525063  -2.596781  2.589727
H    -5.226510  -1.396088  1.326028
H    -7.634448  -1.661992  2.956004
H    -9.267877  0.731764  1.004796
H    -9.470400  -0.767238  1.831214
H    -7.133989  1.253741  0.289188
N    -4.137922  1.921564  1.491565
C    -4.381219  3.362604  1.480109
H    -4.953845  1.301967  1.286812
H    -3.866022  3.841075  0.637284
H    -4.025277  3.822958  2.409151
H    -5.458332  3.525878  1.384856
Pb    2.748706  -0.174028  1.300371
