36
Energy: -611333.389269 eV PBE+vdW (tier 2 basis)
C    0.070444  -0.954318  0.118758
C    -0.086189  -0.594130  1.560143
O    0.933108  -0.644178  2.319504
H    -0.846721  -0.829888  -0.466243
H    0.392422  -2.004121  0.057121
H    0.872293  -0.349533  -0.324103
N    -1.310206  -0.258597  1.993133
C    -1.811776  -0.043160  3.368617
C    -1.307905  1.281142  3.954426
O    -0.090608  1.444230  4.307660
H    -2.026183  -0.251667  1.271936
H    -2.896288  0.052804  3.239283
C    -1.580879  -1.213732  4.353838
C    -2.510889  -2.421847  4.166329
C    -2.247430  -3.296484  2.936366
N    -3.131419  -4.449108  2.965088
C    -3.126820  -5.441957  1.984767
N    -1.879054  -5.823473  1.525848
N    -4.282525  -5.877085  1.609113
H    -1.748441  -0.812267  5.364622
H    -0.530551  -1.541686  4.326746
H    -3.557823  -2.075452  4.157725
H    -2.413367  -3.055252  5.059759
H    -1.198995  -3.631185  2.942290
H    -2.388834  -2.720403  1.999085
H    -4.098108  -4.251303  3.222154
H    -1.880090  -6.606138  0.879275
H    -1.132454  -5.886396  2.213003
H    -4.236737  -6.646240  0.934874
N    -2.156683  2.276422  4.155343
C    -3.594616  2.346139  3.861858
H    -1.738291  3.098643  4.593315
H    -3.795430  2.135716  2.805060
H    -3.926303  3.367024  4.070220
H    -4.164687  1.663163  4.503649
Pb    1.890610  0.387163  4.081680
