36
Energy: -611333.674847 eV PBE+vdW (tier 2 basis)
C    -0.168434  -0.944807  0.721739
C    -0.113208  -0.455096  2.123279
O    0.922754  -0.690467  2.843291
H    0.570150  -0.413703  0.102644
H    -1.162279  -0.856182  0.274987
H    0.142143  -2.000115  0.724935
N    -1.129267  0.245089  2.661830
C    -1.774595  1.373101  1.979314
C    -0.689680  2.457027  1.774904
O    0.391455  2.452927  2.509222
H    -1.075095  0.350334  3.677186
H    -2.111576  1.052149  0.980363
C    -3.018671  1.825387  2.776601
C    -4.258486  0.946285  2.482485
C    -5.418208  1.647099  1.709566
N    -5.018124  2.742033  0.822959
C    -3.999172  2.672547  -0.082109
N    -3.719929  1.421089  -0.605648
N    -3.203777  3.660351  -0.417962
H    -3.218945  2.876447  2.535035
H    -2.773998  1.815044  3.849791
H    -4.681917  0.568305  3.421253
H    -3.939096  0.052865  1.928039
H    -6.123680  2.092314  2.419711
H    -5.994392  0.887640  1.160623
H    -5.204670  3.675521  1.171711
H    -3.221023  1.484864  -1.489871
H    -4.501787  0.772636  -0.652248
H    -3.506567  4.546562  -0.004400
N    -0.860204  3.349840  0.842405
C    0.097665  4.417933  0.556714
H    -1.802700  3.387734  0.255190
H    -0.313787  5.026997  -0.253088
H    1.059843  4.000542  0.233636
H    0.262379  5.045427  1.441341
Pb    1.893383  1.233537  3.602036
