36
Energy: -611334.131869 eV PBE+vdW (tier 2 basis)
C    0.169915  1.559716  0.178027
C    0.087624  0.914438  1.519562
O    1.173946  0.430065  2.025997
H    -0.796577  1.942185  -0.163418
H    0.544653  0.827113  -0.549860
H    0.903415  2.376655  0.213131
N    -1.076419  0.863170  2.146451
C    -1.240931  0.324028  3.490791
C    -0.957283  -1.197345  3.532272
O    0.127361  -1.567551  4.140045
H    -1.906397  1.422081  1.746236
H    -0.416547  0.719341  4.108141
C    -2.528173  0.813265  4.206958
C    -3.878173  0.928662  3.471906
C    -4.111635  2.190351  2.637011
N    -3.281029  2.322317  1.403187
C    -3.725420  1.639862  0.228299
N    -3.827052  2.446503  -0.876071
N    -3.855759  0.361939  0.302397
H    -2.275036  1.799545  4.625169
H    -2.654862  0.158883  5.081932
H    -4.647259  0.951243  4.258166
H    -4.106443  0.051303  2.862985
H    -3.897534  3.081993  3.242277
H    -5.176917  2.228686  2.367111
H    -3.092333  3.304954  1.209451
H    -4.123151  3.412019  -0.770579
H    -4.120286  2.017149  -1.747781
H    -4.238241  -0.036175  -0.559019
N    -1.705676  -2.145970  3.014626
C    -2.957544  -2.102770  2.255365
H    -1.330524  -3.080626  3.190698
H    -3.058738  -1.176710  1.671091
H    -3.811797  -2.224034  2.933532
H    -2.945230  -2.952077  1.563931
Pb    2.133519  -0.723619  3.658707
