36
Energy: -611333.99232 eV PBE+vdW (tier 2 basis)
C    -0.516013  -0.192662  -0.159400
C    -0.365665  -0.057268  1.317906
O    0.774260  0.255603  1.799742
H    -0.244825  0.763488  -0.629145
H    -1.529622  -0.470047  -0.466504
H    0.196805  -0.941418  -0.530187
N    -1.431531  -0.247935  2.102161
C    -1.482757  -0.014785  3.553218
C    -0.767238  -1.152983  4.305766
O    0.457623  -0.972529  4.664746
H    -2.313523  -0.472800  1.645650
H    -0.869142  0.878484  3.757925
C    -2.915189  0.261941  4.012346
C    -3.467288  1.631868  3.606906
C    -4.997134  1.691627  3.795615
N    -5.458237  1.419106  5.146882
C    -5.978128  0.200794  5.531625
N    -6.771940  0.245767  6.648265
N    -5.646837  -0.874547  4.864561
H    -2.944531  0.173368  5.107688
H    -3.601383  -0.516487  3.650390
H    -3.265027  1.847086  2.544560
H    -2.979425  2.429340  4.188221
H    -5.474231  0.962092  3.127218
H    -5.349664  2.690116  3.504804
H    -5.652706  2.214952  5.742680
H    -7.164375  -0.621574  6.992004
H    -7.311970  1.077014  6.861944
H    -6.197463  -1.676179  5.181513
N    -1.339318  -2.299775  4.621075
C    -2.690078  -2.807419  4.341325
H    -0.721356  -2.929251  5.135735
H    -2.705678  -3.860883  4.632860
H    -2.914985  -2.743957  3.270703
H    -3.460540  -2.261233  4.903994
Pb    2.084867  0.185369  3.635185
