36
Energy: -611334.530144 eV PBE+vdW (tier 2 basis)
C    0.604049  -1.226427  1.462232
C    -0.180239  -1.774672  2.602615
O    0.425576  -2.305476  3.598880
H    0.984303  -0.225767  1.722522
H    0.020172  -1.157450  0.539689
H    1.481142  -1.866399  1.305369
N    -1.522640  -1.700114  2.619668
C    -2.258900  -0.469001  2.278753
C    -1.805937  0.625711  3.278692
O    -1.306914  0.215675  4.454867
H    -1.952978  -2.236515  3.374963
H    -1.967233  -0.154192  1.268555
C    -3.779273  -0.772734  2.325404
C    -4.687594  -0.073791  1.299690
C    -4.932202  1.434542  1.468228
N    -3.846684  2.281035  0.979309
C    -3.836641  2.964363  -0.161950
N    -4.773958  2.796064  -1.109839
N    -2.843750  3.846415  -0.388914
H    -4.155463  -0.585085  3.343261
H    -3.889374  -1.852523  2.147075
H    -5.667895  -0.566405  1.375353
H    -4.326139  -0.278355  0.279524
H    -5.079172  1.679883  2.530267
H    -5.867443  1.719589  0.969059
H    -2.999911  2.284141  1.604957
H    -4.888496  3.468214  -1.858403
H    -5.462379  2.058733  -1.046783
H    -2.721417  4.283475  -1.293345
N    -1.946313  1.856559  2.955597
C    -1.561493  2.901414  3.900710
H    -2.263241  4.175449  0.370908
H    -2.011699  3.850859  3.590777
H    -0.468988  3.035923  3.906319
H    -1.880126  2.677691  4.927714
Pb    -0.017653  -1.148344  5.540298
