36
Energy: -611335.095303 eV PBE+vdW (tier 2 basis)
C    0.559273  0.147186  1.522470
C    -0.215760  0.556070  2.736438
O    0.125811  1.760628  3.216797
H    0.222964  -0.826909  1.158461
H    1.630866  0.100271  1.759312
H    0.442290  0.901681  0.733067
N    -1.140316  -0.221739  3.206984
C    -1.903853  0.210495  4.363784
C    -1.025985  0.115357  5.618433
O    -0.645225  1.200566  6.196769
H    -5.772124  -2.840621  -0.144402
H    -2.156063  1.290663  4.302821
C    -3.240820  -0.550237  4.456220
C    -4.152996  -0.213675  3.269629
C    -5.440655  -1.048623  3.294507
N    -6.389632  -0.715213  2.224674
C    -6.519447  -1.345400  1.049924
N    -7.600763  -1.117978  0.289692
N    -5.585686  -2.206755  0.623284
H    -3.739069  -0.294675  5.404003
H    -3.049093  -1.631208  4.471460
H    -3.599937  -0.384212  2.332947
H    -4.417207  0.855389  3.287679
H    -5.976158  -0.899860  4.242225
H    -5.222601  -2.124750  3.236220
H    -7.023124  0.059438  2.394562
H    -7.630948  -1.401966  -0.682267
H    -8.435731  -0.690053  0.671516
H    -4.665676  -2.239921  1.041591
N    -0.593640  -1.033258  6.113694
C    -0.780915  -2.390815  5.599649
H    -0.005857  -0.931586  6.941202
H    -1.635114  -2.880878  6.083771
H    0.123565  -2.964732  5.826036
H    -0.912713  -2.360974  4.514081
Pb    0.141611  2.952447  4.994966
