36
Energy: -611334.825693 eV PBE+vdW (tier 2 basis)
C    -1.392567  0.697871  2.592431
C    -0.582773  0.054366  3.673372
O    0.508656  0.632240  4.042077
H    -1.898446  -0.027967  1.946454
H    -0.763600  1.361748  1.992802
H    -2.170797  1.318420  3.064212
N    -0.980012  -1.047910  4.279138
C    -2.117484  -1.926333  4.012344
C    -2.313785  -2.635983  5.384033
O    -1.357347  -2.615746  6.178466
H    -0.527819  -1.375568  5.157920
H    -3.002000  -1.338483  3.737465
C    -1.777014  -2.945691  2.894018
C    -0.670091  -3.951398  3.286678
C    0.469752  -4.135090  2.280345
N    1.243237  -2.914202  1.946773
C    1.953589  -2.160596  2.787044
N    2.621490  -0.992054  2.268531
N    2.113555  -2.270743  4.081633
H    -1.488175  -2.372968  2.000074
H    -2.695090  -3.479592  2.618613
H    -0.267658  -3.703557  4.278329
H    -1.105408  -4.951160  3.418118
H    0.081088  -4.495998  1.320552
H    1.168941  -4.902184  2.646049
H    1.389333  -2.743265  0.955499
H    3.590648  -1.196347  2.004411
H    2.151486  -0.545698  1.477707
H    1.742431  -3.100223  4.544849
N    -3.464434  -3.270855  5.635269
C    -4.665566  -3.368643  4.810430
H    -3.480742  -3.743177  6.538022
H    -5.544392  -3.358787  5.463617
H    -4.678444  -4.297708  4.224408
H    -4.749692  -2.513425  4.131988
Pb    2.559899  -0.029946  4.708205
