36
Energy: -611333.936152 eV PBE+vdW (tier 2 basis)
C    -1.948525  0.248034  0.701640
C    -1.328095  0.179949  2.052945
O    -0.056410  -0.010139  2.140363
H    -2.665808  1.074986  0.629700
H    -2.511312  -0.692818  0.532841
H    -1.177277  0.356935  -0.064836
N    -2.118860  0.286036  3.118501
C    -1.765595  0.047127  4.529141
C    -0.759512  1.097283  5.021170
O    0.507552  0.892242  4.988049
H    -3.155346  0.178341  2.938440
H    -2.700174  0.256079  5.065702
C    -1.366621  -1.421802  4.833616
C    -2.405059  -2.194384  5.671678
C    -3.831579  -2.283237  5.088873
N    -3.892164  -2.795742  3.729012
C    -4.103704  -2.083863  2.569834
N    -4.678978  -0.786174  2.739707
N    -3.804177  -2.421948  1.367394
H    -0.416566  -1.453947  5.388638
H    -1.212502  -1.947600  3.879708
H    -2.475607  -1.758597  6.680814
H    -2.014758  -3.212269  5.817765
H    -4.322637  -1.302446  5.117780
H    -4.426704  -2.927564  5.752413
H    -3.587300  -3.753914  3.589751
H    -5.050476  -0.507688  1.828945
H    -5.443042  -0.766547  3.417165
H    -3.340234  -3.331766  1.303336
N    -1.195966  2.238432  5.520003
C    -2.582427  2.692448  5.684327
H    -0.460979  2.874270  5.834417
H    -2.556461  3.746505  5.973985
H    -3.089006  2.129858  6.478927
H    -3.136156  2.608420  4.742578
Pb    1.701416  -0.209107  3.448342
