36
Energy: -611334.274853 eV PBE+vdW (tier 2 basis)
C    0.699550  -0.627296  0.295106
C    0.318117  0.105055  1.536874
O    1.223918  0.617776  2.278648
H    0.648162  -1.713247  0.481093
H    1.730208  -0.374420  0.029721
H    0.024448  -0.396096  -0.535062
N    -0.972770  0.207776  1.915647
C    -1.892379  -0.965427  1.977387
C    -1.125123  -2.114565  2.655390
O    -0.345773  -1.747726  3.708078
H    -1.098891  0.857723  2.690587
H    -2.669228  -0.634599  2.684902
C    -2.586058  -1.324111  0.653912
C    -3.929080  -2.033491  0.880324
C    -4.734982  -2.286652  -0.400650
N    -4.186107  -3.317679  -1.294880
C    -4.540947  -4.609208  -1.311803
N    -4.202897  -5.378529  -2.358741
N    -5.227626  -5.147318  -0.295780
H    -1.922541  -1.962324  0.054560
H    -2.755542  -0.386610  0.102842
H    -4.566251  -1.413613  1.530382
H    -3.749051  -2.977770  1.415474
H    -4.813405  -1.367205  -0.996910
H    -5.766358  -2.572765  -0.152968
H    -3.526292  -3.021917  -2.005866
H    -4.287440  -6.387153  -2.318280
H    -3.955238  -4.973024  -3.253155
H    -5.321153  -4.671164  0.591612
N    -1.263469  -3.305136  2.232528
C    -0.557280  -4.395026  2.889594
H    -5.691993  -6.042111  -0.394779
H    -0.975569  -4.586422  3.889425
H    0.515947  -4.183962  3.021312
H    -0.662927  -5.305149  2.291288
Pb    1.273350  -0.483967  4.325704
