36
Energy: -611334.916808 eV PBE+vdW (tier 2 basis)
C    0.455601  1.547038  1.451133
C    0.160984  0.241068  2.123248
O    1.086825  -0.390949  2.776789
H    -0.433610  2.001605  1.003166
H    1.193874  1.383564  0.652330
H    0.885620  2.257686  2.171445
N    -1.051830  -0.248783  2.050504
C    -1.614730  -1.496057  2.577981
C    -3.119984  -1.339748  2.192835
O    -3.499058  -0.222137  1.813579
H    -1.849496  0.299850  1.642942
H    -1.168552  -2.342208  2.033552
C    -1.382169  -1.703210  4.090103
C    -1.815247  -0.535862  4.995006
C    -0.912375  -0.382809  6.223552
N    0.435898  0.015210  5.794387
C    1.616093  -0.392375  6.270642
N    1.680542  -1.010663  7.460197
N    2.736401  -0.178041  5.530511
H    -0.312230  -1.907591  4.225200
H    -1.901842  -2.621556  4.390418
H    -2.848418  -0.667860  5.340981
H    -1.818425  0.418814  4.444653
H    -0.835960  -1.336728  6.765003
H    -1.323501  0.368443  6.913311
H    0.484576  0.635370  4.994342
H    2.536000  -1.453113  7.774111
H    0.915440  -0.968736  8.124105
H    3.578848  -0.214099  6.109135
N    -3.940206  -2.395295  2.294093
C    -3.631228  -3.784557  2.616484
H    -4.904904  -2.179048  2.048718
H    -2.590443  -4.024827  2.374295
H    -4.267284  -4.436620  2.008315
H    -3.819980  -4.010056  3.675327
Pb    3.241310  -0.145793  3.322736
