36
Energy: -611335.451083 eV PBE+vdW (tier 2 basis)
C    -0.128001  -0.571061  0.728794
C    -0.074002  -0.384561  2.214237
O    1.009333  -0.601319  2.829140
H    -1.123593  -0.416007  0.300293
H    0.213924  -1.585682  0.485787
H    0.578187  0.124950  0.255972
N    -1.207305  -0.014985  2.832861
C    -1.487795  0.180947  4.271111
C    -0.747095  1.429864  4.796338
O    0.481259  1.380209  5.100770
H    -2.009994  0.103052  2.221985
H    -2.564891  0.376083  4.296757
C    -1.179287  -1.000557  5.213495
C    -1.290719  -2.425588  4.669610
C    -0.574056  -3.417694  5.611120
N    0.798873  -2.991884  5.906565
C    1.873777  -3.068554  5.088076
N    2.014068  -4.159059  4.309702
N    2.750008  -2.054011  5.096025
H    -1.836558  -0.878787  6.087888
H    -0.161703  -0.851652  5.589946
H    -0.828484  -2.502121  3.675494
H    -2.337953  -2.738430  4.557670
H    -0.578554  -4.422669  5.173415
H    -1.094042  -3.499311  6.573826
H    0.920512  -2.328038  6.663306
H    2.751912  -4.201366  3.617435
H    1.574342  -5.037944  4.561735
H    3.688218  -2.351999  4.812549
N    -1.417200  2.565683  4.953544
C    -2.834096  2.842686  4.690120
H    -0.856737  3.333942  5.322683
H    -3.487095  2.263459  5.354645
H    -3.091531  2.650120  3.641788
H    -3.008138  3.904015  4.887372
Pb    2.451413  0.193272  4.443947
