36
Energy: -611335.622965 eV PBE+vdW (tier 2 basis)
C    -1.195297  1.403383  -0.334503
C    -0.844758  0.870065  1.021086
O    0.315856  1.070227  1.476429
H    -2.200266  1.129230  -0.671611
H    -0.458127  1.038301  -1.061614
H    -1.108204  2.498420  -0.317292
N    -1.798037  0.182852  1.676101
C    -1.795665  -0.492659  2.994526
C    -1.577442  0.523122  4.135846
O    -0.424038  0.937254  4.446716
H    -2.675610  0.104212  1.171226
H    -2.823344  -0.867329  3.075335
C    -0.834357  -1.699799  3.183015
C    -0.249167  -2.328721  1.918756
C    0.831062  -3.393180  2.200546
N    1.796436  -3.083096  3.271259
C    2.397800  -1.907589  3.532129
N    3.003230  -1.749640  4.744575
N    2.372035  -0.853514  2.716532
H    -1.386742  -2.457125  3.757136
H    -0.017987  -1.376108  3.836534
H    0.155896  -1.549572  1.261781
H    -1.028568  -2.832989  1.330085
H    1.366203  -3.621126  1.266277
H    0.350315  -4.326611  2.518242
H    2.080627  -3.876724  3.837706
H    2.967969  -2.496007  5.430848
H    3.845952  -1.185061  4.768989
H    2.105322  -1.096542  1.763288
N    -2.653454  0.918887  4.804541
C    -2.642016  1.863222  5.923216
H    -3.555350  0.547049  4.519482
H    -3.391970  1.551581  6.657004
H    -2.881515  2.875047  5.571379
H    -1.651449  1.863801  6.384937
Pb    1.644790  1.279972  3.344013
