36
Energy: -611334.853648 eV PBE+vdW (tier 2 basis)
C    0.318780  0.430320  0.764855
C    0.012632  0.202050  2.211287
O    1.061753  0.375538  3.025545
H    -0.576044  0.288247  0.153553
H    1.107456  -0.258476  0.433191
H    0.706163  1.448041  0.622061
N    -1.193546  -0.106623  2.583832
C    -1.430288  -0.280443  3.997732
C    -0.752156  -1.566698  4.506632
O    0.141041  -1.451181  5.426507
H    -7.234452  0.603190  0.704663
H    -0.896113  0.501856  4.582199
C    -2.912045  -0.061842  4.390727
C    -3.994465  -0.828893  3.627423
C    -5.421272  -0.387041  3.993172
N    -5.784481  0.977198  3.580563
C    -6.443542  1.312715  2.462641
N    -6.986431  2.534406  2.351592
N    -6.566789  0.445033  1.449925
H    -3.069238  1.018040  4.241662
H    -3.012242  -0.244371  5.472376
H    -3.947220  -1.901751  3.858353
H    -3.823609  -0.722625  2.545398
H    -5.567681  -0.431110  5.081136
H    -6.159121  -1.077810  3.562716
H    -5.600227  1.729286  4.235585
H    -7.314297  2.885731  1.459715
H    -7.154136  3.115009  3.164427
H    -6.014779  -0.400933  1.406617
N    -0.967745  -2.776057  4.010509
C    -1.772342  -3.193706  2.864186
H    -0.403780  -3.500867  4.455998
H    -2.673249  -3.726008  3.193160
H    -1.169567  -3.877811  2.255642
H    -2.030486  -2.321895  2.258291
Pb    1.787242  0.074475  5.026185
