36
Energy: -611332.89954 eV PBE+vdW (tier 2 basis)
C    -0.225219  1.755487  -0.672681
C    -0.375907  0.747419  0.412087
O    0.618100  0.035066  0.763801
H    0.337909  2.625139  -0.299341
H    -1.178865  2.089577  -1.091499
H    0.392476  1.312266  -1.465524
N    -1.564050  0.568076  1.038584
C    -2.383069  1.671248  1.545760
C    -1.578938  2.334847  2.691481
O    -0.585163  1.729314  3.222736
H    -1.582404  -0.256204  1.642121
H    -2.521716  2.407190  0.740308
C    -3.761006  1.169620  2.028883
C    -4.780187  0.841993  0.925307
C    -4.572216  -0.493513  0.179776
N    -5.665389  -0.812203  -0.725914
C    -6.968133  -1.092712  -0.339380
N    -7.131244  -1.603595  0.930339
N    -8.027140  -0.863270  -1.051146
H    -4.195121  1.944151  2.674211
H    -3.606325  0.300591  2.691387
H    -4.824441  1.666010  0.196008
H    -5.769284  0.804630  1.402974
H    -4.443448  -1.308175  0.910197
H    -3.655858  -0.480038  -0.425214
H    -5.582457  -0.465668  -1.675337
H    -8.097031  -1.857195  1.123279
H    -6.454357  -2.281133  1.266175
H    -7.831957  -0.464947  -1.974073
N    -1.916292  3.531982  3.143661
C    -2.999126  4.418059  2.710278
H    -1.346574  3.863223  3.923823
H    -2.628021  5.448473  2.718640
H    -3.853870  4.345518  3.395334
H    -3.325750  4.175830  1.695244
Pb    1.150815  0.204346  3.017069
