36
Energy: -611334.742024 eV PBE+vdW (tier 2 basis)
C    1.005562  -2.389802  3.027126
C    0.487223  -1.129486  3.656911
O    1.228588  -0.719104  4.723079
H    2.056095  -2.249538  2.738974
H    0.416729  -2.656990  2.146376
H    0.984961  -3.221376  3.745870
N    -0.539029  -0.546177  3.158644
C    -1.099065  0.722807  3.558860
C    -1.045177  1.136278  5.025154
O    -1.181760  0.289824  5.982536
H    -4.353746  -2.737782  -1.017894
H    -0.580945  1.508199  2.980289
C    -2.599678  0.744460  3.138404
C    -2.766643  0.617869  1.620508
C    -4.238160  0.434829  1.224840
N    -4.462515  0.402959  -0.226491
C    -4.518022  -0.690198  -0.997440
N    -4.987167  -0.597946  -2.250768
N    -4.119713  -1.881527  -0.530397
H    -3.080709  1.667982  3.496148
H    -3.093822  -0.093094  3.653826
H    -2.158338  -0.229042  1.270225
H    -2.368737  1.516156  1.123080
H    -4.850546  1.260134  1.613004
H    -4.659438  -0.484108  1.657589
H    -4.581721  1.294858  -0.695976
H    -5.523109  0.204957  -2.557376
H    -4.839757  -1.339667  -2.924691
H    -3.556336  -1.958572  0.305947
N    -0.923923  2.423216  5.337655
C    -0.801584  3.571992  4.436569
H    -0.994312  2.625928  6.334332
H    0.036012  3.438028  3.742338
H    -0.603961  4.458552  5.045380
H    -1.727160  3.739647  3.871755
Pb    0.602637  -0.881395  6.744754
