36
Energy: -611335.633211 eV PBE+vdW (tier 2 basis)
C    0.225408  0.837907  0.279597
C    0.227334  0.430009  1.721287
O    1.233953  -0.177331  2.192632
H    -0.689748  1.348083  -0.038039
H    0.363986  -0.062874  -0.334435
H    1.088341  1.488467  0.085377
N    -0.870351  0.721799  2.440414
C    -1.315755  0.338058  3.798249
C    -0.478342  0.930094  4.935729
O    0.786158  0.991369  4.935013
H    -1.587894  1.206482  1.908817
H    -2.291223  0.835032  3.874352
C    -1.644408  -1.173001  3.964532
C    -0.524612  -2.216941  3.873830
C    0.342972  -2.347736  5.132967
N    1.441905  -3.283126  4.939687
C    2.749779  -2.972901  4.873207
N    3.627108  -3.996651  4.955118
N    3.180611  -1.707797  4.747047
H    -2.391673  -1.394340  3.189777
H    -2.178953  -1.281344  4.921870
H    0.117387  -2.033089  3.005544
H    -1.010102  -3.187111  3.690910
H    -0.266178  -2.704769  5.977387
H    0.780319  -1.395179  5.447557
H    1.202219  -4.267537  4.876371
H    3.351656  -4.916213  5.279562
H    4.601957  -3.869877  4.715336
H    4.177647  -1.669068  4.970963
N    -1.133535  1.381684  6.004040
C    -2.578081  1.487809  6.235358
H    -0.522438  1.728327  6.742862
H    -3.058050  2.123210  5.480136
H    -2.725785  1.958419  7.211188
H    -3.059532  0.502823  6.257203
Pb    2.746094  0.385103  3.825790
