36
Energy: -611334.705973 eV PBE+vdW (tier 2 basis)
C    -0.384914  2.901460  -0.716094
C    -0.155967  2.162404  0.559379
O    1.051441  2.029477  0.990350
H    0.049072  3.906916  -0.633446
H    -1.447052  2.983760  -0.967044
H    0.141448  2.388661  -1.532588
N    -1.185397  1.674519  1.221757
C    -1.179561  0.981980  2.505576
C    -2.652352  0.478173  2.633426
O    -3.520284  1.079873  2.003048
H    -2.158862  1.825830  0.902242
H    -0.480305  0.128392  2.462443
C    -0.811082  1.979839  3.630626
C    -0.539525  1.411613  5.026315
C    0.611982  0.416836  5.193064
N    1.922165  0.790920  4.552394
C    2.466049  2.121145  4.706442
N    2.334402  2.760615  5.868414
N    3.048506  2.551766  3.620470
H    -1.638405  2.699372  3.710699
H    0.053131  2.567894  3.289714
H    -1.434206  0.902385  5.414364
H    -0.394361  2.268014  5.699048
H    0.366879  -0.557145  4.747257
H    0.764751  0.221862  6.266554
H    2.626107  0.123494  4.889192
H    2.691804  3.703471  5.998084
H    1.967528  2.297416  6.693070
H    3.540679  3.446197  3.654352
N    -2.881665  -0.551426  3.468856
C    -4.223924  -1.096441  3.689153
H    -2.093518  -1.079303  3.825821
H    -4.450109  -1.892586  2.968044
H    -4.954266  -0.291858  3.565791
H    -4.288256  -1.497057  4.705707
Pb    2.671368  0.897378  1.986325
