36
Energy: -611334.205176 eV PBE+vdW (tier 2 basis)
C    -0.181393  -0.611618  0.372255
C    -0.155359  -0.098686  1.771803
O    0.890836  0.513698  2.185343
H    -0.042917  0.237723  -0.312490
H    -1.112136  -1.129077  0.118033
H    0.669658  -1.287369  0.214014
N    -1.228717  -0.266125  2.545913
C    -1.464535  0.305740  3.887204
C    -0.746399  -0.581934  4.931549
O    0.516633  -0.333759  5.143856
H    -2.010898  -0.770304  2.131798
H    -0.940083  1.274164  3.917622
C    -2.966430  0.564306  4.060793
C    -3.322228  1.360678  5.328331
C    -4.799286  1.208587  5.757827
N    -5.227452  -0.196615  5.901250
C    -4.352333  -1.097951  6.483966
N    -3.828585  -0.717027  7.686598
N    -3.910953  -2.206608  5.932877
H    -3.493669  -0.400813  4.053460
H    -3.304699  1.112550  3.168577
H    -3.113375  2.429204  5.174445
H    -2.688904  1.037791  6.168050
H    -5.474717  1.665070  5.023771
H    -4.956243  1.759232  6.695587
H    -5.679278  -0.571446  5.072896
H    -3.387504  -1.459702  8.218018
H    -4.360891  -0.059537  8.246287
H    -4.390742  -2.403814  5.051031
N    -1.321732  -1.568286  5.556159
C    -0.588519  -2.439782  6.478267
H    -2.403899  -1.790481  5.559509
H    0.227818  -2.956100  5.958635
H    -1.299632  -3.176789  6.861929
H    -0.165542  -1.859212  7.308104
Pb    2.108596  0.722567  4.049372
