36
Energy: -611334.719194 eV PBE+vdW (tier 2 basis)
C    0.209350  -0.082854  0.730910
C    0.075831  -0.870134  1.919728
O    1.042103  -1.691791  2.196022
H    -0.851825  5.709507  3.435922
H    -0.595400  0.547093  0.361412
H    1.213978  0.320790  0.586663
N    -1.053275  -0.995073  2.696320
C    -2.428107  -0.937229  2.207175
C    -2.652026  -1.999398  1.096632
O    -1.693906  -2.527713  0.470413
H    -0.904131  -1.735049  3.382066
H    -3.036617  -1.257801  3.066618
C    -2.930239  0.478476  1.829604
C    -2.691298  1.486445  2.962131
C    -3.384398  2.843818  2.773089
N    -2.787968  3.722271  1.755163
C    -1.950078  4.742979  1.994491
N    -1.743350  5.668301  1.045353
N    -1.307146  4.845960  3.164154
H    -4.008406  0.408329  1.626329
H    -2.467629  0.817179  0.893136
H    -1.611119  1.626923  3.115873
H    -3.077401  1.067238  3.904446
H    -3.400770  3.394918  3.722997
H    -4.437669  2.705595  2.491961
H    -3.121594  3.630600  0.801644
H    -2.398186  5.799878  0.283700
H    -0.988244  6.339792  1.121709
H    -1.280829  4.082346  3.826968
N    -3.896322  -2.401147  0.820936
C    -5.160430  -2.044498  1.460296
H    -3.942207  -3.098153  0.078261
H    -5.817899  -2.919737  1.438018
H    -5.661521  -1.222522  0.931780
H    -5.010800  -1.768260  2.509270
Pb    0.677013  -2.384175  -0.020445
