36
Energy: -611334.514687 eV PBE+vdW (tier 2 basis)
C    -1.114063  -4.636741  3.238206
C    -0.413630  -3.343546  2.964927
O    0.842980  -3.265846  3.230421
H    -0.974940  -5.294903  2.365891
H    -2.190396  -4.523543  3.402950
H    -0.651853  -5.141750  4.092500
N    -1.036064  -2.300741  2.441711
C    -2.400698  -2.142895  1.926993
C    -2.144914  -1.454628  0.545902
O    -1.136308  -0.741799  0.456836
H    -0.461672  -1.537648  2.031190
H    -2.889225  -3.119441  1.825427
C    -3.249698  -1.157917  2.767067
C    -3.601886  -1.461832  4.234623
C    -2.465375  -1.582524  5.269108
N    -1.386797  -0.606925  5.016316
C    -0.083966  -0.802399  5.211341
N    0.374374  -1.891521  6.011966
N    0.928271  -0.143779  4.681957
H    -4.206370  -1.043520  2.237192
H    -2.778280  -0.164724  2.677521
H    -4.190719  -2.387377  4.307235
H    -4.280047  -0.660141  4.560563
H    -2.036490  -2.592782  5.224235
H    -2.875443  -1.439174  6.278155
H    -1.624777  0.157213  4.387573
H    0.777786  -1.550315  6.889457
H    -0.320604  -2.607390  6.226539
H    0.714264  0.687176  4.127580
N    -3.058101  -1.644787  -0.412290
C    -2.995123  -1.008054  -1.728712
H    -3.829924  -2.279062  -0.231055
H    -2.108575  -0.369758  -1.761614
H    -3.891303  -0.398961  -1.896013
H    -2.924620  -1.770836  -2.513051
Pb    2.374433  -1.980076  4.292143
