36
Energy: -611334.322423 eV PBE+vdW (tier 2 basis)
C    -0.877749  1.031773  0.232692
C    -1.084918  1.091762  1.706825
O    -0.836332  2.195579  2.317493
H    -1.435300  1.851447  -0.240130
H    -1.198755  0.078676  -0.196953
H    0.185411  1.194680  0.008839
N    -1.535238  0.023255  2.355140
C    -1.832713  0.025032  3.784662
C    -0.527133  0.151812  4.607231
O    -0.355271  1.262933  5.264615
H    -1.678340  -0.872772  1.856120
H    -2.354530  0.973927  3.986231
C    -2.863647  -1.052359  4.198422
C    -2.530599  -2.550933  4.231964
C    -2.535062  -3.353685  2.918297
N    -1.649290  -2.882598  1.832152
C    -0.263918  -2.848478  2.002520
N    0.440309  -2.364395  0.930939
N    0.357147  -3.056789  3.129662
H    -3.747697  -0.875139  3.565204
H    -3.174809  -0.768175  5.214204
H    -3.322209  -3.016955  4.837510
H    -1.617047  -2.717560  4.815479
H    -3.548008  -3.333029  2.495436
H    -2.322250  -4.408100  3.159223
H    -1.963869  -3.194832  0.913345
H    1.431620  -2.585432  0.944581
H    0.019242  -2.387973  0.008466
H    -0.219756  -3.609991  3.765209
N    0.389394  -0.775064  4.626656
C    1.644297  -0.647251  5.372001
H    0.325833  -1.658838  4.008338
H    2.185280  -1.592034  5.271584
H    1.444195  -0.441515  6.429576
H    2.261612  0.164094  4.963578
Pb    -0.503377  3.240015  4.279312
