36
Energy: -611333.074227 eV PBE+vdW (tier 2 basis)
C    0.433187  0.283221  1.194121
C    0.002635  0.718871  2.549289
O    0.852556  1.229208  3.354482
H    0.672751  1.157498  0.570303
H    -0.299614  -0.350158  0.686119
H    1.374971  -0.272708  1.308922
N    -1.274895  0.571041  2.964347
C    -2.434889  0.952615  2.161660
C    -2.580017  2.496685  2.305508
O    -1.732529  3.185862  2.965532
H    -1.397005  0.716113  3.967627
H    -2.186521  0.760926  1.106810
C    -3.694230  0.139119  2.514771
C    -4.183865  0.264219  3.962540
C    -5.493289  -0.516137  4.235844
N    -5.390413  -1.950931  4.033016
C    -5.532791  -2.619667  2.827387
N    -6.310993  -1.989629  1.870519
N    -4.949451  -3.733582  2.516124
H    -3.464680  -0.908760  2.275833
H    -4.502213  0.413378  1.819138
H    -4.371806  1.319199  4.224300
H    -3.417659  -0.107555  4.663251
H    -6.297250  -0.113880  3.607188
H    -5.797496  -0.339772  5.276179
H    -4.917010  -2.481668  4.756922
H    -6.444747  -2.587006  1.057405
H    -7.182008  -1.577219  2.194864
H    -4.378098  -4.125611  3.270104
N    -3.602970  3.072798  1.699549
C    -3.892270  4.508445  1.669098
H    -4.240433  2.465961  1.188121
H    -3.737801  4.896944  0.654721
H    -3.231004  5.026439  2.366147
H    -4.936015  4.672075  1.960084
Pb    0.270757  3.314096  4.132630
