36
Energy: -611334.888702 eV PBE+vdW (tier 2 basis)
C    -0.222536  1.839018  0.394257
C    -0.421672  0.922359  1.557246
O    0.312473  1.018725  2.626589
H    -0.344335  2.881774  0.719114
H    -0.928871  1.642639  -0.418432
H    0.796807  1.720703  -0.001851
N    -1.362835  0.015382  1.519730
C    -1.683889  -0.983159  2.533341
C    -2.640860  -1.935822  1.744056
O    -3.050288  -1.557788  0.641292
H    -1.985166  -0.148615  0.691103
H    -0.763188  -1.523303  2.804380
C    -2.356112  -0.378270  3.802064
C    -1.734010  -0.832399  5.130672
C    -0.391020  -0.192747  5.491935
N    -0.572831  1.234315  5.819109
C    0.393129  2.149161  6.001311
N    0.155590  3.158765  6.859048
N    1.579125  2.081223  5.345478
H    -3.420680  -0.645435  3.797697
H    -2.326786  0.717578  3.726810
H    -1.585716  -1.922708  5.138256
H    -2.451003  -0.646094  5.946285
H    0.313518  -0.280372  4.660470
H    0.043000  -0.705552  6.363396
H    -1.462559  1.452371  6.262817
H    0.728814  3.994455  6.858278
H    -0.593570  3.120181  7.542206
H    2.296158  2.593241  5.865823
N    -2.969611  -3.091885  2.335469
C    -3.888395  -4.066198  1.744706
H    -2.548785  -3.322466  3.229087
H    -4.209491  -3.689469  0.770284
H    -4.765468  -4.201449  2.388884
H    -3.382297  -5.029700  1.613015
Pb    2.281079  1.846015  3.205768
