36
Energy: -611334.852448 eV PBE+vdW (tier 2 basis)
C    -0.303145  -0.254665  0.207239
C    -0.060102  -0.212521  1.679445
O    1.068962  -0.564601  2.158382
H    0.028840  0.692798  -0.245175
H    -1.356937  -0.404177  -0.051169
H    0.296579  -1.061201  -0.227473
N    -1.022490  0.180707  2.523334
C    -2.242078  0.920738  2.199920
C    -1.880665  2.231068  1.463677
O    -0.790214  2.804829  1.670404
H    -0.776470  0.109701  3.508498
H    -2.868811  0.302674  1.542752
C    -3.074264  1.236257  3.480024
C    -2.356595  1.404692  4.835635
C    -1.189884  2.420683  4.970310
N    0.086126  1.724570  5.229167
C    1.228017  1.727226  4.536358
N    1.332180  2.376741  3.273620
N    2.330039  1.070675  4.844581
H    -3.810358  0.433029  3.614549
H    -3.657123  2.143558  3.272091
H    -2.013951  0.422270  5.200325
H    -3.142589  1.688225  5.547825
H    -1.370781  3.091543  5.819561
H    -1.072491  3.050878  4.083538
H    0.102918  1.169994  6.084557
H    0.440222  2.516771  2.718348
H    1.837642  3.264113  3.350162
H    2.381821  0.604629  5.751866
N    -2.788467  2.737987  0.621972
C    -4.089257  2.185351  0.234941
H    -2.519464  3.631690  0.213985
H    -3.986344  1.192887  -0.222842
H    -4.528815  2.851685  -0.512239
H    -4.781799  2.128560  1.084044
Pb    3.023302  0.552933  2.671502
