36
Energy: -611335.472861 eV PBE+vdW (tier 2 basis)
C    -1.863026  -0.201561  -0.155351
C    -1.184973  -0.083372  1.175963
O    0.060630  -0.179792  1.273350
H    -1.656039  -1.198725  -0.567014
H    -1.420955  0.527144  -0.846711
H    -2.946904  -0.050712  -0.114346
N    -1.974376  0.127915  2.257737
C    -1.521093  0.180460  3.656840
C    -0.659054  1.442783  3.888501
O    0.602130  1.448919  3.765519
H    -2.974339  0.186589  2.093394
H    -2.434687  0.311911  4.254157
C    -0.852413  -1.133824  4.089385
C    -0.257897  -1.160475  5.506564
C    0.978019  -2.060946  5.572786
N    2.143385  -1.449152  4.881174
C    2.879854  -0.387746  5.517355
N    2.891792  -0.317236  6.856062
N    3.435353  0.430377  4.673982
H    -0.079922  -1.391545  3.352690
H    -1.607894  -1.924673  3.986060
H    -0.998223  -1.534908  6.225363
H    0.015788  -0.153168  5.855202
H    0.785090  -3.015397  5.065551
H    1.215736  -2.321722  6.615671
H    2.804347  -2.168238  4.576380
H    3.375670  0.441113  7.325959
H    2.621051  -1.104898  7.434070
H    4.062490  1.136114  5.063718
N    -1.312147  2.542833  4.243792
C    -0.709457  3.859270  4.450940
H    -2.320126  2.475322  4.358737
H    -1.016481  4.542652  3.649148
H    0.377928  3.759478  4.449719
H    -1.043275  4.264312  5.412766
Pb    2.141017  0.157899  2.611883
