36
Energy: -611335.363889 eV PBE+vdW (tier 2 basis)
C    0.915828  0.424726  0.372502
C    0.616633  0.185260  1.816566
O    1.538029  0.255640  2.677929
H    1.651788  -0.315569  0.030934
H    1.385587  1.411731  0.266559
H    0.029484  0.375503  -0.268712
N    -0.657964  -0.091722  2.171363
C    -1.034194  -0.219730  3.577726
C    -0.737841  -1.646591  4.082573
O    0.320163  -1.834529  4.770374
H    -1.365183  -0.122990  1.442401
H    -0.276070  0.381883  4.089382
C    -2.389298  0.411362  3.968887
C    -2.305829  1.088774  5.353207
C    -1.397560  2.345841  5.333056
N    -0.526637  2.575221  6.496790
C    0.678487  1.975817  6.650835
N    1.671882  2.648307  7.255234
N    0.889465  0.726867  6.207388
H    -3.207529  -0.316903  3.965114
H    -2.648027  1.165927  3.210201
H    -1.964998  0.365841  6.110611
H    -3.317286  1.368142  5.673154
H    -2.021505  3.241658  5.238970
H    -0.751993  2.336691  4.441003
H    -0.719559  3.397531  7.060613
H    1.610814  3.642846  7.441739
H    2.428146  2.137587  7.695491
H    0.004896  0.220492  6.179908
N    -1.515917  -2.686125  3.817032
C    -2.748248  -2.771214  3.033607
H    -1.176912  -3.562831  4.216738
H    -3.625752  -2.821751  3.691183
H    -2.711170  -3.684135  2.428994
H    -2.849508  -1.919739  2.357018
Pb    2.269556  -0.530544  4.815129
