36
Energy: -611335.394647 eV PBE+vdW (tier 2 basis)
C    -1.302241  0.092212  -0.890011
C    -1.110961  -0.298777  0.542292
O    -0.216053  -1.177376  0.823853
H    -0.541451  0.834865  -1.173734
H    -2.294425  0.506527  -1.098580
H    -1.127944  -0.787728  -1.520053
N    -1.799121  0.198479  1.583456
C    -2.258364  1.572140  1.612392
C    -1.120543  2.404726  2.259765
O    -0.208315  1.824290  2.926221
H    -7.696961  -0.618232  4.881458
H    -2.406813  1.958554  0.589474
C    -3.586112  1.730428  2.385129
C    -4.813561  1.202322  1.611798
C    -5.168068  -0.279565  1.787524
N    -5.885775  -0.514703  3.051992
C    -6.748814  -1.513848  3.285262
N    -6.835505  -2.549470  2.441270
N    -7.534549  -1.478449  4.372389
H    -3.749471  2.793432  2.604780
H    -3.475748  1.237683  3.365267
H    -4.658384  1.371154  0.536243
H    -5.699037  1.801592  1.869780
H    -4.259692  -0.900383  1.744317
H    -5.834337  -0.582084  0.967356
H    -5.739495  0.145883  3.808253
H    -6.131507  -2.719881  1.735053
H    -7.600456  -3.211358  2.500936
H    -8.057692  -2.293512  4.670155
N    -1.074027  3.725583  2.121769
C    -1.983465  4.612783  1.400191
H    -0.288038  4.165441  2.601358
H    -2.510368  4.073407  0.607375
H    -1.396723  5.412606  0.936321
H    -2.716329  5.066657  2.080521
Pb    -0.116700  -0.535417  3.066871
