36
Energy: -611334.425326 eV PBE+vdW (tier 2 basis)
C    0.808824  -0.829195  1.104557
C    0.239805  0.065910  2.159439
O    0.925332  1.094323  2.516520
H    1.902018  -0.831996  1.163323
H    0.544262  -0.412590  0.119716
H    0.425306  -1.853591  1.148528
N    -0.942219  -0.154183  2.709906
C    -1.977619  -1.150531  2.414916
C    -3.264279  -0.266634  2.349777
O    -3.263938  0.762860  3.039254
H    -1.399453  0.622493  3.228057
H    -1.762936  -1.663102  1.470850
C    -2.194731  -2.150587  3.577297
C    -1.076468  -3.113868  4.014760
C    0.235239  -2.531391  4.578022
N    -0.008674  -1.341401  5.416714
C    0.774000  -0.267927  5.511073
N    2.123391  -0.310862  5.048340
N    0.453373  0.941304  5.927740
H    -3.050479  -2.780200  3.294547
H    -2.568122  -1.570685  4.437987
H    -0.793912  -3.780349  3.187414
H    -1.517236  -3.770075  4.778939
H    0.892785  -2.241374  3.747317
H    0.755312  -3.304068  5.160555
H    -0.971446  -1.207251  5.718272
H    2.777181  -0.268787  5.835691
H    2.366159  -1.110115  4.462024
H    -0.478157  1.073330  6.325887
N    -4.303893  -0.682910  1.615609
C    -4.374746  -1.843012  0.728305
H    -5.117748  -0.073142  1.666628
H    -3.644775  -1.776151  -0.089299
H    -5.372083  -1.866032  0.280626
H    -4.236383  -2.787077  1.271841
Pb    1.690354  2.195364  4.342587
