36
Energy: -611333.855747 eV PBE+vdW (tier 2 basis)
C    1.367081  1.089272  2.511873
C    0.450328  0.060167  3.080020
O    0.837735  -0.623583  4.093493
H    1.589336  1.826027  3.297910
H    0.950486  1.607960  1.642346
H    2.322585  0.622336  2.238620
N    -0.756562  -0.104979  2.540530
C    -1.893614  -0.886186  3.065299
C    -1.773882  -2.375988  2.658130
O    -0.767585  -3.068207  3.088220
H    -0.973711  0.480523  1.735727
H    -1.834608  -0.856921  4.167126
C    -3.200338  -0.301337  2.561280
C    -3.787265  1.017743  3.063756
C    -5.110427  1.287558  2.273506
N    -5.924374  0.086903  2.025792
C    -5.541111  -0.879191  1.099193
N    -5.103365  -0.391295  -0.109395
N    -5.466746  -2.168322  1.312109
H    -3.950522  -1.058468  2.803155
H    -3.144097  -0.272438  1.459616
H    -3.116297  1.877997  2.921209
H    -3.997072  0.950744  4.141773
H    -4.869035  1.751426  1.310166
H    -5.727852  2.010481  2.818970
H    -6.356737  -0.306396  2.857823
H    -5.031258  -1.105238  -0.828185
H    -5.527571  0.470890  -0.437344
H    -5.825511  -2.413440  2.240189
N    -2.678543  -2.956979  1.906385
C    -2.609949  -4.368177  1.512140
H    -3.575465  -2.482804  1.615240
H    -1.748698  -4.539669  0.855074
H    -3.534753  -4.601346  0.977862
H    -2.517647  -5.012086  2.394939
Pb    0.825337  -2.792988  4.610236
