36
Energy: -611334.63686 eV PBE+vdW (tier 2 basis)
C    0.329277  1.885215  1.567922
C    -0.045183  1.045532  2.753091
O    1.014908  0.723235  3.548849
H    1.041599  1.353975  0.920092
H    0.838108  2.796207  1.911267
H    -0.556943  2.157816  0.989812
N    -1.269704  0.724904  2.950692
C    -1.767505  0.054579  4.130639
C    -1.059114  -1.225089  4.579804
O    -0.280009  -1.891532  3.804730
H    -5.677866  0.010041  -1.249702
H    -1.698174  0.753513  4.985092
C    -3.283548  -0.220088  3.898657
C    -3.566061  -1.078167  2.663315
C    -5.061164  -1.262176  2.365735
N    -5.777069  -0.033257  1.989050
C    -6.010947  0.392455  0.740952
N    -6.913686  1.361418  0.525728
N    -5.355714  -0.136773  -0.300744
H    -3.733011  0.775761  3.776550
H    -3.739599  -0.673893  4.790563
H    -3.143946  -2.087906  2.787656
H    -3.049148  -0.626969  1.802470
H    -5.583860  -1.665221  3.244092
H    -5.209438  -1.999031  1.564436
H    -6.176109  0.524103  2.736610
H    -6.967514  1.842704  -0.363942
H    -7.605950  1.604455  1.223877
H    -4.538539  -0.717890  -0.170861
N    -1.257624  -1.699956  5.807656
C    -2.070549  -1.163606  6.899183
H    -0.793244  -2.590422  5.987497
H    -1.574651  -1.398668  7.846667
H    -3.070364  -1.616646  6.906582
H    -2.163789  -0.076870  6.817725
Pb    1.876586  -1.213402  3.498756
