36
Energy: -611335.138369 eV PBE+vdW (tier 2 basis)
C    0.202033  1.329177  0.710020
C    0.147904  0.213853  1.692924
O    0.998025  0.137403  2.633357
H    -0.228602  2.235962  1.163880
H    -0.324902  1.105567  -0.222654
H    1.253594  1.561461  0.499584
N    -0.802948  -0.752393  1.611679
C    -2.226825  -0.501771  1.415351
C    -2.689067  0.405280  2.577272
O    -2.066601  0.372119  3.687711
H    -0.646216  -1.476636  2.320502
H    -2.382718  -0.021023  0.441337
C    -3.047668  -1.816912  1.504199
C    -2.492256  -3.072607  0.807853
C    -1.396247  -3.871310  1.553005
N    -1.706374  -4.133106  2.964974
C    -1.288801  -3.404090  4.020002
N    -2.007743  -3.457053  5.165947
N    -0.226933  -2.581889  3.977450
H    -4.037369  -1.599197  1.082231
H    -3.230339  -2.043363  2.566594
H    -2.106281  -2.835281  -0.194269
H    -3.346864  -3.744515  0.644665
H    -0.419442  -3.379910  1.487817
H    -1.265435  -4.841933  1.058910
H    -2.368343  -4.882405  3.151143
H    -1.516552  -3.348508  6.046594
H    -2.883288  -3.968119  5.208744
H    0.483394  -2.892482  3.311191
N    -3.753825  1.183905  2.446930
C    -4.644619  1.348129  1.296530
H    -4.002827  1.699396  3.292317
H    -4.143067  1.066127  0.366620
H    -4.933689  2.401827  1.224620
H    -5.550326  0.740401  1.419218
Pb    -0.022211  -0.334940  4.714679
