36
Energy: -611335.715406 eV PBE+vdW (tier 2 basis)
C    1.009557  -0.985500  0.527836
C    0.506109  0.037036  1.497709
O    1.203824  1.071050  1.736418
H    1.124016  -0.518137  -0.459820
H    0.363475  -1.864639  0.436200
H    2.012114  -1.306934  0.841559
N    -0.663889  -0.205144  2.106402
C    -1.361882  0.531917  3.183061
C    -2.035660  1.797277  2.626633
O    -1.347206  2.752038  2.160036
H    -1.112245  -1.075184  1.833444
H    -2.134716  -0.171547  3.511080
C    -0.514748  0.937670  4.411704
C    0.564529  -0.049020  4.883408
C    1.764594  0.690641  5.503607
N    2.319721  1.649452  4.539827
C    2.245825  2.995234  4.625759
N    2.359330  3.570004  5.839686
N    2.054157  3.713043  3.508404
H    -1.229259  1.132997  5.224422
H    -0.049116  1.904198  4.191345
H    0.932187  -0.664807  4.049762
H    0.165709  -0.756681  5.622136
H    2.537537  -0.027424  5.806477
H    1.455480  1.240393  6.401441
H    2.422403  1.304075  3.588707
H    2.197205  4.562813  5.956978
H    2.838145  3.094115  6.596460
H    2.324343  4.692050  3.625417
N    -3.358827  1.903738  2.671683
C    -4.345694  0.938904  3.171900
H    -3.717909  2.788751  2.313426
H    -5.338522  1.374360  3.029816
H    -4.211256  0.745993  4.243214
H    -4.307770  -0.001460  2.608811
Pb    0.865436  3.353726  1.538058
