36
Energy: -611332.976037 eV PBE+vdW (tier 2 basis)
C    0.682209  1.071934  0.967355
C    0.458939  0.875639  2.425911
O    1.440544  0.926960  3.234358
H    0.865937  2.137337  0.757560
H    -0.146396  0.715186  0.348776
H    1.605175  0.544784  0.690461
N    -0.781280  0.640061  2.916864
C    -1.962180  1.418241  2.536842
C    -1.731640  2.860953  3.051569
O    -0.829087  3.102155  3.925467
H    -0.782431  0.358638  3.899108
H    -2.034832  1.440106  1.439636
C    -3.247643  0.803135  3.130516
C    -3.772366  -0.466897  2.442145
C    -2.967690  -1.762304  2.689599
N    -3.678685  -2.962735  2.306138
C    -4.677436  -3.530681  3.073662
N    -5.340457  -4.581887  2.513244
N    -5.058803  -3.146419  4.263922
H    -4.037714  1.564066  3.088860
H    -3.081675  0.621964  4.206727
H    -3.873572  -0.294868  1.359108
H    -4.793744  -0.629519  2.815139
H    -2.698755  -1.840670  3.756481
H    -2.019348  -1.756053  2.135864
H    -3.583540  -3.270802  1.344712
H    -6.008839  -5.053226  3.112758
H    -4.970785  -5.103210  1.728364
H    -4.502250  -2.371482  4.630331
N    -2.473971  3.861088  2.604556
C    -3.559564  3.845491  1.621391
H    -2.267789  4.763710  3.035522
H    -3.494265  2.966269  0.974615
H    -3.475525  4.741996  0.997910
H    -4.535075  3.856044  2.124822
Pb    1.190896  2.518823  4.904895
