36
Energy: -611334.679453 eV PBE+vdW (tier 2 basis)
C    -0.537984  3.062531  0.619949
C    -0.675737  2.667196  2.061201
O    -0.384699  3.678451  2.927213
H    -1.176381  3.932854  0.416286
H    -0.820578  2.237848  -0.038733
H    0.493543  3.370645  0.397101
N    -1.062968  1.483723  2.362169
C    -1.356997  0.985242  3.684674
C    -0.499962  1.441613  4.860142
O    0.750788  1.710225  4.738115
H    -2.451887  -3.415985  -1.235709
H    -2.399668  1.264062  3.922766
C    -1.295015  -0.571623  3.632279
C    -2.380912  -1.139355  2.713243
C    -2.357952  -2.666615  2.564524
N    -1.245099  -3.200453  1.764146
C    -1.289124  -3.485996  0.456187
N    -0.322574  -4.237800  -0.093995
N    -2.284891  -3.029503  -0.314404
H    -1.404032  -0.993404  4.643708
H    -0.289931  -0.839755  3.272921
H    -2.301253  -0.649117  1.731534
H    -3.372006  -0.874788  3.114085
H    -3.294767  -3.021376  2.113274
H    -2.295645  -3.154586  3.546902
H    -0.382920  -3.427364  2.247600
H    -0.222622  -4.312123  -1.099218
H    0.273330  -4.828626  0.473006
H    -2.912022  -2.303122  0.005218
N    -1.041644  1.511078  6.073340
C    -2.422223  1.227138  6.473434
H    -0.383389  1.734308  6.819148
H    -3.131326  1.810264  5.874473
H    -2.536847  1.518757  7.521046
H    -2.655752  0.158826  6.384122
Pb    1.403845  3.778341  4.063353
