36
Energy: -611334.900858 eV PBE+vdW (tier 2 basis)
C    1.196162  1.028463  1.491054
C    0.508508  0.512115  2.715471
O    0.829466  1.166646  3.837293
H    2.285424  0.958828  1.613431
H    0.960133  2.091986  1.351788
H    0.888215  0.464124  0.607172
N    -0.338795  -0.469609  2.623883
C    -0.994529  -0.906445  3.833799
C    0.000163  -1.644160  4.748957
O    0.241737  -1.138906  5.907245
H    -4.286124  -2.277628  -1.764252
H    -1.274427  -0.033650  4.465639
C    -2.357222  -1.593804  3.565859
C    -2.448742  -2.638680  2.447349
C    -3.918683  -2.868237  2.061800
N    -4.119330  -3.900330  1.037221
C    -4.272892  -3.695467  -0.277832
N    -4.735235  -4.685883  -1.055118
N    -3.972365  -2.512279  -0.830181
H    -3.034394  -0.762483  3.313508
H    -2.733679  -2.008883  4.513191
H    -2.015940  -3.598320  2.760693
H    -1.874133  -2.291273  1.575660
H    -4.386113  -1.937830  1.708346
H    -4.500345  -3.183019  2.939158
H    -4.186774  -4.861708  1.355617
H    -4.665067  -4.640102  -2.064731
H    -5.210579  -5.489392  -0.662048
H    -3.431342  -1.817564  -0.332846
N    0.679976  -2.725510  4.398107
C    0.732177  -3.419625  3.114228
H    1.316555  -3.057924  5.123126
H    0.167310  -4.359147  3.154241
H    1.779946  -3.654454  2.895221
H    0.348649  -2.765648  2.327132
Pb    0.698875  1.093259  5.982096
