36
Energy: -611335.205921 eV PBE+vdW (tier 2 basis)
C    -1.222082  -2.588797  0.612179
C    -0.823479  -2.006793  1.926650
O    0.279400  -2.363430  2.462052
H    -0.688738  -3.532198  0.463053
H    -2.302337  -2.759516  0.537013
H    -0.931429  -1.900323  -0.196363
N    -1.607379  -1.126005  2.557424
C    -2.809093  -0.462028  2.047693
C    -2.454632  0.426876  0.821734
O    -1.302992  0.874142  0.659658
H    -1.295209  -0.867324  3.489847
H    -3.513286  -1.243862  1.724285
C    -3.510077  0.333629  3.180925
C    -3.037281  1.753429  3.549941
C    -1.673807  1.936387  4.232632
N    -0.576245  1.815087  3.265542
C    0.491600  1.035260  3.352336
N    1.185018  0.731511  2.128443
N    0.983693  0.384592  4.384815
H    -3.523614  -0.308744  4.076369
H    -4.564905  0.424443  2.888842
H    -3.785431  2.154378  4.248258
H    -3.089290  2.417446  2.671662
H    -1.523618  1.200454  5.036884
H    -1.626424  2.930403  4.698284
H    -0.780872  2.160299  2.325975
H    1.933106  1.402794  1.928012
H    0.512702  0.705377  1.338610
H    0.617131  0.593246  5.313724
N    -3.478276  0.687267  0.001180
C    -3.394934  1.548319  -1.178428
H    -4.375778  0.251677  0.195406
H    -2.371346  1.919514  -1.269220
H    -4.085917  2.393918  -1.077882
H    -3.657422  0.977943  -2.077303
Pb    2.149465  -1.349282  3.298322
