36
Energy: -611334.371444 eV PBE+vdW (tier 2 basis)
C    0.690991  -0.835818  0.491903
C    0.368770  0.022245  1.667328
O    1.282291  0.750019  2.189501
H    0.872458  -0.213157  -0.396450
H    -0.082390  -1.576837  0.272077
H    1.637821  -1.350389  0.706646
N    -0.870457  0.043133  2.191537
C    -2.073261  0.230334  1.350982
C    -2.295521  1.758123  1.258577
O    -1.167111  2.514653  1.209071
H    -0.916213  0.540713  3.082473
H    -1.804829  -0.120732  0.342424
C    -3.270014  -0.583431  1.864988
C    -4.361336  -0.802020  0.808517
C    -5.474693  -1.761643  1.248071
N    -6.354129  -1.255478  2.313914
C    -7.522683  -0.626961  2.132493
N    -8.373977  -0.492819  3.161733
N    -7.855066  -0.127174  0.935166
H    -3.689360  -0.080471  2.749469
H    -2.878930  -1.559814  2.190477
H    -3.914260  -1.240205  -0.097838
H    -4.776246  0.173692  0.517570
H    -5.050103  -2.704168  1.620120
H    -6.107188  -2.032689  0.391600
H    -6.091039  -1.452000  3.273470
H    -9.164960  0.137855  3.110796
H    -8.307072  -1.082862  3.982165
H    -7.169761  -0.017948  0.199328
N    -3.483305  2.205451  1.216947
C    -3.759183  3.620577  1.061398
H    -8.809591  0.140129  0.726908
H    -4.412689  3.757704  0.188741
H    -2.866582  4.248040  0.938847
H    -4.330092  3.966728  1.934634
Pb    0.789750  2.997691  1.930127
