36
Energy: -611332.930393 eV PBE+vdW (tier 2 basis)
C    0.686482  0.648039  0.505321
C    0.081544  -0.310273  1.471595
O    0.236899  -1.562623  1.292917
H    -0.072516  0.961285  -0.230977
H    1.479117  0.133652  -0.047961
H    1.083075  1.544331  0.991402
N    -0.637586  0.099147  2.546118
C    -1.702782  1.116669  2.526339
C    -2.786406  0.620630  1.529172
O    -2.790306  -0.581587  1.103406
H    -0.825068  -0.666882  3.193256
H    -2.168787  1.041947  3.521907
C    -1.247114  2.578441  2.332363
C    -0.136542  3.050454  3.282297
C    -0.556421  3.157029  4.765481
N    0.386929  3.882505  5.586746
C    0.471229  5.261142  5.607406
N    1.486905  5.789128  6.348909
N    -0.303427  6.098164  4.968337
H    -2.126628  3.222239  2.498199
H    -0.945354  2.747028  1.290526
H    0.180098  4.045961  2.940745
H    0.748736  2.402351  3.200530
H    -0.675379  2.161488  5.217273
H    -1.541764  3.646411  4.842543
H    1.131046  3.350762  6.024257
H    1.486952  6.799555  6.437033
H    1.960693  5.262084  7.071832
H    -1.061938  5.635626  4.463060
N    -3.739925  1.455231  1.156010
C    -4.860790  1.093933  0.280282
H    -3.700436  2.409830  1.501697
H    -5.514783  1.964060  0.184139
H    -5.425994  0.260468  0.712928
H    -4.492653  0.806620  -0.711650
Pb    -1.767326  -2.662646  0.951085
