36
Energy: -611335.248404 eV PBE+vdW (tier 2 basis)
C    0.681774  2.151685  1.189661
C    0.227110  1.510438  2.465083
O    1.065791  1.679173  3.478925
H    0.883761  3.216813  1.363678
H    -0.058283  2.048708  0.391711
H    1.628021  1.699483  0.863006
N    -0.916722  0.884635  2.516560
C    -1.352188  0.326969  3.795249
C    -0.534356  -0.930704  4.133470
O    0.339056  -0.870796  5.076785
H    -2.491332  0.939068  -0.569766
H    -1.099774  1.023833  4.619195
C    -2.877823  0.119239  3.864207
C    -3.673364  1.421650  4.047984
C    -3.802087  2.343141  2.826686
N    -4.596210  1.768683  1.734437
C    -4.134789  1.326726  0.554755
N    -5.008227  1.126333  -0.448753
N    -2.835803  1.071520  0.373438
H    -3.094870  -0.532467  4.723226
H    -3.235185  -0.419972  2.976628
H    -3.232808  2.017141  4.863027
H    -4.684250  1.160087  4.393773
H    -2.825386  2.631259  2.422269
H    -4.301942  3.272234  3.132345
H    -5.604714  1.775426  1.851981
H    -4.738328  0.632422  -1.290041
H    -5.933998  1.536701  -0.434489
H    -2.144421  1.019372  1.159609
N    -0.661695  -2.079504  3.491062
C    -1.534375  -2.428283  2.370372
H    -0.047875  -2.817204  3.838514
H    -1.031848  -3.200641  1.779561
H    -1.699083  -1.554610  1.734169
H    -2.492238  -2.827244  2.727031
Pb    1.717498  0.890440  5.379331
