36
Energy: -611335.364702 eV PBE+vdW (tier 2 basis)
C    0.642259  -0.280545  0.423189
C    0.556464  0.051239  1.871685
O    1.612050  0.105867  2.579638
H    -0.295922  -0.667455  0.013560
H    1.442899  -1.017438  0.282836
H    0.945280  0.614816  -0.142611
N    -0.635913  0.303534  2.466220
C    -1.663141  1.164800  1.896583
C    -1.067788  2.594140  1.777790
O    -0.032612  2.942492  2.427414
H    -0.558620  0.364764  3.490230
H    -1.898298  0.824596  0.877454
C    -2.974627  1.103049  2.730244
C    -2.824431  1.034162  4.257791
C    -2.184398  2.266326  4.931657
N    -1.597381  1.967904  6.239356
C    -0.535189  1.160807  6.433756
N    -0.341875  0.661602  7.669731
N    0.282495  0.848312  5.407369
H    -3.517756  0.204819  2.408551
H    -3.606248  1.956604  2.444186
H    -2.257879  0.131371  4.530349
H    -3.825097  0.872496  4.680742
H    -2.934692  3.048338  5.097633
H    -1.417407  2.726646  4.299342
H    -2.112296  2.267478  7.060434
H    0.535890  0.227235  7.927308
H    -1.054559  0.711138  8.389450
H    0.847305  0.029623  5.649902
N    -1.682808  3.435196  0.959849
C    -1.296391  4.825617  0.710779
H    -2.488469  3.084798  0.445677
H    -2.136622  5.488816  0.947800
H    -1.029135  4.950648  -0.345373
H    -0.439094  5.077321  1.338155
Pb    1.645817  2.065885  3.872801
