36
Energy: -611335.063979 eV PBE+vdW (tier 2 basis)
C    0.431746  -0.795277  0.466116
C    0.195756  -0.429572  1.895192
O    1.196074  -0.110724  2.620033
H    -0.485751  -1.062076  -0.068557
H    1.138608  -1.633952  0.418797
H    0.909589  0.053990  -0.041338
N    -1.051930  -0.428089  2.368422
C    -1.438738  0.017511  3.719708
C    -0.957914  -0.990438  4.787937
O    0.104839  -0.583479  5.498572
H    -1.787241  -0.669423  1.710926
H    -0.862940  0.938380  3.897073
C    -2.919156  0.458100  3.786255
C    -4.034024  -0.578120  3.970790
C    -4.212601  -1.570042  2.814191
N    -5.203837  -2.606028  3.097040
C    -4.922340  -3.757173  3.729561
N    -5.870943  -4.702232  3.828633
N    -3.703462  -3.964582  4.233475
H    -3.111330  1.078758  2.895510
H    -2.984868  1.152199  4.635370
H    -4.973484  -0.021794  4.102755
H    -3.868474  -1.129747  4.904737
H    -3.272315  -2.089587  2.578073
H    -4.538718  -1.053565  1.900365
H    -6.178453  -2.399761  2.905375
H    -5.757115  -5.500415  4.440738
H    -6.726940  -4.654116  3.289872
H    -3.450711  -4.891365  4.553553
N    -1.542986  -2.118946  4.956762
C    -0.998888  -3.027090  5.968847
H    -3.004933  -3.204052  4.364886
H    -1.813982  -3.629355  6.388633
H    -0.493183  -2.505992  6.790257
H    -0.280267  -3.720003  5.503929
Pb    1.957309  0.193953  4.739366
