36
Energy: -611334.806019 eV PBE+vdW (tier 2 basis)
C    1.539278  0.837137  1.480582
C    0.642707  0.187570  2.495387
O    1.266109  -0.750764  3.210320
H    1.035741  1.642881  0.940498
H    1.902691  0.083306  0.768934
H    2.425556  1.248646  1.981226
N    -0.600894  0.548879  2.580448
C    -1.537064  -0.064467  3.537806
C    -1.136072  0.298992  4.974799
O    -0.425525  -0.473468  5.712767
H    -1.290949  1.484220  0.758786
H    -2.490609  0.465605  3.389867
C    -1.851133  -1.570936  3.374462
C    -2.097365  -2.081538  1.943666
C    -3.330660  -1.542568  1.200425
N    -3.183804  -0.142964  0.772384
C    -2.508778  0.284391  -0.314399
N    -2.645066  -0.338126  -1.490475
N    -1.718164  1.352878  -0.167777
H    -2.725665  -1.794525  4.005208
H    -1.035670  -2.184500  3.784623
H    -2.222972  -3.172040  2.011647
H    -1.203682  -1.919591  1.322434
H    -4.235054  -1.600672  1.820528
H    -3.523060  -2.165750  0.319428
H    -3.213178  0.548200  1.513775
H    -2.033947  -0.126142  -2.270390
H    -3.455883  -0.916309  -1.679940
H    -1.396646  1.897264  -0.960348
N    -1.526826  1.455828  5.486397
C    -2.333772  2.501351  4.852611
H    -1.217295  1.623650  6.443926
H    -1.994085  2.678920  3.826812
H    -2.196507  3.424725  5.422772
H    -3.400809  2.243187  4.868248
Pb    1.399561  -1.653613  5.146398
