36
Energy: -611335.187277 eV PBE+vdW (tier 2 basis)
C    0.269642  0.680617  0.173074
C    -0.208540  -0.143681  1.317361
O    0.603989  -0.852240  1.989328
H    0.711261  1.615681  0.553409
H    -0.520251  0.922684  -0.544697
H    1.080001  0.139621  -0.330912
N    -1.518345  -0.149905  1.665683
C    -2.349852  1.043810  1.762235
C    -1.657789  2.032992  2.739046
O    -0.778155  1.639410  3.563525
H    -1.742997  -0.856383  2.363090
H    -2.426556  1.515025  0.771409
C    -3.775818  0.673347  2.241380
C    -3.926935  0.307316  3.739150
C    -4.233665  -1.156378  4.102889
N    -3.292964  -2.195706  3.643940
C    -1.994916  -2.327461  4.009952
N    -1.279567  -3.328800  3.447719
N    -1.358811  -1.459504  4.803662
H    -4.138532  -0.133674  1.588216
H    -4.420954  1.533757  2.023728
H    -4.779421  0.867614  4.146484
H    -3.062967  0.673751  4.310424
H    -5.199255  -1.439096  3.666514
H    -4.362612  -1.230357  5.194643
H    -3.731540  -3.019621  3.241618
H    -0.449355  -3.656977  3.926670
H    -1.698882  -3.974355  2.787823
H    -2.007127  -0.906928  5.366299
N    -2.044579  3.299634  2.682116
C    -1.554509  4.383151  3.536592
H    -2.739648  3.547393  1.981254
H    -1.126955  5.177158  2.913240
H    -0.788376  3.990629  4.208107
H    -2.383441  4.796332  4.123719
Pb    0.571791  -0.230874  4.259350
