36
Energy: -611333.13704 eV PBE+vdW (tier 2 basis)
C    0.850613  1.159428  3.345231
C    0.146545  -0.144736  3.469391
O    0.350188  -0.883877  4.490678
H    1.904268  0.993889  3.612518
H    0.796187  1.590985  2.341740
H    0.460232  1.875193  4.084334
N    -0.700145  -0.582344  2.511281
C    -1.742183  0.248813  1.913079
C    -2.901283  0.315295  2.947740
O    -2.825749  -0.269550  4.079646
H    -0.960076  -1.564504  2.613752
H    -1.343997  1.269929  1.816512
C    -2.154525  -0.239916  0.509764
C    -2.724190  -1.661081  0.438975
C    -3.151046  -2.092059  -0.984706
N    -2.070862  -2.162802  -1.945708
C    -1.709641  -1.141693  -2.802280
N    -0.630007  -1.388814  -3.602542
N    -2.252711  0.045316  -2.874719
H    -1.267287  -0.146108  -0.131443
H    -2.881021  0.478372  0.099324
H    -3.610420  -1.757878  1.088499
H    -1.981504  -2.393250  0.797061
H    -3.934966  -1.417983  -1.361819
H    -3.615562  -3.084608  -0.921932
H    -1.615024  -3.061717  -2.056610
H    -0.464653  -0.703190  -4.331537
H    -0.302666  -2.329900  -3.783137
H    -3.111462  0.115548  -2.325174
N    -3.977928  1.013615  2.634623
C    -5.135150  1.198556  3.517836
H    -4.001861  1.468635  1.725642
H    -4.837149  1.726755  4.431331
H    -5.567267  0.227450  3.785170
H    -5.881638  1.793169  2.985606
Pb    -1.563755  -1.426286  5.647771
