36
Energy: -611334.465105 eV PBE+vdW (tier 2 basis)
C    -1.436306  0.280282  -1.542023
C    -0.454657  0.232080  -0.423161
O    0.798649  0.329345  -0.673944
H    -1.457868  1.283198  -1.992809
H    -2.445954  -0.016842  -1.245803
H    -1.074258  -0.400241  -2.326060
N    -0.856869  0.082552  0.851081
C    -1.930212  0.908823  1.438513
C    -1.231589  2.160616  2.026065
O    -0.151566  2.604573  1.355656
H    -0.090715  -0.120790  1.495196
H    -2.544365  1.261677  0.595043
C    -2.816696  0.128522  2.415316
C    -4.200828  0.769528  2.579956
C    -5.045148  0.191264  3.716619
N    -4.412579  0.138041  5.055540
C    -4.065365  1.184834  5.829029
N    -4.185917  1.072441  7.162421
N    -3.592560  2.313067  5.290514
H    -2.305239  0.049114  3.386065
H    -2.926642  -0.895160  2.029920
H    -4.788637  0.623167  1.660633
H    -4.109558  1.856282  2.697612
H    -5.306502  -0.850725  3.494645
H    -5.987988  0.752825  3.788607
H    -4.551404  -0.733132  5.557161
H    -3.704439  1.705063  7.790605
H    -4.809515  0.392174  7.581016
H    -3.511384  3.134186  5.879210
N    -1.708234  2.720075  3.073060
C    -1.112459  3.948778  3.583187
H    -3.057566  2.323095  4.398431
H    -0.588287  3.732680  4.526371
H    -1.914438  4.663603  3.812693
H    -0.408101  4.422428  2.889827
Pb    1.673316  2.241345  0.259280
