36
Energy: -611334.240948 eV PBE+vdW (tier 2 basis)
C    -0.172677  -0.530082  0.061180
C    -0.135046  -0.435545  1.550337
O    0.867064  -0.941935  2.163782
H    -1.057513  -0.064070  -0.384304
H    -0.144589  -1.592322  -0.221358
H    0.732754  -0.068346  -0.355001
N    -1.152874  0.156814  2.178526
C    -1.460921  0.279944  3.626820
C    -0.516592  1.293228  4.295026
O    0.716959  0.987903  4.561629
H    -1.865336  0.537288  1.560434
H    -2.447462  0.756295  3.641636
C    -1.583997  -1.083021  4.340585
C    -2.154927  -1.040791  5.771761
C    -3.687081  -0.891502  5.916759
N    -4.260277  0.325379  5.336789
C    -3.786416  1.587542  5.601484
N    -3.230037  1.777124  6.840476
N    -3.704090  2.573719  4.736637
H    -0.603302  -1.587966  4.380471
H    -2.201481  -1.729247  3.698164
H    -1.650879  -0.256886  6.356944
H    -1.893087  -1.990517  6.259756
H    -3.940740  -0.969806  6.985307
H    -4.198170  -1.734805  5.435157
H    -4.747769  0.222174  4.454788
H    -3.134347  2.754539  7.098396
H    -3.553354  1.187516  7.600526
H    -4.187392  2.369731  3.858438
N    -0.991979  2.470918  4.588905
C    -0.202528  3.528104  5.216884
H    -2.072954  2.629793  4.526700
H    -0.842352  4.408432  5.320999
H    0.666084  3.781940  4.597696
H    0.151123  3.210600  6.206836
Pb    2.097466  -0.625082  3.993643
