36
Energy: -611335.125486 eV PBE+vdW (tier 2 basis)
C    -0.059259  -0.166634  0.023899
C    -0.059458  -0.278902  1.511194
O    1.038735  -0.508477  2.121137
H    0.802289  -0.711196  -0.374207
H    -0.980162  -0.548492  -0.431216
H    0.046432  0.891733  -0.260518
N    -1.189328  -0.152981  2.214637
C    -2.505158  0.281076  1.738621
C    -2.428953  1.744081  1.229142
O    -1.517388  2.505358  1.612959
H    -1.095066  -0.338102  3.209842
H    -2.790918  -0.374753  0.903722
C    -3.571683  0.084493  2.848458
C    -3.771991  1.156683  3.937517
C    -2.682759  1.357082  5.002146
N    -1.541322  2.107156  4.464247
C    -0.262576  1.758100  4.490666
N    0.609952  2.383192  3.531971
N    0.346310  0.829879  5.196610
H    -3.387521  -0.898695  3.310599
H    -4.537362  -0.026479  2.338649
H    -4.683097  0.874134  4.483689
H    -4.009607  2.131625  3.481119
H    -2.322789  0.394389  5.394631
H    -3.099443  1.911683  5.854127
H    -1.774612  2.837247  3.789757
H    1.026460  3.248930  3.888968
H    0.087227  2.574781  2.655045
H    -0.161990  0.384123  5.960616
N    -3.381931  2.161414  0.385104
C    -4.524172  1.436343  -0.171524
H    -3.290503  3.142859  0.125217
H    -5.404585  1.505340  0.481221
H    -4.282778  0.381846  -0.344121
H    -4.777237  1.880319  -1.139328
Pb    2.228859  0.410839  3.842061
