36
Energy: -611334.051636 eV PBE+vdW (tier 2 basis)
C    -0.566223  0.390667  -0.035714
C    -0.493620  -0.114180  1.366222
O    0.347845  -1.053424  1.626655
H    0.414205  0.793093  -0.325859
H    -1.327143  1.166386  -0.165974
H    -0.774251  -0.451634  -0.709733
N    -1.301195  0.410360  2.276283
C    -1.496586  -0.006443  3.681210
C    -0.270512  0.352357  4.523317
O    0.750100  -0.434229  4.605313
H    -2.026900  1.079028  1.939455
H    -2.298796  0.658153  4.023841
C    -2.005184  -1.463658  3.868973
C    -3.364318  -1.528132  4.599330
C    -4.619466  -1.345311  3.711643
N    -4.502434  -0.334161  2.664378
C    -4.319982  1.004752  2.911291
N    -3.898431  1.741934  1.775417
N    -4.284953  1.602982  4.054297
H    -1.284423  -2.043807  4.468277
H    -2.079833  -1.951068  2.886691
H    -3.355661  -0.800113  5.423693
H    -3.465340  -2.508993  5.083268
H    -5.487732  -1.156122  4.363358
H    -4.828641  -2.288064  3.191609
H    -4.806001  -0.613856  1.738087
H    -4.069442  2.737066  1.924274
H    -4.323678  1.448251  0.895949
H    -4.646493  1.016527  4.809853
N    -0.233729  1.474375  5.212995
C    -1.209861  2.563559  5.336103
H    0.636598  1.604987  5.735205
H    -0.792700  3.467336  4.873758
H    -1.374359  2.759939  6.402114
H    -2.170545  2.321293  4.865007
Pb    1.481489  -2.034907  3.248984
