36
Energy: -611333.621964 eV PBE+vdW (tier 2 basis)
C    0.036688  -2.445123  0.347953
C    -0.261534  -1.390544  1.359434
O    0.555679  -0.422530  1.507429
H    0.125490  -1.967925  -0.638565
H    -0.725920  -3.229268  0.301076
H    1.012994  -2.896669  0.569709
N    -1.392030  -1.476025  2.070368
C    -1.939825  -0.458214  2.981868
C    -1.234339  -0.525474  4.354823
O    -0.131396  0.126105  4.493741
H    -1.993072  -2.275669  1.881176
H    -1.638646  0.523363  2.580951
C    -3.468826  -0.521312  3.002609
C    -4.166921  0.198402  1.842636
C    -5.705942  0.019325  1.908077
N    -6.282478  0.321530  3.213803
C    -6.241743  -0.544598  4.299832
N    -6.348210  -1.893205  3.990563
N    -6.045297  -0.208717  5.536386
H    -3.808317  -0.067331  3.942409
H    -3.802445  -1.569060  3.046512
H    -3.821602  -0.173737  0.864928
H    -3.922702  1.272257  1.877000
H    -5.969031  -1.007950  1.628946
H    -6.177398  0.672214  1.162648
H    -6.302888  1.304001  3.471028
H    -6.513053  -2.446629  4.828123
H    -7.004382  -2.126162  3.249254
H    -5.951258  0.802689  5.664652
N    -1.686939  -1.179008  5.408536
C    -2.883769  -2.006416  5.623470
H    -1.085687  -1.063927  6.227019
H    -2.688779  -2.628994  6.501455
H    -3.068676  -2.663419  4.769658
H    -3.772682  -1.384914  5.817652
Pb    1.412286  0.946640  3.078858
