36
Energy: -611334.872299 eV PBE+vdW (tier 2 basis)
C    -0.219072  -0.147496  0.446830
C    -0.397168  -0.320154  1.928297
O    0.624657  -0.976298  2.495208
H    0.744254  0.338740  0.244787
H    -1.016090  0.457138  0.007171
H    -0.182316  -1.130588  -0.042412
N    -1.467110  0.125592  2.505972
C    -1.704715  -0.025973  3.950582
C    -0.725036  0.854782  4.741105
O    0.409649  0.436327  5.164700
H    -3.184310  0.237359  0.927858
H    -2.687244  0.440490  4.133153
C    -1.795146  -1.481466  4.498574
C    -3.223099  -2.033481  4.683269
C    -3.954048  -2.534908  3.433907
N    -4.187983  -1.447404  2.478419
C    -4.157322  -1.522383  1.141727
N    -4.436182  -2.672306  0.514188
N    -3.819870  -0.416074  0.465138
H    -1.316491  -1.512408  5.488224
H    -1.222119  -2.155467  3.846844
H    -3.849333  -1.288441  5.201820
H    -3.174091  -2.889812  5.370308
H    -4.909080  -2.988579  3.738812
H    -3.361782  -3.309894  2.926027
H    -4.263981  -0.508106  2.852021
H    -4.255396  -2.781780  -0.476844
H    -4.994756  -3.389087  0.963465
H    -4.025905  -0.304832  -0.520484
N    -1.090686  2.101967  4.986027
C    -0.276045  3.105844  5.671962
H    -1.999585  2.395287  4.637902
H    -0.937778  3.768264  6.238319
H    0.291154  3.701356  4.944555
H    0.415984  2.608062  6.356033
Pb    1.844319  -1.023998  4.244278
