36
Energy: -611334.974978 eV PBE+vdW (tier 2 basis)
C    -0.232210  -3.324781  0.111927
C    -0.382357  -1.843436  0.198886
O    0.443893  -1.110363  -0.464834
H    0.722321  -3.627574  0.564568
H    -0.178430  -3.607573  -0.947693
H    -1.049577  -3.871007  0.590509
N    -1.340125  -1.271020  0.909557
C    -2.305970  -1.774885  1.884501
C    -3.159278  -0.508450  2.192151
O    -2.665162  0.617829  1.980682
H    -1.412116  -0.242453  0.897158
H    -2.947946  -2.537558  1.421006
C    -1.660468  -2.375366  3.176867
C    -0.278904  -1.840408  3.579430
C    -0.193850  -0.349587  3.992903
N    1.059391  0.259662  3.517463
C    1.192154  0.923882  2.368702
N    2.492168  1.056582  1.794273
N    0.252166  1.428430  1.600687
H    -1.559541  -3.459880  3.036335
H    -2.378067  -2.252252  4.000726
H    0.426810  -2.007240  2.753306
H    0.088926  -2.466676  4.403173
H    -0.224026  -0.234376  5.082435
H    -1.026905  0.239010  3.595779
H    1.901814  0.072124  4.056041
H    2.852399  2.013470  1.842990
H    3.198282  0.403046  2.136596
H    -0.713105  1.434000  1.953218
N    -4.375822  -0.719452  2.694128
C    -5.301205  0.344006  3.086266
H    -4.701371  -1.678194  2.781469
H    -4.828327  1.309210  2.890095
H    -5.541027  0.260421  4.152996
H    -6.226030  0.266002  2.502769
Pb    1.120736  1.062930  -0.542653
