36
Energy: -611334.914262 eV PBE+vdW (tier 2 basis)
C    -0.007481  -0.250617  -0.095260
C    -0.420812  -0.726268  1.256515
O    0.059807  -1.830555  1.692132
H    -0.170664  -1.043387  -0.835994
H    1.076020  -0.062814  -0.073237
H    -0.515303  0.664639  -0.410551
N    -1.243033  -0.024642  2.031424
C    -2.075382  1.161658  1.816542
C    -2.699571  1.410381  3.214710
O    -2.858268  0.444144  3.994098
H    -1.396389  -0.385420  2.977266
H    -1.439618  2.017492  1.547753
C    -3.193156  1.008166  0.731805
C    -3.692426  -0.404471  0.397014
C    -4.368537  -1.234911  1.523208
N    -3.768733  -2.577606  1.600405
C    -2.918711  -3.062843  2.502764
N    -2.608230  -2.355884  3.696321
N    -2.209659  -4.176460  2.405290
H    -2.822661  1.445149  -0.205144
H    -4.035838  1.646056  1.034628
H    -2.859513  -0.993419  -0.013065
H    -4.399816  -0.296715  -0.435792
H    -5.439227  -1.363322  1.323993
H    -4.289406  -0.758974  2.505130
H    -3.863786  -3.138146  0.754560
H    -2.965868  -2.853102  4.516534
H    -2.867896  -1.348744  3.758392
H    -2.390845  -4.788172  1.607949
N    -3.063708  2.660440  3.490855
C    -3.732407  3.075423  4.724672
H    -2.846366  3.384835  2.811726
H    -3.105729  3.796127  5.263068
H    -3.893599  2.194737  5.350549
H    -4.695746  3.542500  4.488384
Pb    -0.218851  -3.405028  3.354220
