36
Energy: -611333.558834 eV PBE+vdW (tier 2 basis)
C    -4.027596  2.070217  -0.203972
C    -3.486742  1.254699  0.924961
O    -3.213947  1.833255  2.024785
H    -4.958815  2.557589  0.115147
H    -4.214011  1.491709  -1.114595
H    -3.311909  2.873780  -0.428157
N    -3.297351  -0.056609  0.721735
C    -2.610158  -1.065954  1.558385
C    -3.451787  -1.482461  2.767339
O    -3.714957  -0.674138  3.721358
H    -3.555243  -0.381124  -0.206133
H    -2.532446  -1.936704  0.897002
C    -1.168626  -0.699448  1.975753
C    -0.257334  -0.389340  0.785274
C    1.202407  -0.107328  1.214070
N    2.053871  0.259536  0.102459
C    2.490575  -0.615139  -0.885394
N    2.774581  -1.901514  -0.465460
N    2.562503  -0.134523  -2.084987
H    -0.777417  -1.562754  2.537467
H    -1.166633  0.146263  2.680924
H    -0.631212  0.485296  0.232133
H    -0.255543  -1.234932  0.079893
H    1.613733  -0.987096  1.727368
H    1.232029  0.717471  1.941197
H    1.922832  1.190368  -0.287406
H    3.183414  -2.503568  -1.172871
H    3.221671  -2.006581  0.441725
H    2.959860  -0.791468  -2.762614
N    -3.883178  -2.730557  2.867471
C    -3.719481  -3.846454  1.926669
H    -4.391264  -2.928262  3.730700
H    -4.125851  -3.596894  0.939456
H    -4.285007  -4.696350  2.318243
H    -2.667409  -4.145113  1.842226
Pb    -3.423659  1.505465  4.244356
