36
Energy: -611335.594836 eV PBE+vdW (tier 2 basis)
C    0.503952  -0.255662  0.382135
C    0.207660  -0.251733  1.849047
O    1.096028  -0.632236  2.669748
H    -0.322291  0.108806  -0.237056
H    0.747258  -1.284706  0.081440
H    1.398938  0.349886  0.189027
N    -1.021789  0.142417  2.233505
C    -1.656287  0.021944  3.563509
C    -1.145216  1.096061  4.534428
O    0.061310  1.153524  4.919299
H    -1.642405  0.420136  1.478675
H    -2.716402  0.227097  3.379390
C    -1.517505  -1.414853  4.113143
C    -1.829076  -1.623672  5.602355
C    -1.001139  -2.791108  6.173983
N    0.436980  -2.552918  6.015001
C    1.221710  -1.768265  6.785438
N    0.964250  -1.687892  8.105503
N    2.226813  -1.102161  6.199592
H    -0.485531  -1.720197  3.915563
H    -2.154610  -2.060661  3.494148
H    -2.895837  -1.830649  5.762812
H    -1.592678  -0.726277  6.194316
H    -1.232366  -3.732797  5.660041
H    -1.246796  -2.950275  7.230218
H    0.851791  -2.785129  5.119278
H    1.480788  -1.039856  8.687583
H    0.463528  -2.428119  8.585266
H    2.973847  -0.867733  6.858636
N    -2.012674  1.979676  5.019134
C    -3.451341  2.112834  4.756871
H    -1.600308  2.650898  5.666988
H    -3.647939  2.325037  3.699026
H    -3.818630  2.959930  5.342685
H    -4.001152  1.218099  5.072597
Pb    2.215120  0.414819  4.426881
