36
Energy: -611333.396466 eV PBE+vdW (tier 2 basis)
C    -0.485110  -0.271201  -0.023996
C    -0.362165  -0.195807  1.460428
O    0.791990  -0.092061  1.987301
H    -0.041567  0.635221  -0.459969
H    -1.520424  -0.366037  -0.367536
H    0.102797  -1.121613  -0.394596
N    -1.476936  -0.223000  2.204860
C    -1.519853  -0.004086  3.652935
C    -0.999123  -1.250275  4.401737
O    0.205860  -1.229640  4.839352
H    -2.367654  -0.265340  1.713697
H    -0.751872  0.751870  3.872201
C    -2.881000  0.579074  4.150175
C    -4.059650  0.568180  3.170716
C    -5.343624  1.156359  3.811293
N    -6.472618  1.129545  2.907685
C    -7.145031  -0.028972  2.533587
N    -7.304983  -0.970018  3.544848
N    -7.516939  -0.113735  1.300044
H    -2.684997  1.618621  4.444226
H    -3.161249  0.064448  5.079924
H    -4.305781  -0.448321  2.825214
H    -3.829692  1.174330  2.279653
H    -5.169908  2.198634  4.112603
H    -5.584403  0.601361  4.727747
H    -6.459596  1.797421  2.139628
H    -7.551589  -0.599118  4.460543
H    -7.898649  -1.753383  3.288363
H    -8.091533  -0.938571  1.104742
N    -1.721996  -2.335411  4.622699
C    -3.096556  -2.650817  4.228932
H    -1.225309  -3.055413  5.149733
H    -3.211368  -3.738039  4.263548
H    -3.297404  -2.320386  3.205799
H    -3.824507  -2.200905  4.915165
Pb    2.050371  -0.330652  3.862020
