36
Energy: -611333.650839 eV PBE+vdW (tier 2 basis)
C    -0.909109  0.512954  -0.848074
C    -0.418138  0.286653  0.530497
O    0.847275  0.248472  0.772387
H    -0.488940  1.438170  -1.264902
H    -2.001539  0.501691  -0.905352
H    -0.509004  -0.307629  -1.466468
N    -1.267787  0.105367  1.556053
C    -2.447671  0.934560  1.802942
C    -1.931574  2.309138  2.224583
O    -0.680271  2.501036  2.515588
H    -0.846217  -0.300479  2.395657
H    -3.049462  1.005179  0.849573
C    -3.342067  0.231575  2.845549
C    -4.025356  -1.005731  2.232720
C    -5.509391  -0.827945  1.880059
N    -5.895365  0.434496  1.224399
C    -5.570819  0.744554  -0.087858
N    -6.580929  1.340268  -0.796416
N    -4.349790  0.564543  -0.514957
H    -4.089263  0.939509  3.224769
H    -2.722121  -0.045356  3.713774
H    -3.970546  -1.844288  2.939807
H    -3.474559  -1.325978  1.338548
H    -6.098295  -0.856704  2.805933
H    -5.822985  -1.691502  1.272943
H    -6.827005  0.738180  1.490065
H    -6.390583  1.652657  -1.741434
H    -7.545527  1.080040  -0.619782
H    -4.289285  0.754271  -1.518265
N    -2.733072  3.353050  2.301130
C    -4.165523  3.443080  2.014270
H    -2.277176  4.213843  2.607884
H    -4.542416  2.505030  1.599734
H    -4.330655  4.254096  1.295444
H    -4.707915  3.673698  2.939933
Pb    1.428430  1.729838  2.380667
