36
Energy: -611334.441246 eV PBE+vdW (tier 2 basis)
C    -0.489276  -0.259696  0.346243
C    -0.306441  -0.081581  1.813366
O    0.863847  0.121319  2.290828
H    -0.491417  0.725406  -0.146957
H    -1.414521  -0.786448  0.095381
H    0.375164  -0.808345  -0.047550
N    -1.360905  -0.100135  2.648354
C    -2.598635  0.652021  2.377250
C    -2.229225  2.145494  2.236317
O    -1.099530  2.566203  2.825937
H    -1.101341  -0.113974  3.636528
H    -3.026803  0.312037  1.426706
C    -3.586988  0.382156  3.532100
C    -4.940305  1.099045  3.444533
C    -6.039800  0.422405  2.623862
N    -5.762289  0.103841  1.197759
C    -5.899594  0.985205  0.177440
N    -6.464576  0.567204  -0.967652
N    -5.457447  2.234453  0.311836
H    -3.096699  0.690602  4.469787
H    -3.729820  -0.707312  3.600726
H    -4.801549  2.138789  3.121873
H    -5.350841  1.168028  4.462415
H    -6.945492  1.043685  2.671992
H    -6.291077  -0.544144  3.078538
H    -5.951619  -0.860269  0.942044
H    -6.388433  1.110876  -1.819880
H    -7.092576  -0.228350  -0.986295
H    -5.718254  2.916511  -0.392736
N    -3.033040  2.914091  1.601061
C    -2.737513  4.340993  1.492749
H    -4.597806  2.451021  0.889143
H    -3.633836  4.869466  1.150714
H    -1.941220  4.519037  0.754168
H    -2.415100  4.773757  2.449242
Pb    0.979260  2.190464  3.305081
