36
Energy: -611333.904038 eV PBE+vdW (tier 2 basis)
C    1.321441  0.271975  0.825679
C    0.347931  1.023910  1.666954
O    0.592440  2.277649  1.933720
H    2.020228  -0.286368  1.468287
H    1.904492  0.977620  0.225833
H    0.789844  -0.445709  0.175108
N    -0.724268  0.388562  2.100653
C    -1.924807  0.842925  2.805643
C    -1.786132  2.065025  3.690321
O    -0.763789  2.257276  4.451825
H    -0.835546  -0.635264  1.779958
H    -2.680970  1.061939  2.034945
C    -2.489318  -0.293881  3.718993
C    -3.154920  -1.488917  3.005959
C    -2.228966  -2.621541  2.548569
N    -1.320956  -2.229691  1.458373
C    -1.760569  -2.093209  0.094618
N    -3.044603  -2.495719  -0.168541
N    -0.919245  -1.518205  -0.685431
H    -3.246510  0.167284  4.369110
H    -1.681656  -0.625312  4.388988
H    -3.765351  -1.136207  2.160444
H    -3.865281  -1.929743  3.719779
H    -2.838756  -3.504541  2.296254
H    -1.591730  -2.938573  3.385663
H    -0.447037  -2.753944  1.464676
H    -3.433988  -3.282764  0.340613
H    -3.346106  -2.446773  -1.136269
H    -1.213116  -1.514030  -1.664916
N    -2.808273  2.902563  3.780115
C    -4.098641  2.859526  3.080196
H    -2.705631  3.617100  4.501040
H    -3.953533  2.790957  1.996077
H    -4.628426  3.790959  3.297502
H    -4.711752  2.019482  3.430079
Pb    1.166143  3.200171  3.823242
