36
Energy: -611334.015123 eV PBE+vdW (tier 2 basis)
C    0.531498  -0.055419  0.237185
C    0.273764  -0.169657  1.700809
O    1.243457  -0.448450  2.483862
H    1.271101  0.740655  0.070564
H    -0.370570  0.164992  -0.342739
H    0.982501  -0.988585  -0.126087
N    -0.962234  0.036118  2.168240
C    -1.316451  0.081084  3.592173
C    -1.259846  -1.334868  4.202805
O    -0.263273  -1.625246  4.970874
H    -1.687502  0.286673  1.498867
H    -0.507927  0.628759  4.106163
C    -2.621653  0.845372  3.823525
C    -2.967611  0.984142  5.323667
C    -4.466088  0.806902  5.630238
N    -5.350960  1.637716  4.833954
C    -6.054085  1.147098  3.758260
N    -7.095273  1.930747  3.340051
N    -5.657788  0.034594  3.194231
H    -3.462601  0.375289  3.288002
H    -2.492640  1.840464  3.374720
H    -2.620392  1.959754  5.691475
H    -2.434324  0.230950  5.928188
H    -4.637227  1.027541  6.692716
H    -4.761634  -0.236895  5.462360
H    -5.628813  2.535372  5.211580
H    -7.650552  1.613702  2.555617
H    -7.579698  2.535103  3.994193
H    -6.313562  -0.263028  2.468992
N    -2.166629  -2.262753  3.977302
C    -3.342871  -2.248062  3.096143
H    -1.977575  -3.140299  4.464516
H    -3.768882  -3.254692  3.110959
H    -3.040670  -2.019145  2.066727
H    -4.113518  -1.524748  3.415322
Pb    1.877502  -1.093648  4.556086
