36
Energy: -611333.35023 eV PBE+vdW (tier 2 basis)
C    -0.622105  -0.958251  -0.105094
C    -0.994916  -1.241791  1.305499
O    -0.325006  -2.096118  1.983884
H    0.325142  -0.398880  -0.143920
H    -1.396174  -0.418730  -0.657994
H    -0.424768  -1.921047  -0.598169
N    -2.035594  -0.622126  1.898764
C    -2.273123  0.820118  1.832120
C    -1.151503  1.496893  2.654662
O    -0.378852  0.798705  3.419760
H    -2.320230  -1.043685  2.784780
H    -2.178491  1.146823  0.786208
C    -3.686948  1.178858  2.333185
C    -3.989574  0.806160  3.791265
C    -5.184457  1.604701  4.364608
N    -4.896338  3.026046  4.444811
C    -5.263599  3.978834  3.507739
N    -6.541046  3.868074  3.021907
N    -4.362260  4.857458  3.170116
H    -4.405732  0.700024  1.653546
H    -3.813358  2.260767  2.201370
H    -3.117053  1.008842  4.437079
H    -4.219464  -0.267198  3.893857
H    -5.427204  1.216153  5.363505
H    -6.072917  1.457346  3.738003
H    -4.035740  3.288896  4.917338
H    -7.270552  3.542786  3.649131
H    -6.846007  4.566856  2.353878
H    -4.751201  5.619714  2.607469
N    -0.974512  2.801974  2.601917
C    -1.695581  3.808178  1.821064
H    -0.233301  3.150232  3.212472
H    -2.566645  4.209796  2.392440
H    -2.041395  3.386526  0.871279
H    -1.000145  4.625803  1.606659
Pb    0.544022  -1.214964  3.913063
