36
Energy: -611334.076711 eV PBE+vdW (tier 2 basis)
C    -1.992855  1.082489  0.395331
C    -1.463517  0.790982  1.756797
O    -0.324362  1.291595  2.086998
H    -2.977097  0.636763  0.225802
H    -1.287915  0.705364  -0.358328
H    -2.054174  2.170659  0.262317
N    -2.176915  0.031794  2.581681
C    -1.831098  -0.134862  3.989986
C    -0.532441  -0.949746  4.148065
O    0.528533  -0.335170  4.551235
H    -3.207012  -0.044313  2.350194
H    -1.570687  0.866057  4.376276
C    -3.003789  -0.642175  4.883004
C    -4.248659  -1.268183  4.225902
C    -5.308226  -0.279477  3.729306
N    -4.944272  0.446150  2.483073
C    -4.758987  1.852451  2.573690
N    -5.379291  2.561094  1.574243
N    -3.960384  2.288474  3.488300
H    -3.332974  0.226260  5.466349
H    -2.584923  -1.351612  5.610173
H    -4.731219  -1.883375  4.999367
H    -3.996225  -1.972189  3.419291
H    -5.522065  0.461675  4.509686
H    -6.234959  -0.834148  3.533815
H    -5.537565  0.180583  1.699909
H    -6.277291  2.244539  1.220882
H    -5.278174  3.570522  1.585863
H    -3.971671  3.309354  3.544838
N    -0.438748  -2.244585  3.919075
C    -1.464056  -3.192684  3.480507
H    0.488536  -2.630991  4.103940
H    -2.069629  -3.536144  4.328282
H    -0.956155  -4.055244  3.039374
H    -2.105534  -2.739011  2.719877
Pb    1.161910  1.630987  3.699891
