36
Energy: -611334.8488 eV PBE+vdW (tier 2 basis)
C    0.448251  -0.775422  -0.033736
C    0.117402  -0.625393  1.416906
O    0.903812  -1.156303  2.272334
H    0.490714  -1.847670  -0.271370
H    1.450919  -0.369301  -0.221243
H    -0.271674  -0.289474  -0.700168
N    -0.990666  0.040531  1.746244
C    -1.668064  0.242485  3.056211
C    -0.922010  1.215756  3.976053
O    0.220466  0.815028  4.540803
H    -1.490468  0.433544  0.953510
H    -2.568945  0.792925  2.768947
C    -2.072421  -1.094664  3.711193
C    -2.871634  -0.987395  5.023793
C    -4.350107  -0.569952  4.919971
N    -4.552423  0.846695  4.596172
C    -4.700711  1.871734  5.459202
N    -5.374597  1.711110  6.605574
N    -4.159945  3.043800  5.116250
H    -1.172933  -1.694700  3.911628
H    -2.642323  -1.675108  2.969723
H    -2.358240  -0.325464  5.738286
H    -2.870138  -1.986792  5.482756
H    -4.842609  -0.783994  5.875347
H    -4.875937  -1.165661  4.161134
H    -4.302756  1.144543  3.660362
H    -6.059401  0.971194  6.708661
H    -5.357536  2.427162  7.322215
H    -4.442397  3.909608  5.561395
N    -1.454765  2.363290  4.193468
C    -0.722063  3.300900  5.046055
H    -3.301650  3.012593  4.539836
H    -1.275862  4.243535  5.108903
H    0.274729  3.520400  4.637769
H    -0.579764  2.903525  6.062395
Pb    1.752599  -0.659772  4.289463
