36
Energy: -611334.778258 eV PBE+vdW (tier 2 basis)
C    2.609668  0.927572  3.290241
C    1.368287  0.129954  3.555319
O    1.627805  -1.103898  4.042781
H    3.260107  0.380243  2.594845
H    2.361206  1.906124  2.872874
H    3.178074  1.057013  4.221413
N    0.217657  0.648904  3.295199
C    -1.054121  -0.058205  3.441359
C    -1.269769  -0.442676  4.907531
O    -1.068350  -1.632812  5.350065
H    -4.528607  1.591839  -1.643917
H    -1.825648  0.697471  3.219131
C    -1.256892  -1.210094  2.440749
C    -2.725031  -1.624971  2.235587
C    -3.546195  -0.726568  1.302995
N    -3.127196  -0.893052  -0.097032
C    -3.485359  -0.096181  -1.115329
N    -2.945280  -0.280056  -2.328678
N    -4.357703  0.901173  -0.922336
H    -0.675265  -2.092601  2.735904
H    -0.811546  -0.872100  1.493521
H    -3.253182  -1.664065  3.199695
H    -2.769676  -2.656844  1.853185
H    -4.612439  -0.984207  1.407106
H    -3.423995  0.334038  1.571086
H    -2.687779  -1.775338  -0.341813
H    -3.338691  0.157903  -3.153280
H    -2.141146  -0.879846  -2.465678
H    -4.970609  0.917167  -0.117162
N    -1.645481  0.494766  5.765713
C    -1.886290  1.914376  5.493500
H    -1.753650  0.177832  6.728788
H    -2.933639  2.089612  5.214636
H    -1.673164  2.476615  6.407985
H    -1.212314  2.267123  4.706456
Pb    0.934389  -2.680095  5.272209
