36
Energy: -611334.963594 eV PBE+vdW (tier 2 basis)
C    0.245713  0.053913  0.253514
C    0.109301  0.490627  1.676004
O    1.043410  1.180792  2.259808
H    0.387325  0.931582  -0.392335
H    -0.629029  -0.501242  -0.099222
H    1.129310  -0.592402  0.148432
N    -0.973773  0.190980  2.346955
C    -1.267599  0.425978  3.760043
C    -2.316440  -0.698566  4.052829
O    -2.849473  -1.248596  3.082700
H    -1.722377  -0.436067  1.966040
H    -0.352138  0.276525  4.350568
C    -1.898450  1.813893  4.024230
C    -1.088942  3.042115  3.587221
C    0.207237  3.270583  4.370624
N    0.905231  4.464323  3.882758
C    2.205693  4.616246  3.599445
N    2.703743  5.868857  3.612867
N    3.028057  3.576397  3.302730
H    -2.122107  1.877153  5.099911
H    -2.871429  1.843467  3.513439
H    -1.741302  3.919853  3.715518
H    -0.862922  2.993142  2.512821
H    0.890022  2.422159  4.283183
H    -0.009846  3.414096  5.441137
H    0.365040  5.325536  3.923020
H    3.583738  6.090025  3.162483
H    2.204886  6.640827  4.041945
H    3.996414  3.875085  3.448854
N    -2.585289  -0.962063  5.337599
C    -3.580162  -1.946001  5.766254
H    -2.068858  -0.467912  6.057576
H    -4.363501  -1.458877  6.359087
H    -3.103069  -2.728399  6.368132
H    -4.026197  -2.395033  4.875191
Pb    3.184195  1.679883  2.061332
