36
Energy: -611335.267471 eV PBE+vdW (tier 2 basis)
C    -1.642219  -0.945247  -0.737060
C    -0.982060  -0.753658  0.585488
O    0.225958  -1.087853  0.755270
H    -1.295416  -0.175827  -1.443860
H    -2.735002  -0.929810  -0.683611
H    -1.308721  -1.907614  -1.146880
N    -1.669775  -0.232996  1.637512
C    -2.497168  0.961732  1.553523
C    -1.547810  2.179384  1.431064
O    -0.304235  2.077381  1.702132
H    -1.155284  -0.302968  2.515442
H    -3.066197  0.912087  0.614563
C    -3.533230  1.042948  2.714121
C    -3.153095  0.515075  4.109516
C    -2.138793  1.315046  4.939917
N    -0.749698  1.179921  4.493440
C    0.102891  0.160181  4.737897
N    -0.168223  -0.698700  5.738606
N    1.174936  0.023646  3.944942
H    -4.403260  0.461189  2.382017
H    -3.884276  2.080431  2.802296
H    -2.840915  -0.539856  4.056481
H    -4.090507  0.498690  4.684757
H    -2.221895  1.025807  5.996418
H    -2.370501  2.388333  4.919960
H    -0.393784  1.886291  3.859050
H    0.427854  -1.501612  5.900331
H    -0.804760  -0.452603  6.487951
H    1.874709  -0.608265  4.337989
N    -2.022404  3.351715  1.030509
C    -3.384490  3.724400  0.639987
H    -1.321363  4.092437  0.984996
H    -3.962543  2.848424  0.332580
H    -3.323701  4.412621  -0.209728
H    -3.902953  4.229894  1.464849
Pb    1.595736  0.593256  1.725902
