36
Energy: -611334.839186 eV PBE+vdW (tier 2 basis)
C    -0.867563  3.610574  1.535010
C    -0.736660  2.259041  1.133006
O    0.444035  1.763167  0.919820
H    -1.825311  4.035899  1.831211
H    -2.027355  1.952518  -2.748119
H    -0.174121  4.310202  1.064217
N    -1.776160  1.326760  1.160232
C    -2.871093  1.456131  2.126290
C    -2.299586  1.626034  3.558490
O    -1.075897  1.395381  3.796036
H    -1.350826  0.396359  1.200191
H    -3.449760  2.359950  1.879174
C    -3.801086  0.227408  2.029609
C    -4.727239  0.167356  0.795620
C    -4.212207  -0.521132  -0.474168
N    -3.255074  0.290633  -1.233589
C    -3.002681  0.152025  -2.540806
N    -3.522906  -0.863594  -3.241615
N    -2.224278  1.051953  -3.164739
H    -4.440800  0.214009  2.919839
H    -3.189880  -0.686966  2.106048
H    -5.099864  1.172161  0.542850
H    -5.614747  -0.408452  1.091964
H    -5.078435  -0.712192  -1.123137
H    -3.766848  -1.497226  -0.215380
H    -2.637163  0.895231  -0.682609
H    -3.490185  -0.873440  -4.254265
H    -3.922748  -1.674105  -2.786551
H    -1.870608  0.885513  -4.098982
N    -3.100388  2.009335  4.550339
C    -4.527069  2.330304  4.530807
H    -2.639456  2.046382  5.459820
H    -4.708371  3.145532  5.239206
H    -5.132817  1.465733  4.833401
H    -4.841582  2.666034  3.538112
Pb    0.874002  2.596315  3.068703
