36
Energy: -611333.710807 eV PBE+vdW (tier 2 basis)
C    0.180961  -1.547857  0.167669
C    -0.067005  -0.834425  1.452705
O    0.925357  -0.467857  2.164726
H    0.780553  -0.898135  -0.485741
H    -0.739387  -1.831224  -0.353282
H    0.783494  -2.445400  0.361791
N    -1.327906  -0.579376  1.824568
C    -1.714793  0.223697  2.991536
C    -1.453183  -0.565614  4.293214
O    -0.415637  -0.254101  4.987572
H    -2.070549  -0.870210  1.191214
H    -1.012831  1.073104  3.048418
C    -3.126876  0.791692  2.810909
C    -3.573623  1.742308  3.932626
C    -5.069371  2.126096  3.850421
N    -5.975359  1.106013  4.351007
C    -6.347016  -0.026419  3.662268
N    -6.937984  -1.012999  4.424325
N    -6.103877  -0.287777  2.407157
H    -3.857054  -0.022777  2.692744
H    -3.123003  1.340051  1.855552
H    -2.975797  2.666390  3.892672
H    -3.395597  1.295078  4.923661
H    -5.340473  2.405736  2.819913
H    -5.236328  3.025199  4.454958
H    -6.328809  1.235962  5.292214
H    -7.478278  -1.678270  3.878804
H    -7.365229  -0.762702  5.309943
H    -5.816823  0.551168  1.897677
N    -2.223546  -1.542663  4.731075
C    -3.447173  -2.134991  4.176447
H    -1.899271  -1.944308  5.613149
H    -3.466009  -3.188430  4.473572
H    -3.461839  -2.084177  3.086003
H    -4.342745  -1.641197  4.574539
Pb    1.632500  0.264336  4.185716
