36
Energy: -611334.813635 eV PBE+vdW (tier 2 basis)
C    -0.243414  0.540707  -0.345233
C    -0.360317  -0.085907  1.006178
O    0.660333  -0.214181  1.792133
H    0.164412  1.556821  -0.252031
H    -1.204451  0.598008  -0.865992
H    0.449033  -0.047401  -0.964532
N    -1.526642  -0.524533  1.421603
C    -1.807672  -1.190125  2.693712
C    -3.187568  -1.858151  2.414105
O    -3.891554  -1.332302  1.546521
H    -2.398849  -0.453030  0.861409
H    -1.009519  -1.919324  2.885596
C    -1.916900  -0.147211  3.844389
C    -1.583928  -0.641344  5.257497
C    -0.107969  -0.978700  5.510983
N    0.747694  0.200291  5.299420
C    1.832516  0.251040  4.531819
N    2.286491  1.517919  4.061877
N    2.531895  -0.737966  4.017051
H    -2.934992  0.264813  3.838419
H    -1.256356  0.694664  3.590819
H    -2.174604  -1.527033  5.525196
H    -1.898930  0.131868  5.975443
H    0.246742  -1.763766  4.830070
H    0.030130  -1.347231  6.536554
H    0.455822  1.058454  5.763587
H    1.621045  2.288252  4.141874
H    3.192403  1.788158  4.453894
H    2.357001  -1.678218  4.370510
N    -3.585891  -2.924224  3.131467
C    -2.845446  -3.771484  4.056032
H    -4.528996  -3.227173  2.890577
H    -1.779076  -3.525407  4.041236
H    -2.946747  -4.821417  3.755084
H    -3.222165  -3.669825  5.082962
Pb    2.893238  0.097008  1.869637
