36
Energy: -611334.943087 eV PBE+vdW (tier 2 basis)
C    -2.007227  4.978656  2.558384
C    -1.553889  3.852200  1.695284
O    -0.386596  3.844500  1.203855
H    -1.621507  4.837286  3.580653
H    -3.096186  5.081990  2.596317
H    -1.556441  5.906309  2.184926
N    -2.385665  2.811603  1.417024
C    -3.185478  2.131585  2.431186
C    -2.199870  1.529166  3.458240
O    -0.997670  1.281361  3.120862
H    -1.985833  2.175253  0.728351
H    -3.835551  2.873426  2.912397
C    -4.055581  0.973128  1.849113
C    -4.584061  1.124286  0.402279
C    -3.863794  0.271038  -0.659840
N    -2.462632  0.664730  -0.872395
C    -1.355003  0.193607  -0.255069
N    -1.426757  -0.923478  0.503622
N    -0.183148  0.850639  -0.290301
H    -4.908819  0.859023  2.528264
H    -3.486724  0.037617  1.939668
H    -4.583512  2.178752  0.089312
H    -5.638235  0.815747  0.380839
H    -4.378443  0.369356  -1.623903
H    -3.913128  -0.796802  -0.406086
H    -2.323508  1.487741  -1.452188
H    -0.549466  -1.400317  0.681557
H    -2.237109  -1.528818  0.440499
H    -0.153386  1.545799  -1.041254
N    -2.609720  1.230147  4.683471
C    -3.938335  1.390316  5.278750
H    -1.898926  0.789434  5.268668
H    -4.494500  2.195344  4.789432
H    -3.816832  1.652532  6.334706
H    -4.511245  0.456790  5.210212
Pb    0.789681  1.816367  1.633639
