36
Energy: -611332.874156 eV PBE+vdW (tier 2 basis)
C    -0.502129  0.959117  -0.625511
C    -0.059284  0.573231  0.721864
O    0.802504  -0.385212  0.865142
H    0.082719  1.880484  -0.944537
H    -1.553068  1.260533  -0.686093
H    -0.281993  0.164482  -1.343767
N    -0.468656  1.177618  1.860393
C    -1.844551  1.604524  2.142053
C    -2.752533  0.353375  1.943694
O    -2.256628  -0.811854  1.766122
H    0.056157  0.861648  2.674943
H    -1.863065  1.790123  3.229002
C    -2.304610  2.902599  1.442754
C    -1.879922  4.233258  2.084818
C    -0.379234  4.588572  2.198602
N    0.497526  4.162851  1.110638
C    0.325630  4.241162  -0.248443
N    -0.743343  4.969965  -0.711873
N    1.040064  3.570118  -1.119482
H    -3.403614  2.916197  1.416500
H    -2.002109  2.891572  0.390159
H    -2.293281  4.308736  3.102438
H    -2.399168  5.010089  1.509140
H    0.041921  4.124458  3.100453
H    -0.307914  5.675843  2.370267
H    1.380429  3.756001  1.392378
H    -0.724518  5.089267  -1.721515
H    -0.995142  5.815743  -0.210440
H    1.844286  3.107662  -0.683535
N    -4.061592  0.495758  2.023958
C    -5.025667  -0.607489  1.938397
H    -4.430685  1.429426  2.182391
H    -6.032659  -0.188424  2.004893
H    -4.870618  -1.312953  2.763464
H    -4.914744  -1.133909  0.983630
Pb    -0.431105  -2.191162  1.418443
