36
Energy: -611335.179546 eV PBE+vdW (tier 2 basis)
C    0.687545  0.861982  0.058447
C    0.489351  0.574633  1.511362
O    1.478812  0.577080  2.296959
H    -0.247579  0.891768  -0.510700
H    1.345673  0.093928  -0.370690
H    1.210160  1.821461  -0.049178
N    -0.762349  0.321320  1.950732
C    -1.047969  0.093758  3.363977
C    -0.614522  -1.316329  3.826715
O    0.426544  -1.403689  4.555964
H    -1.519005  0.329341  1.272556
H    -0.337385  0.726506  3.897737
C    -2.445547  0.517985  3.842912
C    -2.807070  2.022469  3.765389
C    -1.723148  3.081380  4.072161
N    -0.796762  2.686771  5.146121
C    0.542871  2.571674  4.980007
N    1.140945  3.328061  4.027888
N    1.300772  1.683467  5.640145
H    -2.506546  0.182957  4.889802
H    -3.234996  -0.039924  3.322433
H    -3.659058  2.168421  4.443356
H    -3.192366  2.268465  2.765838
H    -2.214174  4.033714  4.313511
H    -1.119034  3.247290  3.172155
H    -1.192997  2.177562  5.930169
H    2.151078  3.398832  4.081020
H    0.680010  4.168285  3.697248
H    0.783602  1.233637  6.400573
N    -1.270688  -2.423081  3.509055
C    -2.489785  -2.605225  2.719926
H    -0.860740  -3.269385  3.907391
H    -3.381261  -2.586557  3.359724
H    -2.434064  -3.581524  2.227847
H    -2.575523  -1.842400  1.941544
Pb    2.348100  -0.056931  4.405803
