36
Energy: -611335.513969 eV PBE+vdW (tier 2 basis)
C    1.126387  0.595717  1.241644
C    0.268088  -0.398030  1.953433
O    0.721452  -1.545006  2.234242
H    0.639685  1.566003  1.097738
H    1.415968  0.186153  0.264526
H    2.053136  0.736272  1.814099
N    -0.984089  -0.032088  2.301962
C    -1.839508  -0.901055  3.108427
C    -2.639868  -1.830848  2.173874
O    -2.097860  -2.902748  1.755245
H    -1.304038  0.898658  2.046718
H    -1.124864  -1.567972  3.603267
C    -2.606395  -0.198963  4.239697
C    -2.835586  -1.169526  5.418710
C    -1.510772  -1.483707  6.166720
N    -1.261481  -2.878039  6.568731
C    -0.730177  -3.811316  5.740923
N    0.102020  -4.735577  6.248703
N    -1.024175  -3.824226  4.431726
H    -3.561433  0.233553  3.907409
H    -2.004320  0.655553  4.583531
H    -3.317319  -2.095621  5.067418
H    -3.556948  -0.725915  6.115562
H    -1.469054  -0.892791  7.088349
H    -0.648204  -1.157961  5.565158
H    -1.224509  -3.064192  7.566471
H    0.492833  -4.651707  7.180317
H    0.220525  -5.621811  5.772095
H    -1.934658  -3.388827  4.288865
N    -3.858325  -1.482447  1.792749
C    -4.702781  -2.231024  0.858734
H    -4.237299  -0.616680  2.167933
H    -5.673545  -2.432411  1.325832
H    -4.210084  -3.172156  0.606190
H    -4.858349  -1.641177  -0.052909
Pb    -0.008428  -3.804357  2.318414
