36
Energy: -611333.29051 eV PBE+vdW (tier 2 basis)
C    0.461156  0.004179  0.085441
C    0.477664  0.321714  1.530346
O    1.588751  0.608059  2.115359
H    1.070439  0.725523  -0.473481
H    -0.543206  -0.103958  -0.352414
H    0.976127  -0.967122  -0.020424
N    -0.642433  0.306558  2.281958
C    -1.896006  0.947155  1.885175
C    -1.618464  2.462290  1.843026
O    -0.582853  2.963093  2.424758
H    -0.469756  0.308940  3.289680
H    -2.156383  0.601128  0.868182
C    -3.015214  0.609886  2.902963
C    -3.345375  -0.887799  3.049874
C    -4.414294  -1.442717  2.084123
N    -4.198899  -1.125199  0.675618
C    -3.050528  -1.382505  -0.037757
N    -2.244223  -2.387037  0.459695
N    -2.613661  -0.692115  -1.055748
H    -3.916742  1.176158  2.630984
H    -2.703314  1.010147  3.881736
H    -3.719636  -1.055962  4.069334
H    -2.423734  -1.480500  2.966239
H    -5.398076  -1.031380  2.343138
H    -4.500155  -2.530027  2.241457
H    -4.870290  -0.516517  0.225646
H    -1.559375  -2.701857  -0.221577
H    -2.708555  -3.157827  0.931352
H    -3.290594  0.005997  -1.375675
N    -2.441118  3.285206  1.220404
C    -3.666783  2.975058  0.483163
H    -2.185518  4.272296  1.281774
H    -3.698591  1.913500  0.224564
H    -3.677303  3.564271  -0.440281
H    -4.547931  3.237965  1.082524
Pb    1.549405  2.619708  3.151974
