36
Energy: -611334.892713 eV PBE+vdW (tier 2 basis)
C    -1.818778  -1.416193  -0.283359
C    -1.174819  -1.352586  1.070042
O    0.024418  -1.601104  1.254419
H    -1.405917  -0.604496  -0.898820
H    -2.909964  -1.319235  -0.260029
H    -1.542227  -2.358646  -0.769772
N    -1.978574  -1.000569  2.129472
C    -1.429865  -0.595512  3.425081
C    -0.957038  -1.799119  4.282304
O    -1.376923  -1.978024  5.491289
H    -2.954028  -0.802205  1.938295
H    -0.509127  -0.022248  3.214632
C    -2.402803  0.327669  4.165266
C    -3.810474  -0.236792  4.441889
C    -4.508968  0.434831  5.625502
N    -4.016179  -0.085707  6.937750
C    -4.420104  -1.413814  7.352393
N    -5.671298  -1.818665  7.138360
N    -3.447009  -2.086568  7.899502
H    -2.488011  1.260853  3.590200
H    -1.914514  0.644329  5.104589
H    -3.780282  -1.324568  4.605414
H    -4.452829  -0.083062  3.563766
H    -5.600619  0.321226  5.545219
H    -4.316322  1.515747  5.636116
H    -4.251125  0.576551  7.685150
H    -5.973723  -2.755121  7.392306
H    -6.394197  -1.178176  6.827643
H    -3.650389  -3.005937  8.295255
N    -0.102603  -2.610270  3.713274
C    0.490713  -3.799851  4.310460
H    0.154793  -2.329639  2.725432
H    -0.002865  -4.039625  5.255301
H    1.561763  -3.631429  4.482445
H    0.381791  -4.639807  3.614803
Pb    -1.524000  -0.843784  7.408896
