36
Energy: -611334.893215 eV PBE+vdW (tier 2 basis)
C    -0.123794  0.202820  -0.513041
C    0.075248  0.282305  0.962961
O    1.274214  0.451878  1.403582
H    -1.174269  0.124200  -0.805510
H    0.434239  -0.653078  -0.916260
H    0.311683  1.101649  -0.970546
N    -0.931992  0.209325  1.817268
C    -2.348427  -0.124382  1.674849
C    -2.896005  0.137470  3.105040
O    -2.099649  0.101382  4.066932
H    -0.730444  0.305619  2.823947
H    -2.828388  0.560274  0.963185
C    -2.619537  -1.600640  1.222594
C    -1.527177  -2.633294  1.533608
C    -1.270737  -2.948459  3.029129
N    0.162911  -3.158526  3.288903
C    1.003574  -2.215996  3.716643
N    2.403909  -2.389014  3.496562
N    0.724223  -1.052660  4.261018
H    -2.772900  -1.603009  0.135403
H    -3.577566  -1.920758  1.655677
H    -0.579429  -2.307766  1.082112
H    -1.793266  -3.560370  1.008441
H    -1.799605  -3.856109  3.341946
H    -1.618499  -2.145117  3.686225
H    0.554529  -4.062405  3.034618
H    2.920899  -2.578526  4.359541
H    2.660419  -3.072398  2.782263
H    -0.252037  -0.854711  4.512751
N    -4.203520  0.361456  3.254803
C    -5.217341  0.545394  2.213036
H    -4.492321  0.499125  4.221611
H    -5.010193  1.433763  1.602019
H    -6.182372  0.692901  2.705328
H    -5.305196  -0.335781  1.566171
Pb    2.409590  0.309892  3.374043
