36
Energy: -611335.396561 eV PBE+vdW (tier 2 basis)
C    -0.964747  -0.327179  -0.076886
C    -0.458725  0.661547  0.936223
O    0.631918  1.247494  0.699614
H    -1.143273  0.200983  -1.023113
H    -1.886069  -0.838236  0.223017
H    -0.182166  -1.071491  -0.269532
N    -1.235872  0.839029  2.030273
C    -1.147479  1.771735  3.177255
C    0.167799  2.528740  3.068224
O    1.249706  1.920096  3.444838
H    -2.103430  0.309728  2.004728
H    -1.964741  2.498166  3.052666
C    -1.404563  1.064851  4.524036
C    -0.473859  -0.087043  4.927561
C    -0.937267  -0.702636  6.251628
N    -0.037737  -1.786084  6.668228
C    0.006200  -2.330989  7.892252
N    0.982348  -3.196489  8.204207
N    -0.908451  -2.005063  8.813777
H    -2.447258  0.706075  4.503530
H    -1.381196  1.852298  5.293229
H    0.556190  0.277698  5.025907
H    -0.472277  -0.860965  4.143044
H    -1.966207  -1.087961  6.150016
H    -0.936304  0.066626  7.039065
H    0.535379  -2.217616  5.950390
H    0.935139  -3.765170  9.041189
H    1.805746  -3.298389  7.624155
H    -1.770656  -1.538557  8.563294
N    0.288543  3.675557  2.431514
C    -0.819251  4.428264  1.849288
H    -0.800206  -2.285788  9.781230
H    -0.428696  5.369491  1.449583
H    -1.568194  4.688072  2.610162
H    -1.314771  3.888231  1.027452
Pb    2.254997  2.753447  1.533959
