36
Energy: -611335.757211 eV PBE+vdW (tier 2 basis)
C    -0.693147  1.511676  0.744585
C    -1.249013  1.209811  2.097439
O    -1.263880  2.106164  2.989154
H    -1.226544  2.376332  0.327384
H    -0.767749  0.670447  0.047625
H    0.359752  1.806891  0.846906
N    -1.740592  -0.024159  2.330152
C    -2.418033  -0.374988  3.575213
C    -1.398075  -0.812494  4.640703
O    -0.950221  0.054679  5.453252
H    -1.708208  -0.702373  1.573277
H    -2.821785  0.572852  3.949883
C    -3.628673  -1.286406  3.376863
C    -4.427176  -1.490686  4.680428
C    -4.582311  -0.255425  5.580868
N    -5.102127  0.918762  4.865956
C    -4.799689  2.209464  5.162723
N    -5.763651  3.124766  4.927821
N    -3.600878  2.567724  5.642907
H    -3.351586  -2.265644  2.955157
H    -4.260124  -0.804000  2.616984
H    -3.965211  -2.272429  5.300543
H    -5.418735  -1.882934  4.414006
H    -3.633255  0.037087  6.042810
H    -5.259976  -0.509846  6.410232
H    -5.998088  0.783314  4.404566
H    -5.549799  4.114699  4.911719
H    -6.742363  2.868995  4.858216
H    -3.677497  3.499532  6.058866
N    -1.001320  -2.074107  4.681291
C    -0.005060  -2.622151  5.605267
H    -1.417471  -2.718427  4.013242
H    -0.437066  -3.471797  6.146306
H    0.290608  -1.845486  6.313667
H    0.873054  -2.963139  5.043473
Pb    -1.256185  2.370589  5.321355
