36
Energy: -611333.150115 eV PBE+vdW (tier 2 basis)
C    -1.015445  -0.967304  -0.184381
C    -0.782632  -0.742683  1.257460
O    0.327219  -1.073358  1.814348
H    -1.164266  -0.011825  -0.712452
H    -1.961744  -1.535933  -0.303157
H    -0.163372  -1.488034  -0.628681
N    -1.748199  -0.217786  2.046653
C    -2.524154  0.984079  1.746149
C    -1.532083  2.160555  1.834146
O    -0.441091  2.043306  2.513062
H    -1.601240  -0.372869  3.046025
H    -2.921875  0.915188  0.719990
C    -3.681148  1.061643  2.783767
C    -4.964954  1.832343  2.453194
C    -5.749927  1.385925  1.186945
N    -5.638494  -0.029028  0.856834
C    -4.719549  -0.570861  -0.017895
N    -4.249464  0.310696  -1.008518
N    -4.207788  -1.757579  0.013760
H    -3.280321  1.445000  3.735347
H    -3.952362  0.011143  2.962631
H    -4.786774  2.915208  2.393509
H    -5.611719  1.701156  3.332542
H    -5.422619  1.965897  0.318195
H    -6.809199  1.637389  1.328591
H    -6.066742  -0.689607  1.497594
H    -3.773356  -0.227021  -1.731264
H    -4.977846  0.883387  -1.433649
H    -4.544923  -2.316759  0.802013
N    -1.765589  3.312042  1.234226
C    -2.863990  3.687356  0.341574
H    -1.058241  4.028741  1.407685
H    -3.591300  4.315445  0.869748
H    -3.354073  2.794432  -0.056108
H    -2.445642  4.260222  -0.493326
Pb    1.207623  0.580463  3.109475
