36
Energy: -611334.744571 eV PBE+vdW (tier 2 basis)
C    0.995808  -3.204270  0.364899
C    0.078835  -3.180760  1.551361
O    -0.669006  -4.135181  1.818938
H    1.841693  -3.867001  0.601095
H    1.395724  -2.219961  0.095857
H    0.473703  -3.643325  -0.491944
N    0.097084  -2.045234  2.327996
C    -0.304259  -1.967946  3.743174
C    -1.811378  -2.148942  4.004318
O    -2.335692  -1.496544  4.984789
H    0.810030  -1.369163  2.070373
H    0.150976  -2.822443  4.281411
C    0.270844  -0.687661  4.375079
C    -0.001812  0.670873  3.703253
C    -1.424740  1.231869  3.704662
N    -2.288365  0.600409  2.682964
C    -3.635868  0.658737  2.642052
N    -4.229861  0.709284  1.435109
N    -4.371285  0.631016  3.774377
H    1.361697  -0.821397  4.411892
H    -0.050507  -0.654795  5.423646
H    0.387841  0.697482  2.671384
H    0.613888  1.408720  4.236946
H    -1.381470  2.312096  3.496854
H    -1.885603  1.112221  4.689118
H    -1.836502  0.474883  1.779756
H    -3.731472  1.014407  0.605577
H    -5.226800  0.555244  1.334799
H    -5.302807  1.024757  3.623662
N    -2.465467  -3.040794  3.304503
C    -3.854258  -3.404766  3.525604
H    -1.834990  -3.621115  2.642915
H    -4.534440  -2.593203  3.219268
H    -4.034622  -3.681277  4.576266
H    -4.092211  -4.275836  2.907066
Pb    -4.255118  -0.638049  5.665050
