36
Energy: -611334.243022 eV PBE+vdW (tier 2 basis)
C    -1.586151  0.361258  0.211756
C    -1.123224  0.258406  1.625078
O    0.026622  -0.277358  1.854178
H    -0.856259  0.954816  -0.356872
H    -2.572446  0.827554  0.125096
H    -1.606802  -0.637509  -0.244131
N    -1.885812  0.740299  2.597202
C    -1.496907  0.743558  4.008992
C    -1.636065  -0.702124  4.532076
O    -0.561742  -1.402403  4.715838
H    -2.860518  1.071616  2.378466
H    -0.421608  0.975755  4.037916
C    -2.234490  1.806000  4.866466
C    -2.617477  3.116617  4.138519
C    -4.103280  3.552463  4.325113
N    -5.057235  2.454718  4.537031
C    -5.057581  1.292167  3.819626
N    -4.666692  1.413806  2.466506
N    -5.300070  0.091826  4.258435
H    -1.580220  2.015520  5.721825
H    -3.130005  1.346476  5.296572
H    -2.405370  3.034129  3.065025
H    -1.985135  3.941977  4.487823
H    -4.407073  4.175595  3.471392
H    -4.200308  4.194121  5.207616
H    -5.382714  2.349101  5.492384
H    -5.082104  0.645616  1.937600
H    -4.937870  2.305597  2.050505
H    -5.597003  0.103917  5.239603
N    -2.819387  -1.225287  4.721885
C    -3.036949  -2.614308  5.135042
H    -3.700997  -0.671295  4.504367
H    -4.115841  -2.785930  5.172938
H    -2.598762  -2.792660  6.124233
H    -2.585274  -3.309863  4.416775
Pb    1.205981  -1.424445  3.363578
