36
Energy: -611332.965557 eV PBE+vdW (tier 2 basis)
C    0.000087  0.397965  1.801867
C    -0.929280  1.140503  2.690998
O    -0.623998  1.266651  3.930554
H    -0.033221  0.747880  0.768609
H    -0.218592  -0.682548  1.807683
H    1.012002  0.507758  2.211061
N    -2.061654  1.748939  2.262841
C    -3.161174  1.166742  1.470252
C    -3.977812  0.288210  2.447393
O    -3.470158  -0.110080  3.555631
H    -2.408105  2.408468  2.961872
H    -3.791817  2.020909  1.177922
C    -2.760471  0.405031  0.192463
C    -2.229429  1.321327  -0.919795
C    -1.694121  0.558417  -2.151792
N    -0.433428  -0.134234  -1.926023
C    -0.251131  -1.370309  -1.335090
N    -1.353487  -2.213409  -1.328716
N    0.827644  -1.762209  -0.730764
H    -3.654332  -0.116318  -0.175825
H    -2.057251  -0.400006  0.433554
H    -1.433053  1.979581  -0.539442
H    -3.037498  1.989225  -1.258317
H    -1.531021  1.278589  -2.963823
H    -2.452226  -0.144801  -2.522673
H    0.412670  0.412419  -2.044122
H    -1.090026  -3.146795  -1.020404
H    -1.903509  -2.236635  -2.183661
H    1.585694  -1.075093  -0.776377
N    -5.218503  -0.066582  2.156783
C    -6.040706  0.278785  0.994682
H    -5.653462  -0.676458  2.850854
H    -5.688547  1.199689  0.521493
H    -7.068982  0.436997  1.336970
H    -6.035842  -0.537973  0.261385
Pb    -2.103138  0.293540  5.361629
