36
Energy: -611335.179906 eV PBE+vdW (tier 2 basis)
C    0.661827  1.892329  1.244578
C    0.289964  0.994695  2.384063
O    1.170616  0.673978  3.236174
H    0.981799  2.860422  1.654516
H    -0.154538  2.060439  0.534240
H    1.525455  1.470427  0.715183
N    -0.988321  0.570249  2.451169
C    -1.596231  -0.197896  3.547946
C    -0.589678  -1.221694  4.064569
O    -0.262991  -1.076877  5.328567
H    -1.612106  0.893767  1.716903
H    -1.715879  0.496439  4.393097
C    -2.982537  -0.786300  3.186777
C    -4.137299  -0.111067  3.939293
C    -4.132276  -0.291528  5.461333
N    -4.353130  -1.686262  5.878191
C    -3.691343  -2.350527  6.842567
N    -4.313332  -3.349313  7.487907
N    -2.427689  -2.046303  7.161791
H    -2.985376  -1.865914  3.394382
H    -3.155201  -0.700513  2.104391
H    -5.090425  -0.482179  3.533613
H    -4.138420  0.971948  3.742783
H    -4.927850  0.328703  5.899842
H    -3.193138  0.052470  5.912136
H    -5.244610  -2.091359  5.604205
H    -3.794468  -4.031865  8.027986
H    -5.323628  -3.427431  7.496649
H    -1.787089  -1.562079  6.526725
N    0.117712  -2.064453  3.350744
C    -0.074756  -2.330777  1.930246
H    -2.025096  -2.423345  8.011472
H    0.613570  -1.734930  1.312678
H    -1.099514  -2.127516  1.594894
H    0.143024  -3.388300  1.742752
Pb    1.941318  -1.123910  4.566550
