36
Energy: -611333.801334 eV PBE+vdW (tier 2 basis)
C    0.099657  -0.035845  0.181805
C    -0.038479  -0.192718  1.660143
O    1.030197  -0.434585  2.369553
H    0.291760  1.023616  -0.048919
H    -0.818633  -0.359840  -0.331513
H    0.963338  -0.603170  -0.179488
N    -1.242048  -0.066936  2.175637
C    -1.755054  -0.061408  3.547208
C    -1.014066  -0.903088  4.566723
O    -0.441423  -2.017704  4.270974
H    -2.043850  0.154189  1.477036
H    -1.752112  0.981467  3.903700
C    -3.232271  -0.586796  3.505566
C    -4.338307  0.427793  3.156028
C    -4.177883  1.294901  1.893937
N    -3.472881  0.625657  0.785381
C    -3.949354  -0.585190  0.165152
N    -5.285296  -0.846358  0.309259
N    -3.030584  -1.303068  -0.372857
H    -3.485608  -1.010808  4.487059
H    -3.239547  -1.436798  2.808351
H    -4.493338  1.115085  4.000474
H    -5.259719  -0.164994  3.081227
H    -3.570798  2.182654  2.123256
H    -5.168734  1.685333  1.608101
H    -3.190671  1.286106  0.060571
H    -5.940441  -0.073625  0.371856
H    -5.656142  -1.669981  -0.153206
H    -3.403440  -2.098168  -0.899017
N    -1.054696  -0.532525  5.838156
C    -1.706900  0.641603  6.430351
H    -0.650725  -1.207295  6.487722
H    -1.417762  0.690644  7.483569
H    -2.799480  0.560349  6.371533
H    -1.374383  1.563792  5.939653
Pb    1.556309  -2.329451  3.310395
