36
Energy: -611333.010985 eV PBE+vdW (tier 2 basis)
C    0.647180  0.608046  1.345448
C    -0.307154  -0.454907  1.769263
O    -0.345772  -1.556783  1.130156
H    1.094830  1.130851  2.196034
H    0.123974  1.349775  0.719308
H    1.427271  0.153733  0.726069
N    -1.149033  -0.287309  2.816450
C    -1.967526  0.911107  3.068657
C    -2.848958  1.130436  1.808205
O    -2.996668  0.208550  0.939489
H    -1.600597  -1.157753  3.097290
H    -2.666904  0.597694  3.861015
C    -1.222121  2.149286  3.604123
C    -0.377124  1.843753  4.846735
C    0.196239  3.124356  5.493742
N    0.883730  2.882194  6.742535
C    0.233665  2.657355  7.937587
N    1.020683  2.322415  9.000554
N    -1.059419  2.697958  8.135434
H    -1.985426  2.892395  3.888328
H    -0.619105  2.619772  2.814775
H    0.449952  1.163278  4.595733
H    -0.991969  1.317168  5.593151
H    -0.611129  3.855451  5.662339
H    0.907337  3.613051  4.813648
H    1.887355  2.744555  6.704979
H    0.548533  2.277512  9.897062
H    2.015192  2.511950  9.014871
H    -1.573013  3.018531  7.311642
N    -3.488063  2.277894  1.667073
C    -4.414608  2.579150  0.569591
H    -3.343996  2.993583  2.373631
H    -4.798435  3.592107  0.713170
H    -5.250636  1.869977  0.573382
H    -3.895052  2.521630  -0.393856
Pb    -2.413323  -1.901686  0.151248
