36
Energy: -611334.024032 eV PBE+vdW (tier 2 basis)
C    -0.315183  -1.085701  0.177328
C    -0.326885  -0.794967  1.637067
O    0.776418  -0.903984  2.295618
H    -0.818132  -2.061639  0.017442
H    0.712058  -1.136510  -0.191751
H    -0.877987  -0.331448  -0.386741
N    -1.484413  -0.469650  2.205613
C    -1.813749  -0.358268  3.638696
C    -1.131141  0.854361  4.288250
O    0.074336  0.812053  4.718761
H    -2.345554  -0.660490  1.627703
H    -2.887684  -0.125428  3.626360
C    -1.631838  -1.685576  4.426276
C    -2.951872  -2.301445  4.929467
C    -4.009631  -2.622708  3.850414
N    -3.515936  -3.432716  2.748231
C    -3.184890  -3.015754  1.478014
N    -3.719883  -1.751700  1.082414
N    -2.419236  -3.602641  0.629408
H    -0.988054  -1.527123  5.305856
H    -1.124392  -2.410040  3.773393
H    -3.418274  -1.644023  5.680111
H    -2.696617  -3.226775  5.466385
H    -4.440846  -1.699366  3.443639
H    -4.844990  -3.141703  4.342527
H    -3.219170  -4.376588  2.975178
H    -3.667315  -1.715142  0.062208
H    -4.694067  -1.617688  1.357834
H    -2.013197  -4.473470  0.981383
N    -1.842002  1.957175  4.427430
C    -1.371215  3.211944  5.019474
H    -2.798546  1.943805  4.080195
H    -2.149961  3.602627  5.683174
H    -1.172718  3.945763  4.227660
H    -0.458021  3.026255  5.588921
Pb    1.793288  -0.527884  4.201532
