36
Energy: -611335.316049 eV PBE+vdW (tier 2 basis)
C    -0.061167  -0.114467  2.245386
C    -1.119590  0.317226  3.218173
O    -0.784362  1.189359  4.100121
H    -0.424246  -0.158314  1.213652
H    0.302770  -1.118010  2.515196
H    0.786973  0.573730  2.311299
N    -2.386552  -0.135334  3.286784
C    -2.767199  -1.522892  3.006784
C    -2.105385  -2.369824  4.129296
O    -1.928850  -1.839359  5.269413
H    -3.642592  3.594297  -1.361267
H    -3.844274  -1.576226  3.251952
C    -2.654095  -2.059959  1.566459
C    -3.609813  -1.400887  0.553238
C    -3.216045  -0.005961  0.053975
N    -4.158009  0.411126  -0.993978
C    -4.304889  1.653363  -1.476340
N    -5.314549  1.927857  -2.313954
N    -3.464487  2.629540  -1.107869
H    -2.949509  -3.120247  1.587193
H    -1.620141  -2.039532  1.198857
H    -4.623838  -1.356855  0.980230
H    -3.666206  -2.071123  -0.319068
H    -2.191630  -0.030655  -0.354795
H    -3.248844  0.725776  0.873328
H    -4.666743  -0.326914  -1.471936
H    -5.335174  2.785169  -2.853618
H    -6.080927  1.280057  -2.451487
H    -2.565322  2.421229  -0.694023
N    -1.754906  -3.631000  3.923760
C    -1.187379  -4.492862  4.966635
H    -1.915803  -4.036849  3.008530
H    -0.352379  -3.983524  5.459287
H    -0.830566  -5.413627  4.498252
H    -1.947699  -4.736441  5.718727
Pb    -2.438811  0.467049  5.571131
