36
Energy: -611333.070785 eV PBE+vdW (tier 2 basis)
C    0.493480  0.847886  0.804771
C    0.132486  -0.074726  1.915827
O    0.973869  -0.316471  2.840863
H    -0.166910  0.763663  -0.063045
H    1.526875  0.626825  0.504612
H    0.497170  1.887754  1.166374
N    -1.080814  -0.672092  1.962323
C    -2.339963  0.035892  1.740272
C    -2.533194  1.003210  2.940856
O    -1.776778  0.951311  3.965174
H    -1.145239  -1.412996  2.663840
H    -2.249215  0.639250  0.825063
C    -3.509114  -0.965066  1.614106
C    -3.411829  -1.949594  0.441014
C    -3.605470  -1.314456  -0.952975
N    -3.805618  -2.280251  -2.011257
C    -5.009619  -2.920854  -2.233317
N    -5.004065  -3.890785  -3.192452
N    -6.134014  -2.707540  -1.601899
H    -4.446931  -0.394109  1.537478
H    -3.585170  -1.525407  2.560197
H    -4.196058  -2.705684  0.588448
H    -2.457697  -2.497520  0.468939
H    -2.736211  -0.703338  -1.237439
H    -4.467671  -0.627340  -0.936961
H    -2.978236  -2.653204  -2.463539
H    -5.908323  -4.292818  -3.414883
H    -4.287901  -3.941251  -3.906265
H    -6.073483  -1.949381  -0.919186
N    -3.517607  1.883309  2.884639
C    -3.836261  2.840986  3.950589
H    -4.101999  1.896139  2.052832
H    -4.704933  3.425699  3.638188
H    -2.989209  3.515523  4.122094
H    -4.071354  2.309423  4.879893
Pb    0.188169  0.191879  4.958408
