36
Energy: -611334.99716 eV PBE+vdW (tier 2 basis)
C    0.545762  -0.458292  1.143742
C    0.236919  0.318102  2.375496
O    1.167590  0.766412  3.109352
H    -0.274592  -1.112103  0.831656
H    1.451968  -1.050137  1.321762
H    0.787612  0.236894  0.323697
N    -1.048325  0.580280  2.738806
C    -2.073497  1.050809  1.810929
C    -1.559659  2.355535  1.172578
O    -0.767008  3.106174  1.832304
H    -1.111159  0.958406  3.691592
H    -2.256964  0.278732  1.052458
C    -3.390991  1.409466  2.538131
C    -3.913020  0.416084  3.583204
C    -3.247083  0.478766  4.967828
N    -3.150932  1.837762  5.528091
C    -2.022558  2.378768  6.044497
N    -2.160057  3.182499  7.117547
N    -0.813446  2.109096  5.504141
H    -4.154766  1.543304  1.761021
H    -3.271747  2.395889  3.014145
H    -3.845945  -0.620571  3.222489
H    -4.987224  0.616197  3.706275
H    -2.239180  0.052040  4.976428
H    -3.837481  -0.132581  5.665863
H    -4.024406  2.233878  5.867441
H    -1.405737  3.790213  7.414054
H    -2.984775  3.156417  7.708608
H    -0.114211  2.139533  6.253933
N    -1.968133  2.739153  -0.026805
C    -2.908687  2.082680  -0.937129
H    -1.612827  3.650523  -0.320078
H    -3.908489  2.525637  -0.842472
H    -2.967878  1.009541  -0.735839
H    -2.556337  2.221778  -1.964465
Pb    0.612697  2.979844  3.735119
