36
Energy: -611333.483822 eV PBE+vdW (tier 2 basis)
C    -0.293434  3.065730  1.102644
C    -0.286272  1.704060  1.693828
O    0.752864  1.280988  2.317292
H    0.349221  3.028784  0.205836
H    0.176400  3.782909  1.785625
H    -1.286045  3.411382  0.794562
N    -1.351296  0.880745  1.588674
C    -2.719477  1.323223  1.843705
C    -2.775636  1.757902  3.310829
O    -1.875585  1.362659  4.153945
H    -1.153904  -0.094055  1.829072
H    -2.963392  2.195450  1.179729
C    -3.747631  0.209520  1.540511
C    -3.635159  -0.493997  0.174317
C    -3.685792  0.361639  -1.110358
N    -4.776636  1.318208  -1.178315
C    -4.689207  2.597426  -0.696232
N    -5.870287  3.246677  -0.463326
N    -3.568454  3.206354  -0.363310
H    -4.744491  0.658948  1.639465
H    -3.689796  -0.563578  2.323726
H    -4.455792  -1.226099  0.150075
H    -2.713661  -1.095473  0.121688
H    -3.775437  -0.316631  -1.968213
H    -2.732978  0.888682  -1.258417
H    -5.652014  1.004063  -1.583348
H    -5.828815  4.259580  -0.499574
H    -6.749516  2.833063  -0.751577
H    -2.784717  2.750837  -0.839291
N    -3.741506  2.536681  3.755734
C    -4.838918  3.151304  3.001300
H    -3.712038  2.721997  4.759288
H    -5.049132  4.128412  3.448035
H    -5.742380  2.532330  3.066678
H    -4.552933  3.299396  1.955231
Pb    0.248194  0.654080  4.448606
