36
Energy: -611334.912109 eV PBE+vdW (tier 2 basis)
C    0.477369  1.529007  0.575420
C    0.280572  0.723126  1.814221
O    1.297703  0.324548  2.484073
H    0.587775  2.590093  0.845572
H    -0.354447  1.442114  -0.131257
H    1.404234  1.206327  0.088823
N    -0.934638  0.372664  2.234591
C    -2.256304  0.807862  1.759189
C    -2.328803  2.349440  1.674672
O    -1.714738  3.059408  2.497951
H    -0.936321  -0.255947  3.033993
H    -2.429396  0.366057  0.767780
C    -3.354831  0.258781  2.709639
C    -3.638680  0.973395  4.047678
C    -2.585503  0.917305  5.163626
N    -1.425286  1.762608  4.842320
C    -0.169912  1.637027  5.230853
N    0.289556  0.518336  5.972958
N    0.835999  2.433279  4.876795
H    -3.140608  -0.809287  2.881421
H    -4.293133  0.267026  2.139117
H    -3.916857  2.024092  3.874263
H    -4.542526  0.504434  4.460905
H    -2.274024  -0.127472  5.330216
H    -3.040538  1.270416  6.100225
H    -1.564244  2.422971  4.034645
H    0.679305  0.787529  6.879380
H    -0.379390  -0.240252  6.104419
H    0.574625  3.296968  4.397850
N    -3.101162  2.881489  0.720291
C    -3.862734  2.205045  -0.332672
H    -3.162372  3.897653  0.762869
H    -4.293959  2.972031  -0.981891
H    -4.687852  1.608655  0.076964
H    -3.218890  1.568532  -0.953042
Pb    2.463675  0.876083  4.359972
