36
Energy: -611332.57791 eV PBE+vdW (tier 2 basis)
C    -0.019179  1.107023  0.733225
C    -0.256597  0.748552  2.160155
O    0.569126  1.212286  3.056673
H    -0.776901  0.700813  0.058252
H    0.968271  0.735027  0.426532
H    -0.000168  2.200692  0.632616
N    -1.243761  -0.008947  2.565185
C    -2.339055  -0.649634  1.828163
C    -3.401969  -0.828106  2.957853
O    -2.993800  -0.885173  4.124349
H    -1.395692  -0.206459  3.581096
H    -2.708220  0.021386  1.039632
C    -1.876246  -2.003056  1.234411
C    -2.940796  -2.747282  0.421502
C    -2.356536  -4.002921  -0.261050
N    -3.320247  -4.733865  -1.060253
C    -3.684083  -4.388524  -2.338509
N    -4.661487  -5.131596  -2.926080
N    -3.199432  -3.385920  -3.036742
H    -1.517427  -2.633318  2.062541
H    -1.002657  -1.801429  0.593748
H    -3.364208  -2.088263  -0.353906
H    -3.773264  -3.058695  1.068008
H    -1.968568  -4.696822  0.496938
H    -1.497041  -3.731703  -0.893476
H    -3.833562  -5.477401  -0.598642
H    -4.856593  -4.921991  -3.898813
H    -4.947388  -6.037127  -2.575176
H    -2.425888  -2.918434  -2.557371
N    -4.683220  -0.921258  2.578774
C    -5.787804  -1.124835  3.515306
H    -4.908654  -0.807131  1.595936
H    -6.462794  -0.260617  3.500649
H    -5.371761  -1.242877  4.519076
H    -6.351150  -2.026121  3.245939
Pb    1.818752  2.187228  4.506333
