36
Energy: -611335.623446 eV PBE+vdW (tier 2 basis)
C    -1.367986  -0.902184  0.084364
C    -1.592742  -0.595315  1.532527
O    -2.016509  -1.512233  2.297063
H    -0.602630  -1.685480  -0.000670
H    -1.060921  -0.033857  -0.507643
H    -2.293745  -1.316072  -0.336852
N    -1.353039  0.658702  1.946353
C    -1.583796  1.288460  3.264959
C    -0.479487  0.882790  4.257320
O    -0.447791  -0.282951  4.748368
H    -1.015585  1.289233  1.224934
H    -1.498920  2.364459  3.061249
C    -2.950755  1.019121  3.914611
C    -4.188756  1.065882  3.016944
C    -5.339354  0.254485  3.632339
N    -5.344823  -1.182263  3.296353
C    -5.015847  -2.201520  4.126269
N    -5.791182  -3.306231  4.065555
N    -3.956926  -2.124879  4.952170
H    -3.054496  1.757709  4.723830
H    -2.931046  0.051972  4.427951
H    -3.983649  0.675526  2.010876
H    -4.522353  2.103723  2.881960
H    -6.298759  0.649952  3.276562
H    -5.342480  0.351652  4.726165
H    -5.977492  -1.436082  2.543393
H    -5.487092  -4.181847  4.474125
H    -6.745526  -3.268916  3.723555
H    -4.087336  -2.766828  5.739846
N    0.415325  1.802798  4.591266
C    1.515062  1.605279  5.537082
H    0.336412  2.719197  4.158048
H    2.470924  1.572509  4.999413
H    1.363562  0.664638  6.071052
H    1.531400  2.437767  6.249046
Pb    -1.643128  -2.299687  4.408670
