36
Energy: -611334.202946 eV PBE+vdW (tier 2 basis)
C    0.210321  -0.441387  0.278546
C    0.127663  -0.192925  1.747712
O    1.082225  -0.617573  2.490045
H    -0.640347  -0.038252  -0.280346
H    0.269145  -1.526743  0.111919
H    1.141973  -0.011425  -0.112871
N    -0.940663  0.440560  2.231297
C    -1.381432  0.680162  3.626716
C    -0.559926  1.762439  4.324443
O    0.710476  1.628603  4.557295
H    -1.612781  0.736575  1.527273
H    -2.379152  1.108801  3.479079
C    -1.565437  -0.620205  4.450373
C    -2.868930  -1.363166  4.077079
C    -4.098172  -1.083215  4.989822
N    -4.215417  0.272679  5.522679
C    -4.243820  1.434319  4.801956
N    -4.579593  1.319187  3.461550
N    -3.866440  2.610043  5.237195
H    -1.569640  -0.349416  5.516440
H    -0.707385  -1.290704  4.301028
H    -2.696527  -2.446883  4.110281
H    -3.121697  -1.142052  3.030088
H    -4.053881  -1.737729  5.868048
H    -5.012581  -1.377790  4.452458
H    -3.997599  0.387700  6.505105
H    -4.867005  2.212728  3.068294
H    -5.221922  0.568859  3.220633
H    -3.683706  2.592580  6.245038
N    -1.193465  2.835137  4.719171
C    -0.554098  3.940901  5.432259
H    -2.275959  2.840459  4.702831
H    -1.333240  4.656351  5.708680
H    0.178127  4.438166  4.784568
H    -0.041637  3.583923  6.334516
Pb    2.240592  0.080034  4.255765
