36
Energy: -611333.756347 eV PBE+vdW (tier 2 basis)
C    -0.824128  -2.779138  0.859657
C    -0.757928  -1.602289  1.772659
O    0.254328  -0.828940  1.719553
H    -0.776327  -2.423085  -0.179140
H    -1.729972  -3.379156  0.994279
H    0.059856  -3.411279  1.018990
N    -1.769185  -1.373933  2.619522
C    -1.880436  -0.196299  3.487820
C    -0.873481  -0.276365  4.653068
O    0.195977  0.440233  4.583087
H    -2.560312  -2.013958  2.592181
H    -1.553491  0.674781  2.894438
C    -3.319189  0.044201  3.953163
C    -4.328748  0.442898  2.870483
C    -5.773366  0.457364  3.423238
N    -6.282260  -0.855908  3.782366
C    -6.042430  -1.496863  4.980828
N    -6.405478  -2.819626  5.024332
N    -5.429569  -0.994378  6.021554
H    -3.276507  0.833935  4.718675
H    -3.688221  -0.846991  4.476905
H    -4.294667  -0.251764  2.016519
H    -4.096027  1.444107  2.475728
H    -6.440822  0.869304  2.657217
H    -5.843215  1.144252  4.281889
H    -6.947282  -1.274890  3.142147
H    -6.522851  -3.197332  5.958669
H    -7.029115  -3.201612  4.322937
H    -5.353167  0.023052  5.951421
N    -1.056095  -1.019700  5.728499
C    -2.126203  -1.965263  6.079191
H    -0.305764  -0.922536  6.415014
H    -1.757229  -2.577055  6.907149
H    -2.346707  -2.629256  5.236094
H    -3.054109  -1.460641  6.393564
Pb    1.439048  0.808643  2.748390
