36
Energy: -611335.104252 eV PBE+vdW (tier 2 basis)
C    -0.594338  1.574175  0.844311
C    -0.944543  1.261288  2.269777
O    -0.828891  2.300577  3.088808
H    0.380779  2.075567  0.803180
H    -1.325168  2.278802  0.422574
H    -0.546480  0.666365  0.235321
N    -1.344385  0.064110  2.599070
C    -1.647647  -0.166782  4.008738
C    -0.380450  -0.063903  4.873064
O    -0.294731  0.868718  5.757600
H    -2.570822  -0.542361  0.971862
H    -2.296596  0.649308  4.388658
C    -2.416467  -1.478741  4.282324
C    -3.631348  -1.667675  3.356957
C    -3.308266  -2.612527  2.184425
N    -4.238928  -2.507728  1.062064
C    -4.114595  -1.609967  0.075473
N    -4.947226  -1.654313  -0.976261
N    -3.159306  -0.673939  0.138092
H    -2.739482  -1.453153  5.331542
H    -1.751176  -2.348539  4.197578
H    -3.967654  -0.694319  2.969706
H    -4.476713  -2.075005  3.926186
H    -3.323129  -3.657270  2.519401
H    -2.296186  -2.425129  1.800599
H    -5.063742  -3.098309  1.062910
H    -4.966706  -0.914956  -1.667181
H    -5.558924  -2.445652  -1.134262
H    -2.948419  -0.113622  -0.677737
N    0.642962  -0.890983  4.745487
C    0.833314  -1.993536  3.802742
H    1.406373  -0.710326  5.398720
H    0.205483  -1.841607  2.921045
H    1.883140  -1.997459  3.490202
H    0.607019  -2.956087  4.279057
Pb    -0.742055  2.987445  5.137288
