36
Energy: -611333.796404 eV PBE+vdW (tier 2 basis)
C    0.094343  -1.098237  0.104087
C    -0.132323  -0.685018  1.513501
O    0.805028  -0.050625  2.131688
H    -0.572499  -0.496500  -0.549411
H    -0.169562  -2.153166  -0.045993
H    1.138145  -0.935650  -0.174046
N    -1.310249  -0.935444  2.089809
C    -1.700405  -0.400181  3.395529
C    -1.008020  -1.191103  4.533494
O    0.047589  -0.670024  5.062170
H    -2.039112  -1.372417  1.466897
H    -1.218910  0.586304  3.483515
C    -3.219002  -0.110273  3.554642
C    -4.266892  -1.020583  2.877146
C    -5.070804  -0.317542  1.760193
N    -4.256957  0.377812  0.768533
C    -3.381905  -0.196050  -0.128373
N    -3.225544  -1.603737  0.020596
N    -2.614126  0.387003  -0.976650
H    -3.350577  0.907177  3.162534
H    -3.413659  -0.035560  4.633379
H    -4.993548  -1.368575  3.623133
H    -3.810482  -1.931344  2.472326
H    -5.720974  0.443289  2.209969
H    -5.752366  -1.050484  1.295445
H    -4.497575  1.342498  0.575637
H    -2.770425  -1.958190  -0.821696
H    -4.106192  -2.103226  0.151119
H    -2.725577  1.403492  -0.998757
N    -1.407821  -2.350804  5.014971
C    -2.547357  -3.193858  4.649125
H    -0.818982  -2.697780  5.774383
H    -2.365411  -4.191807  5.057772
H    -2.636713  -3.275797  3.562409
H    -3.478107  -2.803933  5.077295
Pb    1.677075  0.515796  4.078744
