36
Energy: -611333.719767 eV PBE+vdW (tier 2 basis)
C    -1.307917  -1.460841  2.014417
C    -0.909859  -0.086939  2.419529
O    -0.420185  0.693094  1.507098
H    -2.314882  -1.401435  1.567881
H    -1.369686  -2.156226  2.858583
H    -0.622667  -1.840572  1.249761
N    -1.104134  0.317408  3.667673
C    -1.022201  1.707573  4.148114
C    0.432220  2.028445  4.563059
O    1.337647  1.894493  3.649747
H    -1.613419  -0.359635  4.322492
H    -1.168663  2.361760  3.270086
C    -2.195692  1.996712  5.099677
C    -2.396998  1.094811  6.340083
C    -3.354310  -0.088870  6.160834
N    -2.775583  -1.183887  5.353226
C    -3.595527  -1.813813  4.355145
N    -3.321642  -3.159814  4.215943
N    -4.370565  -1.215564  3.531414
H    -3.100761  1.956008  4.474573
H    -2.123258  3.051678  5.396215
H    -2.809131  1.718717  7.145475
H    -1.437968  0.714631  6.723613
H    -4.284256  0.242533  5.680625
H    -3.637478  -0.473354  7.150513
H    -2.308800  -1.871725  5.945229
H    -3.927141  -3.616493  3.537872
H    -3.192446  -3.710422  5.060198
H    -4.422831  -0.205071  3.674369
N    0.871407  2.470934  5.728222
C    0.248599  2.826144  7.009192
H    1.885117  2.605228  5.708526
H    -0.736844  3.270392  6.870040
H    0.898719  3.566307  7.485907
H    0.180354  1.949749  7.664272
Pb    1.408168  1.888997  1.409484
