36
Energy: -611334.248203 eV PBE+vdW (tier 2 basis)
C    -2.786300  -1.869327  1.045982
C    -1.885635  -1.192817  2.015063
O    -0.626313  -1.496278  2.004655
H    -2.549641  -1.507908  0.033141
H    -3.846614  -1.681824  1.278611
H    -2.576984  -2.946637  1.048432
N    -2.390248  -0.285690  2.840532
C    -1.622420  0.564790  3.756512
C    -1.124514  -0.267659  4.957230
O    0.033396  -0.820972  4.920493
H    -3.386124  0.056460  2.651425
H    -0.707000  0.906650  3.243043
C    -2.435901  1.806956  4.167778
C    -2.942768  2.696253  3.007143
C    -4.429864  2.490242  2.682113
N    -4.686211  1.130431  2.182121
C    -5.820310  0.335843  2.548184
N    -6.789880  0.966251  3.285130
N    -5.730600  -0.904091  2.221539
H    -1.793037  2.396862  4.834582
H    -3.308578  1.502626  4.770113
H    -2.332194  2.549393  2.102319
H    -2.804313  3.748944  3.286685
H    -4.759127  3.251924  1.960226
H    -5.012591  2.638519  3.600062
H    -4.529456  1.040048  1.179074
H    -7.596144  0.406951  3.544198
H    -7.014753  1.935697  3.083265
H    -6.590331  -1.429037  2.396797
N    -1.888800  -0.401848  6.019891
C    -1.565810  -1.177890  7.219715
H    -2.785066  0.080710  6.007643
H    -1.841041  -0.591870  8.103042
H    -0.495223  -1.392180  7.238818
H    -2.134044  -2.116965  7.220773
Pb    1.217344  -1.596963  3.182074
