36
Energy: -611334.754148 eV PBE+vdW (tier 2 basis)
C    -0.044321  1.495434  1.734374
C    -0.506610  0.206621  2.340556
O    0.294259  -0.514882  3.065706
H    0.279585  2.188514  2.525844
H    -0.826031  1.991350  1.150363
H    0.810850  1.302309  1.070857
N    -1.737282  -0.186428  2.144970
C    -2.380482  -1.443627  2.528091
C    -3.547859  -1.509511  1.488902
O    -3.840420  -0.460039  0.899699
H    -2.404095  0.316004  1.504952
H    -1.670087  -2.271111  2.391164
C    -2.948709  -1.448126  3.964643
C    -1.939728  -1.624032  5.115476
C    -1.377001  -0.322301  5.702566
N    -0.565263  -0.590198  6.890784
C    0.722090  -0.306525  7.123102
N    1.150402  -0.383096  8.400468
N    1.601905  0.052043  6.153341
H    -3.659390  -2.282484  4.017901
H    -3.555065  -0.540087  4.104127
H    -1.112778  -2.279330  4.805221
H    -2.458378  -2.154094  5.928568
H    -2.199811  0.343965  6.003382
H    -0.758928  0.228879  4.991113
H    -1.073271  -0.983093  7.679168
H    2.137206  -0.419384  8.624879
H    0.506144  -0.463475  9.179429
H    2.439316  0.421751  6.612662
N    -4.191721  -2.668360  1.290868
C    -3.939824  -3.980047  1.875396
H    -4.965344  -2.592826  0.632380
H    -2.899987  -4.070217  2.206805
H    -4.109718  -4.747505  1.112447
H    -4.608084  -4.182420  2.724337
Pb    2.280040  -0.132550  3.984785
