36
Energy: -611333.940588 eV PBE+vdW (tier 2 basis)
C    -0.628708  -1.456932  -0.254959
C    -0.251862  -0.890864  1.071553
O    0.891218  -0.325247  1.202354
H    -0.626647  -0.639985  -0.991838
H    -1.612528  -1.937323  -0.257247
H    0.133933  -2.176649  -0.580312
N    -1.123106  -0.961319  2.077699
C    -1.055941  -0.280667  3.385017
C    -0.216460  -1.106417  4.376975
O    1.037707  -1.297631  4.124890
H    -2.000506  -1.439732  1.881355
H    -0.480961  0.647832  3.230520
C    -2.473598  0.102953  3.837630
C    -3.534350  -1.024202  3.807177
C    -4.429854  -1.012934  5.057374
N    -3.658446  -1.313650  6.274662
C    -3.474780  -2.630681  6.782933
N    -3.657648  -3.647708  5.859289
N    -2.996594  -2.902562  7.941946
H    -2.801456  0.940601  3.208122
H    -2.385650  0.519258  4.851873
H    -3.068097  -2.021703  3.743921
H    -4.175965  -0.918771  2.920957
H    -5.278163  -1.701169  4.923045
H    -4.874968  -0.017683  5.186376
H    -3.843070  -0.664867  7.035682
H    -3.576981  -4.561121  6.301754
H    -4.475309  -3.589379  5.258864
H    -2.843463  -2.075818  8.525721
N    -0.739692  -1.587227  5.474347
C    0.007226  -2.379666  6.459474
H    -1.737786  -1.386164  5.695029
H    -0.719301  -2.931077  7.065640
H    0.591134  -1.714478  7.109839
H    0.686133  -3.068434  5.948164
Pb    2.532571  -0.461404  2.707660
