36
Energy: -611335.49438 eV PBE+vdW (tier 2 basis)
C    1.067627  -1.122794  1.655612
C    0.096625  -1.015356  2.789546
O    0.256047  -1.735249  3.821208
H    0.847371  -0.451593  0.819051
H    1.061085  -2.159737  1.290984
H    2.082276  -0.923615  2.024404
N    -0.931581  -0.158275  2.646578
C    -2.139241  -0.001857  3.487859
C    -1.820365  0.732712  4.804556
O    -1.125975  0.215543  5.725564
H    -0.943339  0.358335  1.771747
H    -2.798407  0.652429  2.900538
C    -2.845352  -1.354423  3.700313
C    -4.119354  -1.326788  4.565679
C    -4.273386  -2.591769  5.433342
N    -3.187582  -2.677751  6.418128
C    -1.970067  -3.228800  6.239851
N    -1.759498  -4.137139  5.267307
N    -0.898472  -2.871969  6.983048
H    -2.104776  -2.032563  4.130802
H    -3.075711  -1.754429  2.703230
H    -5.015508  -1.219235  3.939407
H    -4.123399  -0.457754  5.243132
H    -4.299714  -3.503138  4.821765
H    -5.223980  -2.569113  5.980118
H    -3.208757  -1.948270  7.125111
H    -0.929830  -4.713280  5.352676
H    -2.525278  -4.525562  4.730424
H    -1.182852  -2.465879  7.879819
N    -2.355721  1.941842  4.945627
C    -2.190767  2.804752  6.115721
H    -2.906277  2.310350  4.174767
H    -3.147168  3.287246  6.342741
H    -1.438994  3.578617  5.913710
H    -1.869408  2.200991  6.967623
Pb    0.613627  -1.352734  6.073501
