36
Energy: -611334.219774 eV PBE+vdW (tier 2 basis)
C    0.063003  -0.858718  1.506917
C    -1.116973  -0.023212  1.865814
O    -1.084172  1.010279  2.501480
H    0.163502  -0.920186  0.413151
H    -0.051580  -1.887342  1.878090
H    0.967799  -0.420830  1.937621
N    -2.473099  -0.433175  1.448068
C    -2.927802  -1.843205  1.309101
C    -2.667214  -2.497909  2.675465
O    -3.061550  -1.818620  3.679788
H    -2.753619  0.135687  0.644102
H    -4.023735  -1.744747  1.398590
C    -2.746941  -2.490796  -0.061334
C    -3.550448  -1.742799  -1.155866
C    -5.052664  -1.459984  -0.860575
N    -5.352722  -0.055459  -0.530344
C    -5.404697  0.540743  0.683045
N    -5.228174  1.899378  0.722290
N    -5.517601  -0.072611  1.858772
H    -3.124121  -3.521461  -0.003997
H    -1.695986  -2.553091  -0.371601
H    -3.486812  -2.348888  -2.068661
H    -3.060458  -0.791911  -1.417880
H    -5.453641  -2.117335  -0.076691
H    -5.645213  -1.689771  -1.753150
H    -5.509362  0.547653  -1.333867
H    -5.786623  2.408373  1.401885
H    -5.041833  2.411569  -0.134810
H    -5.941054  -0.999624  1.807630
N    -2.157834  -3.704015  2.876022
C    -1.566016  -4.674467  1.949245
H    -2.188152  -3.984953  3.857939
H    -1.021473  -4.175465  1.144267
H    -2.331593  -5.338388  1.528497
H    -0.854594  -5.283212  2.515872
Pb    -3.764805  0.442535  3.440070
