36
Energy: -611333.094672 eV PBE+vdW (tier 2 basis)
C    -2.252432  2.220831  0.557551
C    -0.955096  1.931256  1.211823
O    0.102570  2.554575  0.841161
H    -2.978773  2.589498  1.304111
H    -2.701666  1.320142  0.114265
H    -2.113353  2.967464  -0.228095
N    -0.831353  1.046682  2.231154
C    -1.385565  -0.316404  2.276481
C    -0.771180  -1.090186  1.077437
O    0.223395  -0.622742  0.424512
H    0.059314  1.138806  2.718768
H    -0.934095  -0.761422  3.178261
C    -2.915511  -0.431273  2.429243
C    -3.471759  0.414860  3.579799
C    -5.014569  0.407287  3.647682
N    -5.676107  0.761955  2.399160
C    -5.589982  1.958665  1.716424
N    -4.999792  3.015952  2.403389
N    -5.919923  2.151402  0.478680
H    -3.154464  -1.489461  2.624340
H    -3.418042  -0.168979  1.488721
H    -3.119205  1.449854  3.480194
H    -3.090953  0.048747  4.545068
H    -5.331447  1.069959  4.469183
H    -5.377479  -0.592219  3.919475
H    -6.233363  0.048387  1.945928
H    -5.174602  3.895944  1.921231
H    -5.204441  3.082661  3.397788
H    -6.331586  1.324752  0.036722
N    -1.264521  -2.272258  0.760578
C    -0.733146  -3.138282  -0.298636
H    -2.057815  -2.613745  1.296370
H    -1.308919  -4.066992  -0.303046
H    0.321902  -3.365995  -0.107812
H    -0.828408  -2.648271  -1.274718
Pb    1.679848  1.124876  0.019228
