36
Energy: -611335.506289 eV PBE+vdW (tier 2 basis)
C    0.315192  -0.622676  -0.386659
C    -0.259625  0.036933  0.823630
O    0.239240  1.113634  1.257207
H    0.263974  0.079968  -1.229606
H    -0.198688  -1.550326  -0.659594
H    1.378520  -0.832857  -0.211662
N    -1.320783  -0.535905  1.429904
C    -2.023605  0.135760  2.517510
C    -1.315217  -0.053305  3.872587
O    -0.705392  0.948733  4.373096
H    -1.714694  -1.376016  1.015507
H    -1.893114  1.206648  2.313875
C    -3.538146  -0.095107  2.540038
C    -4.225710  0.923318  3.464311
C    -4.088771  2.387434  2.982988
N    -3.479672  3.294670  3.968063
C    -2.522455  4.210114  3.681190
N    -2.609246  5.403561  4.304253
N    -1.522323  3.927156  2.825220
H    -3.800478  -1.116056  2.843621
H    -3.908207  0.029271  1.510610
H    -3.827474  0.837924  4.486563
H    -5.287135  0.657330  3.535216
H    -5.081077  2.786294  2.729454
H    -3.486094  2.466796  2.070462
H    -4.068567  3.523152  4.765243
H    -1.821997  6.040899  4.324569
H    -3.482094  5.743234  4.694294
H    -1.154633  4.797385  2.429847
N    -1.316576  -1.196421  4.542646
C    -1.930734  -2.484389  4.216820
H    -0.808548  -1.151331  5.427229
H    -1.290050  -3.277775  4.615460
H    -2.007096  -2.625411  3.136095
H    -2.924342  -2.574490  4.674295
Pb    0.389791  2.560470  3.122349
