36
Energy: -611334.9048 eV PBE+vdW (tier 2 basis)
C    -1.163525  0.650393  -0.669905
C    -1.132634  0.835330  0.817678
O    -0.353582  -0.039376  1.451631
H    -1.836996  1.363417  -1.152485
H    -1.473826  -0.375902  -0.908969
H    -0.152849  0.775848  -1.081582
N    -1.858197  1.767182  1.356126
C    -1.967337  1.978587  2.806972
C    -0.635228  2.493564  3.366434
O    0.255822  1.716746  3.864658
H    -3.412764  2.536956  0.788040
H    -2.659687  2.826277  2.904937
C    -2.583607  0.834377  3.650776
C    -3.531859  -0.156428  2.946787
C    -4.561995  0.352090  1.924758
N    -5.305775  1.562391  2.299948
C    -5.352247  2.688988  1.563418
N    -6.409180  3.509098  1.694516
N    -4.349374  3.008257  0.739523
H    -3.107429  1.315091  4.489090
H    -1.800147  0.230101  4.132567
H    -4.056161  -0.702977  3.743765
H    -2.946381  -0.916860  2.409756
H    -5.293433  -0.449485  1.747624
H    -4.086572  0.554549  0.961523
H    -6.026475  1.461116  3.008801
H    -6.395714  4.447569  1.313869
H    -7.291408  3.178466  2.067217
H    -4.496944  3.715863  0.029537
N    -0.369636  3.790021  3.326518
C    -1.212724  4.872618  2.814959
H    0.541987  4.049436  3.703736
H    -1.650680  4.595816  1.850260
H    -0.577959  5.750714  2.665161
H    -2.000591  5.133896  3.533280
Pb    0.927815  -0.303223  3.147331
