36
Energy: -611335.598648 eV PBE+vdW (tier 2 basis)
C    -1.118034  -1.865660  -0.624349
C    -0.815227  -1.295028  0.723077
O    0.293218  -0.718899  0.926351
H    -0.388597  -2.655497  -0.850584
H    -0.980669  -1.082654  -1.381840
H    -2.130113  -2.275454  -0.706801
N    -1.752969  -1.401037  1.684464
C    -1.633326  -0.809509  3.019552
C    -0.874261  -1.768123  3.954671
O    0.392928  -1.712172  3.971528
H    -2.608462  -1.899174  1.450599
H    -0.930213  0.014392  2.897074
C    -2.964380  -0.216946  3.519516
C    -3.305767  1.129721  2.846290
C    -2.670639  2.383245  3.495284
N    -1.238537  2.269236  3.811625
C    -0.229806  2.111736  2.926488
N    -0.476175  2.325414  1.616621
N    0.986420  1.661413  3.280532
H    -2.905206  -0.086089  4.610721
H    -3.786770  -0.928879  3.345599
H    -4.392325  1.286356  2.882360
H    -3.056398  1.074003  1.776030
H    -3.165220  2.600117  4.449616
H    -2.850762  3.266980  2.864712
H    -1.006839  2.068589  4.777919
H    0.326697  2.445829  1.009856
H    -1.322593  2.800731  1.325894
H    1.137737  1.746087  4.289435
N    -1.548703  -2.633025  4.697665
C    -0.951811  -3.623941  5.597053
H    -2.564232  -2.607430  4.648244
H    -1.265596  -4.629910  5.294290
H    -1.285150  -3.437941  6.624903
H    0.135954  -3.545599  5.542594
Pb    1.873110  -0.430323  2.614347
