36
Energy: -611333.910757 eV PBE+vdW (tier 2 basis)
C    0.722340  2.584054  1.075542
C    0.414659  1.352678  1.856527
O    1.268873  0.395047  1.865198
H    1.650199  3.022322  1.472041
H    -0.074465  3.333664  1.118008
H    0.921604  2.316972  0.029227
N    -0.722379  1.288195  2.547642
C    -1.133075  0.272082  3.540296
C    -1.780697  -0.905970  2.787873
O    -1.020919  -1.670028  2.066143
H    -1.342506  2.093965  2.474226
H    -0.214295  -0.122733  4.005516
C    -1.989314  0.984668  4.593074
C    -2.472220  0.119953  5.779975
C    -3.970723  0.305745  6.060021
N    -4.792467  -0.109172  4.899239
C    -5.555365  0.773795  4.069028
N    -5.154323  2.106987  4.099172
N    -6.422679  0.385372  3.214740
H    -2.853594  1.445210  4.083023
H    -1.387375  1.822469  4.971366
H    -1.904832  0.373286  6.684867
H    -2.282373  -0.949905  5.601103
H    -4.179020  1.345956  6.342002
H    -4.260916  -0.301165  6.926523
H    -5.347889  -0.936439  5.107929
H    -5.764617  2.661640  3.500181
H    -5.075445  2.530045  5.021318
H    -6.591058  -0.624194  3.225946
N    -3.067767  -1.111520  2.856134
C    -3.792711  -2.144817  2.118128
H    -3.648042  -0.596485  3.580267
H    -3.140641  -2.622495  1.384693
H    -4.645259  -1.672771  1.615040
H    -4.169434  -2.899914  2.820318
Pb    1.152665  -1.817680  1.653169
