36
Energy: -611333.349764 eV PBE+vdW (tier 2 basis)
C    -1.007318  -1.034232  0.445134
C    -1.103978  -0.888658  1.905142
O    -0.161046  -1.317216  2.677192
H    -1.098379  -0.064051  -0.066868
H    -1.890991  -1.624741  0.073354
H    -0.061875  -1.506078  0.168027
N    -2.177883  -0.313582  2.495374
C    -2.783807  0.923232  2.009585
C    -1.691143  2.005942  2.066843
O    -0.650386  1.858399  2.813799
H    -2.225857  -0.451948  3.506362
H    -3.121778  0.782724  0.964668
C    -3.993445  1.334596  2.880579
C    -5.153708  0.332158  3.009815
C    -5.968659  -0.016537  1.742246
N    -5.476688  -1.168909  0.994523
C    -4.514906  -1.182627  0.017761
N    -4.316141  0.031707  -0.664166
N    -3.752269  -2.178593  -0.307103
H    -4.381535  2.281890  2.480614
H    -3.626133  1.572480  3.893182
H    -5.846519  0.780040  3.737228
H    -4.811877  -0.604694  3.476841
H    -6.051359  0.855221  1.079442
H    -6.996022  -0.250265  2.049548
H    -5.641931  -2.070913  1.429903
H    -5.180380  0.527299  -0.880493
H    -3.801866  -0.156032  -1.524369
H    -3.922163  -3.009978  0.265919
N    -1.804074  3.119143  1.367273
C    -2.871555  3.517596  0.446120
H    -1.052359  3.795034  1.513826
H    -3.416782  2.640350  0.085798
H    -2.416231  4.025631  -0.410653
H    -3.563310  4.211777  0.940586
Pb    0.727258  0.377274  3.867008
