36
Energy: -611335.297708 eV PBE+vdW (tier 2 basis)
C    -1.154106  1.239603  -0.970519
C    -1.077555  0.167888  0.062616
O    0.043342  -0.173078  0.553217
H    -1.140367  2.227153  -0.482337
H    -2.043545  1.166786  -1.604314
H    -0.249647  1.187641  -1.588646
N    -2.195093  -0.454112  0.503727
C    -3.451740  0.219736  0.795741
C    -3.208583  1.178875  1.988648
O    -2.167160  1.097300  2.709214
H    -2.040379  -1.307594  1.052787
H    -3.740885  0.824215  -0.076448
C    -4.569961  -0.820437  1.057312
C    -4.713102  -1.435101  2.465401
C    -3.473076  -1.938606  3.211478
N    -2.613140  -2.828987  2.399347
C    -1.340272  -3.157073  2.798430
N    -0.941654  -4.426273  2.603548
N    -0.540070  -2.224183  3.311244
H    -4.429845  -1.605362  0.300253
H    -5.534810  -0.357881  0.810107
H    -5.441283  -2.254793  2.374419
H    -5.191130  -0.711090  3.141818
H    -3.804112  -2.470200  4.117092
H    -2.856353  -1.103085  3.550506
H    -3.116048  -3.594586  1.953458
H    0.035839  -4.686037  2.675202
H    -1.601831  -5.182398  2.457897
H    0.282261  -2.649517  3.745903
N    -4.137428  2.087730  2.244085
C    -4.065719  3.053157  3.346321
H    -4.944180  2.134568  1.627232
H    -4.986383  3.641846  3.349369
H    -3.208240  3.723203  3.211828
H    -3.965373  2.530286  4.304205
Pb    -0.011447  0.046592  2.893489
