36
Energy: -611333.745295 eV PBE+vdW (tier 2 basis)
C    -0.636495  1.245251  0.128745
C    -0.589489  1.393103  1.611937
O    0.108069  2.330164  2.123177
H    -1.032685  2.176492  -0.301369
H    -1.255493  0.405747  -0.204018
H    0.384034  1.126212  -0.258873
N    -1.303264  0.551123  2.369096
C    -1.545303  0.663231  3.819616
C    -0.338452  0.083123  4.584905
O    0.696538  0.806209  4.780561
H    -1.846743  -0.155174  1.876245
H    -1.559015  1.737640  4.064848
C    -2.920425  0.070514  4.151687
C    -3.418612  0.382230  5.569783
C    -4.824904  -0.194318  5.859460
N    -5.864881  0.287770  4.965639
C    -6.129182  -0.206233  3.695796
N    -5.817981  -1.546063  3.497274
N    -6.571465  0.482793  2.694634
H    -2.943115  -1.016363  3.955800
H    -3.625989  0.498416  3.423678
H    -3.445981  1.474477  5.712062
H    -2.731990  -0.012664  6.335786
H    -5.106766  0.071271  6.886839
H    -4.792186  -1.290422  5.823765
H    -6.193551  1.234874  5.124620
H    -6.163098  -1.861247  2.592933
H    -6.093811  -2.177798  4.245661
H    -6.745079  1.466111  2.921134
N    -0.385459  -1.162009  5.015602
C    0.684423  -1.868810  5.723246
H    -1.249980  -1.673355  4.849606
H    0.291919  -2.266049  6.666490
H    1.503197  -1.176167  5.927236
H    1.046176  -2.700982  5.106772
Pb    1.428265  2.768308  3.895215
