36
Energy: -611333.668897 eV PBE+vdW (tier 2 basis)
C    -0.924297  0.378141  -0.521679
C    -0.978808  -0.110826  0.885054
O    -0.104327  -0.946571  1.291249
H    0.042735  0.874835  -0.685304
H    -1.732371  1.074575  -0.768040
H    -0.959602  -0.480427  -1.205777
N    -1.935698  0.346114  1.702437
C    -2.010285  0.037344  3.135421
C    -2.402827  -1.440787  3.347593
O    -1.488126  -2.250225  3.766957
H    -2.580395  1.040217  1.330183
H    -0.982218  0.101515  3.527694
C    -2.858481  1.063489  3.902194
C    -2.659618  0.975783  5.426103
C    -3.738341  1.728183  6.240741
N    -4.981199  0.981082  6.409016
C    -5.901359  0.724327  5.407360
N    -6.060033  1.728083  4.460000
N    -6.567099  -0.377910  5.255089
H    -3.921327  0.971327  3.646313
H    -2.546106  2.062179  3.559073
H    -1.671567  1.384409  5.688312
H    -2.659686  -0.074611  5.761154
H    -3.942518  2.711365  5.795233
H    -3.349188  1.929725  7.246238
H    -4.949715  0.258982  7.122345
H    -6.899777  1.576122  3.905957
H    -6.011240  2.679770  4.815390
H    -6.367370  -1.064663  5.987641
N    -3.607191  -1.923254  3.120723
C    -4.833378  -1.291757  2.622579
H    -3.687278  -2.920256  3.333140
H    -5.317931  -2.001050  1.942460
H    -4.608649  -0.377517  2.070117
H    -5.522114  -1.068009  3.460204
Pb    0.569454  -2.420310  2.872333
