36
Energy: -611334.788614 eV PBE+vdW (tier 2 basis)
C    -0.554674  0.671616  2.440522
C    -1.695087  1.276389  3.051746
O    -1.503011  2.015506  4.100104
H    -4.115116  3.462882  -3.305111
H    -0.639459  -0.066198  1.645608
H    0.320778  1.321307  2.377013
N    -3.019192  0.992583  2.760881
C    -3.472489  -0.308717  2.261697
C    -2.913455  -1.462037  3.150488
O    -2.213312  -1.242579  4.174839
H    -3.600199  1.362418  3.513757
H    -4.556366  -0.328014  2.464241
C    -3.284054  -0.470719  0.733523
C    -4.427259  0.106977  -0.118898
C    -4.745278  1.599865  0.052983
N    -3.632084  2.509319  -0.242036
C    -3.437934  3.179901  -1.386586
N    -2.569383  4.202677  -1.415583
N    -4.090733  2.841153  -2.505292
H    -3.182985  -1.533587  0.475326
H    -2.329322  -0.015041  0.440298
H    -5.360269  -0.439104  0.091754
H    -4.192585  -0.102578  -1.173822
H    -5.060899  1.822061  1.080213
H    -5.596655  1.876927  -0.583248
H    -2.987252  2.698182  0.519439
H    -2.263034  4.606937  -2.292785
H    -2.285597  4.676753  -0.566857
H    -4.593387  1.967200  -2.586314
N    -3.281362  -2.703432  2.843367
C    -2.914412  -3.875692  3.643115
H    -3.901388  -2.849139  2.053525
H    -3.373047  -4.759093  3.191870
H    -3.274171  -3.763635  4.672673
H    -1.825702  -4.003376  3.656808
Pb    -0.331325  0.109143  4.847420
