36
Energy: -611335.049558 eV PBE+vdW (tier 2 basis)
C    0.061662  -0.233088  0.919960
C    -1.100527  -0.541645  1.798849
O    -0.954021  -1.261252  2.836106
H    0.636205  0.604199  1.347272
H    -0.226545  0.017366  -0.105898
H    0.733034  -1.100436  0.916893
N    -2.335066  -0.068089  1.513122
C    -2.627927  1.282154  1.047624
C    -2.253754  2.257278  2.192426
O    -1.980621  1.826072  3.354629
H    -3.061660  -0.469328  2.102429
H    -1.966559  1.499253  0.196311
C    -4.097383  1.363289  0.536758
C    -5.238619  1.819563  1.467836
C    -5.390899  1.194705  2.863484
N    -5.385599  -0.271990  2.882891
C    -4.591888  -1.022818  3.683963
N    -4.439859  -2.332214  3.394511
N    -3.877240  -0.509980  4.698036
H    -4.315297  0.366878  0.126992
H    -4.118413  2.033063  -0.331755
H    -6.170775  1.677138  0.901482
H    -5.177812  2.904820  1.639581
H    -6.321862  1.565409  3.315876
H    -4.571250  1.526531  3.509610
H    -6.099536  -0.748090  2.335810
H    -4.134661  -2.956211  4.133304
H    -4.887608  -2.759597  2.591062
H    -4.323908  0.332359  5.068118
N    -2.207593  3.561553  1.944415
C    -2.448264  4.261754  0.680392
H    -1.958817  4.135767  2.749870
H    -3.513303  4.490244  0.545505
H    -2.088427  3.674370  -0.171045
H    -1.890973  5.203067  0.699587
Pb    -1.577977  -0.112848  4.783266
