36
Energy: -611335.829439 eV PBE+vdW (tier 2 basis)
C    -0.615130  1.469568  1.739849
C    -0.557613  0.350273  2.726045
O    0.053208  0.503909  3.827406
H    -1.001347  2.366842  2.241955
H    -1.235184  1.247648  0.865051
H    0.405095  1.709020  1.409405
N    -1.183877  -0.802854  2.430765
C    -1.305129  -1.922939  3.366888
C    -0.153014  -2.910775  3.147820
O    0.964781  -2.638335  3.683284
H    -1.654931  -0.867907  1.531135
H    -1.073242  -1.500009  4.346705
C    -2.746289  -2.442569  3.465226
C    -3.664420  -1.448253  4.205344
C    -3.457413  -1.342186  5.727355
N    -2.134659  -0.821443  6.106223
C    -1.251349  -1.382731  6.964008
N    -1.715551  -2.238951  7.897886
N    0.051654  -1.098775  6.836246
H    -2.736540  -3.404049  4.001062
H    -3.162310  -2.647753  2.465693
H    -4.707847  -1.757679  4.055449
H    -3.592416  -0.448414  3.747939
H    -3.564210  -2.336272  6.180966
H    -4.244587  -0.702242  6.151047
H    -1.821782  0.044952  5.677542
H    -1.068557  -2.772447  8.466417
H    -2.667638  -2.172451  8.241081
H    0.566990  -1.317066  7.692075
N    -0.336770  -3.993178  2.408109
C    0.688313  -4.994314  2.102843
H    -1.264689  -4.147187  2.021060
H    0.880326  -5.009418  1.023179
H    0.339509  -5.983900  2.419721
H    1.606802  -4.737424  2.634745
Pb    1.562657  -0.788268  5.062497
