36
Energy: -611335.578676 eV PBE+vdW (tier 2 basis)
C    -1.208316  2.174624  0.841391
C    -1.167164  0.921181  1.660131
O    -0.737328  -0.148757  1.135659
H    -1.617170  3.039447  1.373966
H    -1.816577  1.985252  -0.053926
H    -0.194930  2.411647  0.491140
N    -1.617826  0.993954  2.921896
C    -1.895374  -0.030188  3.951100
C    -0.644398  -0.698014  4.525188
O    0.286372  -1.166321  3.806195
H    -1.931174  1.922378  3.190503
H    -2.317948  0.576635  4.759994
C    -3.008360  -1.074595  3.619131
C    -2.635940  -2.450788  3.039749
C    -2.710761  -2.567213  1.510451
N    -2.364588  -3.900975  1.042123
C    -1.126953  -4.348616  0.760333
N    -1.025632  -5.619875  0.312474
N    -0.033535  -3.584313  0.907285
H    -3.747770  -0.564968  2.983320
H    -3.525144  -1.247472  4.572673
H    -3.340492  -3.182290  3.460241
H    -1.645271  -2.774742  3.389769
H    -2.070656  -1.839387  1.003036
H    -3.735319  -2.364690  1.169829
H    -3.114622  -4.582674  1.006212
H    -0.124538  -6.039328  0.124716
H    -1.838986  -6.158375  0.039191
H    0.773013  -4.090281  0.533912
N    -0.564758  -0.835982  5.846220
C    -1.480675  -0.354445  6.886044
H    0.266355  -1.337293  6.158813
H    -2.468172  -0.824488  6.803567
H    -1.057410  -0.628146  7.856333
H    -1.577947  0.738075  6.858679
Pb    0.976185  -1.600711  1.614378
