36
Energy: -611334.807166 eV PBE+vdW (tier 2 basis)
C    -0.160900  0.579255  0.033833
C    -0.062005  0.452846  1.525235
O    0.975404  0.712201  2.151100
H    -0.078015  1.643732  -0.226813
H    -1.094730  0.186300  -0.383312
H    0.692880  0.069866  -0.427847
N    -1.186972  0.030544  2.194314
C    -1.323170  0.165356  3.645409
C    -0.529633  -0.923344  4.413495
O    -1.098970  -1.713705  5.262697
H    -2.020281  -0.163158  1.650179
H    -0.837189  1.116776  3.924858
C    -2.792895  0.238895  4.065938
C    -3.648749  -0.995311  3.718852
C    -4.772871  -1.222540  4.738805
N    -5.410673  -2.518773  4.656927
C    -4.856062  -3.686710  5.063416
N    -5.502693  -4.821030  4.739939
N    -3.715667  -3.700509  5.764506
H    -3.226846  1.148919  3.629408
H    -2.810820  0.424221  5.153862
H    -3.026512  -1.898270  3.670663
H    -4.114729  -0.886950  2.729271
H    -5.557639  -0.460169  4.647131
H    -4.394775  -1.058005  5.782362
H    -6.372882  -2.545757  4.337748
H    -5.242742  -5.710741  5.148010
H    -6.285472  -4.828565  4.096022
H    -3.382709  -4.654666  5.911894
N    0.751855  -0.993150  4.168302
C    1.679992  -1.936449  4.784072
H    1.081367  -0.297054  3.440682
H    1.333976  -2.967740  4.644636
H    1.783759  -1.732641  5.857737
H    2.655473  -1.816476  4.306125
Pb    -2.468105  -2.147039  6.940272
