36
Energy: -611334.979654 eV PBE+vdW (tier 2 basis)
C    -0.022507  -0.126674  0.073774
C    -0.063432  0.072830  1.558247
O    0.948848  0.410506  2.201852
H    -1.008106  -0.272110  -0.381426
H    0.596250  -1.010659  -0.137083
H    0.477355  0.731136  -0.390918
N    -1.266581  -0.129696  2.179146
C    -1.481703  -0.273223  3.624473
C    -1.172362  0.998178  4.428229
O    -2.065358  1.356440  5.296214
H    -2.053098  -0.377589  1.588131
H    -2.564973  -0.412841  3.736544
C    -0.740013  -1.527399  4.175982
C    -0.732436  -1.807211  5.687782
C    -2.067851  -2.143923  6.380024
N    -2.817524  -0.939595  6.759436
C    -3.060467  -0.479848  7.991960
N    -3.113023  -1.318338  9.038712
N    -3.256826  0.856128  8.160344
H    0.306519  -1.458534  3.850282
H    -1.173277  -2.388455  3.646128
H    -0.236254  -0.993741  6.241424
H    -0.080487  -2.681919  5.824069
H    -1.855790  -2.719479  7.288462
H    -2.700719  -2.776695  5.741042
H    -2.899033  -0.224766  6.039041
H    -3.170388  -0.969730  9.987911
H    -3.206933  -2.319724  8.912717
H    -3.719317  1.068033  9.047018
N    -0.034447  1.612598  4.252256
C    0.372524  2.816395  4.956210
H    0.567387  1.169888  3.465908
H    -0.319220  3.647913  4.757843
H    1.367357  3.108994  4.607899
H    0.443615  2.634947  6.042611
Pb    -2.567878  2.694060  7.043190
