36
Energy: -611333.830507 eV PBE+vdW (tier 2 basis)
C    -1.099778  -0.810453  -0.427165
C    -0.655825  -0.569106  0.964503
O    0.568359  -0.783143  1.303262
H    -0.326014  -0.513848  -1.143275
H    -2.068301  -0.343102  -0.648241
H    -1.231978  -1.901656  -0.531730
N    -1.514907  -0.143632  1.910115
C    -2.449344  0.964818  1.726543
C    -1.612079  2.234884  1.588112
O    -0.352905  2.254623  1.906443
H    -1.183956  -0.270970  2.870362
H    -3.056930  0.822125  0.781158
C    -3.421169  1.036641  2.920429
C    -4.370824  -0.161201  3.063187
C    -5.459273  -0.308884  1.980834
N    -5.116824  -1.152132  0.838098
C    -4.841479  -0.671524  -0.413771
N    -5.071928  -1.553242  -1.438384
N    -4.315078  0.523275  -0.548308
H    -4.013501  1.956966  2.831160
H    -2.835559  1.151536  3.849198
H    -4.874954  -0.037052  4.032307
H    -3.808346  -1.103931  3.140850
H    -5.763018  0.675296  1.598580
H    -6.346009  -0.753661  2.450925
H    -5.415039  -2.119200  0.892816
H    -5.825878  -2.227997  -1.358477
H    -4.890055  -1.239892  -2.384274
H    -4.283832  0.807143  -1.529771
N    -2.146322  3.354899  1.144708
C    -3.520388  3.597034  0.690620
H    -1.512809  4.155671  1.136457
H    -4.011077  2.654079  0.422827
H    -3.476494  4.237979  -0.196695
H    -4.086757  4.120323  1.471991
Pb    1.500302  1.042015  2.271945
