36
Energy: -611335.238793 eV PBE+vdW (tier 2 basis)
C    -1.455010  -0.370549  0.217025
C    -0.968547  -0.126138  1.614852
O    0.354427  0.009393  1.691927
H    -0.999595  0.366169  -0.457181
H    -2.542892  -0.298639  0.139370
H    -1.126706  -1.360574  -0.129221
N    -1.811611  -0.028537  2.601533
C    -1.322457  0.344389  3.934349
C    -0.878375  -0.926458  4.666521
O    0.274441  -1.437451  4.432961
H    -3.683104  -0.509198  2.168280
H    -0.392799  0.940161  3.851329
C    -2.332937  1.234887  4.692877
C    -3.822401  0.870637  4.552135
C    -4.471281  1.562186  3.335243
N    -5.714249  0.930609  2.896699
C    -5.755434  -0.191415  2.163600
N    -6.940305  -0.680275  1.762523
N    -4.619553  -0.822303  1.843166
H    -2.184738  2.263719  4.333488
H    -2.041688  1.266976  5.752704
H    -4.364119  1.165346  5.460752
H    -3.961001  -0.217243  4.452328
H    -3.774060  1.580620  2.486939
H    -4.705484  2.607053  3.570849
H    -6.594094  1.329561  3.204492
H    -7.007304  -1.549627  1.248884
H    -7.797697  -0.154940  1.881130
H    -4.651356  -1.613075  1.212016
N    -1.672738  -1.527614  5.533985
C    -1.329351  -2.758898  6.251759
H    -2.568321  -1.093049  5.731982
H    -2.146409  -2.998378  6.936750
H    -0.405055  -2.618910  6.824173
H    -1.189765  -3.586633  5.546562
Pb    1.885522  -0.742003  2.996167
