36
Energy: -611333.643676 eV PBE+vdW (tier 2 basis)
C    -0.249165  0.162532  0.712633
C    -0.943238  0.530152  1.977120
O    -0.336290  1.300100  2.819579
H    -0.933516  0.095022  -0.137537
H    0.531177  0.904107  0.511844
H    0.245725  -0.815810  0.829428
N    -2.159017  0.069352  2.299474
C    -2.611077  -1.319365  2.117327
C    -1.703663  -2.198961  2.939321
O    -0.723292  -1.702817  3.646171
H    -2.590886  0.548121  3.092530
H    -3.659647  -1.352089  2.651194
C    -2.929086  -1.744595  0.667383
C    -3.753505  -0.714893  -0.118624
C    -5.062330  -0.238713  0.534493
N    -5.984094  -1.293905  0.929288
C    -6.178984  -1.672987  2.228512
N    -7.331425  -2.368269  2.468633
N    -5.259569  -1.412503  3.130787
H    -3.511840  -2.671258  0.720960
H    -2.017313  -1.993854  0.107399
H    -3.974733  -1.164640  -1.097386
H    -3.158656  0.186202  -0.334112
H    -5.577580  0.421241  -0.176745
H    -4.859446  0.365020  1.428987
H    -6.667767  -1.600476  0.247445
H    -7.524914  -2.673210  3.414204
H    -8.151899  -2.204004  1.895490
H    -5.572671  -1.627773  4.077365
N    -1.896597  -3.503212  3.066578
C    -2.982736  -4.349096  2.559317
H    -1.205231  -3.963729  3.657228
H    -2.761379  -4.714836  1.549201
H    -3.930264  -3.801658  2.571341
H    -3.068914  -5.209708  3.229725
Pb    0.276047  0.059364  4.591487
