36
Energy: -611334.947942 eV PBE+vdW (tier 2 basis)
C    0.454769  0.911245  0.921881
C    0.165546  0.623831  2.356561
O    1.177349  0.548085  3.161775
H    1.007311  0.068838  0.481813
H    1.119086  1.783312  0.865135
H    -0.443921  1.099149  0.328172
N    -1.050660  0.444372  2.821169
C    -2.348959  0.371349  2.155602
C    -3.332877  0.509035  3.352810
O    -2.891757  0.261777  4.491189
H    -1.226957  0.302017  3.838157
H    -2.458978  1.210955  1.456687
C    -2.575716  -0.960753  1.397266
C    -2.723525  -2.245641  2.236414
C    -1.448336  -3.029895  2.586588
N    -0.523360  -2.406780  3.546073
C    -0.688443  -2.299031  4.874184
N    -1.730762  -2.893404  5.468505
N    0.213391  -1.588871  5.595312
H    -1.776408  -1.079260  0.649727
H    -3.497212  -0.831385  0.813688
H    -3.329627  -2.949096  1.647577
H    -3.312394  -2.045173  3.143503
H    -0.857267  -3.209697  1.679664
H    -1.724850  -4.032229  2.950567
H    0.399768  -2.166653  3.206527
H    -1.984088  -2.670409  6.423293
H    -2.332585  -3.540348  4.973658
H    0.149157  -1.823047  6.588871
N    -4.608162  0.836076  3.118401
C    -5.261043  1.180264  1.856965
H    -5.185376  0.856382  3.957632
H    -4.542573  1.587535  1.138451
H    -6.010717  1.954905  2.049158
H    -5.764415  0.310726  1.413436
Pb    1.677539  0.128725  5.299078
