36
Energy: -611335.056101 eV PBE+vdW (tier 2 basis)
C    -0.802535  -0.428058  0.948199
C    -0.481650  -0.105772  2.377818
O    0.774634  -0.388846  2.713639
H    -0.607631  -1.491244  0.752366
H    -0.137291  0.140385  0.284287
H    -1.840145  -0.190503  0.699844
N    -1.410206  0.378714  3.147637
C    -1.178907  0.673858  4.569845
C    -0.004081  1.631241  4.794272
O    1.143269  1.231790  5.218614
H    -3.209377  -0.106098  2.851435
H    -2.064987  1.244824  4.891314
C    -1.146423  -0.572409  5.478773
C    -2.520805  -1.263734  5.552370
C    -2.847767  -2.197006  4.361445
N    -4.267439  -2.231366  4.016057
C    -4.879033  -1.355775  3.202257
N    -6.186575  -1.518214  2.936022
N    -4.209851  -0.332608  2.660190
H    -0.855956  -0.256241  6.490250
H    -0.384072  -1.296181  5.147240
H    -3.300888  -0.491044  5.627556
H    -2.582498  -1.839140  6.484934
H    -2.551019  -3.228450  4.586028
H    -2.293576  -1.907655  3.461550
H    -4.854048  -2.904648  4.497050
H    -6.702264  -0.841301  2.388397
H    -6.686516  -2.352223  3.217755
H    -4.670198  0.230124  1.954899
N    -0.173245  2.923814  4.572952
C    -1.388027  3.608298  4.123638
H    0.641999  3.504173  4.772556
H    -1.092647  4.553624  3.658762
H    -2.049635  3.828097  4.971968
H    -1.911596  3.002505  3.377790
Pb    2.374352  -0.290106  4.137865
