36
Energy: -611334.128163 eV PBE+vdW (tier 2 basis)
C    -0.204998  2.109180  0.994268
C    -0.247141  0.807156  1.722688
O    0.680003  -0.049010  1.480563
H    -1.047273  2.761692  1.244748
H    -0.194740  1.913528  -0.086814
H    0.736348  2.624434  1.230029
N    -1.240491  0.588498  2.575616
C    -1.578853  -0.644036  3.322718
C    -0.573426  -0.878903  4.452484
O    0.561364  -1.454840  4.230330
H    -1.961084  1.331021  2.642780
H    -2.539216  -0.388611  3.796502
C    -1.831323  -1.902955  2.471410
C    -2.760251  -1.772316  1.248202
C    -4.231886  -1.350234  1.476504
N    -4.431086  0.087829  1.592047
C    -4.344142  0.789975  2.765815
N    -3.886385  2.116549  2.617794
N    -4.474110  0.337880  3.971356
H    -2.225292  -2.665477  3.161298
H    -0.883423  -2.336462  2.092597
H    -2.775870  -2.764930  0.774815
H    -2.313373  -1.097010  0.502455
H    -4.658276  -1.856021  2.353447
H    -4.823056  -1.699419  0.620803
H    -4.445710  0.607324  0.720867
H    -4.179662  2.692151  3.407200
H    -4.138146  2.568841  1.739843
H    -4.870362  -0.605105  3.985855
N    -0.841352  -0.518536  5.690157
C    -2.017278  0.138184  6.272439
H    -0.088732  -0.735870  6.348794
H    -2.419595  -0.505779  7.064103
H    -2.801779  0.326951  5.528341
H    -1.699387  1.087258  6.721882
Pb    1.719920  -1.797071  2.368509
