36
Energy: -611334.165788 eV PBE+vdW (tier 2 basis)
C    1.267573  -0.895272  0.505780
C    0.879020  -0.385359  1.842375
O    1.808781  -0.016707  2.663796
H    2.263732  -0.528938  0.240737
H    0.522811  -0.604924  -0.262668
H    1.307455  -1.995485  0.544314
N    -0.408397  -0.332501  2.176579
C    -0.915068  0.117865  3.475490
C    -0.390141  -0.781941  4.618150
O    0.554463  -0.366882  5.383072
H    -1.137772  -0.383045  1.395356
H    -0.513394  1.123476  3.693587
C    -2.455286  0.203286  3.500805
C    -3.127632  1.138498  2.473180
C    -3.589752  0.442694  1.185241
N    -2.476682  0.031070  0.314375
C    -1.878168  0.937757  -0.625087
N    -2.335344  2.232334  -0.589959
N    -0.915326  0.450247  -1.319470
H    -2.722280  0.530067  4.515396
H    -2.887283  -0.805203  3.386319
H    -2.478003  1.993095  2.231158
H    -4.018499  1.567867  2.951110
H    -4.317830  1.081888  0.661060
H    -4.147244  -0.468767  1.441418
H    -2.655031  -0.844850  -0.175494
H    -1.949830  2.857380  -1.290419
H    -3.313986  2.411486  -0.389384
H    -0.566562  1.094064  -2.033131
N    -0.939195  -1.962159  4.815632
C    -0.567859  -2.926871  5.853770
H    -1.712467  -2.219464  4.205139
H    -0.125788  -3.817789  5.390388
H    -1.468618  -3.221049  6.404591
H    0.145814  -2.467312  6.540136
Pb    2.448796  0.591657  4.671819
