36
Energy: -611334.179161 eV PBE+vdW (tier 2 basis)
C    0.229974  1.228786  -0.000760
C    -0.194941  0.458948  1.199764
O    0.664781  -0.234765  1.851277
H    0.751788  2.148900  0.307146
H    -0.604838  1.489318  -0.658050
H    0.963565  0.626737  -0.552535
N    -1.468694  0.492828  1.634724
C    -2.184864  1.765449  1.815057
C    -1.536441  2.527363  2.993296
O    -0.816980  1.779880  3.859734
H    -1.654518  -0.183706  2.375383
H    -2.052930  2.354718  0.898246
C    -3.699719  1.558615  2.020421
C    -4.172219  0.834761  3.293551
C    -4.056631  1.557333  4.644131
N    -4.850731  2.796252  4.711035
C    -4.526801  3.896090  5.426101
N    -5.514646  4.646822  5.938735
N    -3.250198  4.244389  5.611615
H    -4.068416  1.001090  1.148067
H    -4.175415  2.547047  1.963973
H    -3.667280  -0.137571  3.414149
H    -5.226810  0.562065  3.133764
H    -3.021565  1.803445  4.894457
H    -4.416165  0.872308  5.428228
H    -5.842502  2.690565  4.511811
H    -5.343740  5.593285  6.258310
H    -6.448974  4.278380  6.073266
H    -3.037166  4.993109  6.261217
N    -1.715214  3.764828  3.251867
C    -2.404864  4.666239  2.338596
H    -2.518052  4.010126  4.907370
H    -1.913941  5.645236  2.388693
H    -3.450078  4.815740  2.650915
H    -2.413113  4.342725  1.286698
Pb    0.874738  0.439603  4.039641
