36
Energy: -611333.479485 eV PBE+vdW (tier 2 basis)
C    -0.745140  0.054332  -0.279447
C    -0.651641  -0.097389  1.187073
O    0.392571  -0.631535  1.721994
H    0.187157  0.466659  -0.685939
H    -1.634380  0.619455  -0.604509
H    -0.825110  -0.966758  -0.694125
N    -1.649379  0.295946  2.009574
C    -2.315072  1.600368  1.921293
C    -1.241621  2.662162  2.170494
O    -0.100020  2.368578  2.705301
H    -1.576056  -0.073405  2.960557
H    -2.707213  1.733086  0.878517
C    -3.465978  1.697575  2.973174
C    -4.916830  1.612046  2.470919
C    -5.363616  0.309936  1.788368
N    -4.727361  0.064238  0.486039
C    -4.738653  1.052252  -0.494464
N    -5.979843  1.457073  -0.882341
N    -3.593922  1.527932  -0.908273
H    -3.359002  2.646465  3.517342
H    -3.290932  0.916688  3.732677
H    -5.127684  2.457164  1.797550
H    -5.560271  1.771758  3.349240
H    -6.454278  0.336740  1.668140
H    -5.153477  -0.565008  2.418709
H    -3.810285  -0.363653  0.551755
H    -6.068463  2.164214  -1.602007
H    -6.753808  0.805628  -0.806973
H    -3.689277  2.106917  -1.747523
N    -1.470220  3.918309  1.843180
C    -2.678823  4.480169  1.231178
H    -0.723560  4.572515  2.081198
H    -3.170602  3.731111  0.601482
H    -2.381498  5.327631  0.605853
H    -3.371231  4.835725  2.005155
Pb    1.408343  0.759789  3.178525
