36
Energy: -611335.739164 eV PBE+vdW (tier 2 basis)
C    -0.098812  1.884315  2.533897
C    -0.245464  0.792673  3.544543
O    0.284407  0.916701  4.685627
H    -0.408917  2.834770  2.986935
H    -0.675807  1.712006  1.619324
H    0.963935  1.988892  2.274842
N    -0.958380  -0.298716  3.204355
C    -1.230199  -1.412581  4.114609
C    -0.044403  -2.393543  4.132522
O    0.878878  -2.214753  4.987567
H    -1.338621  -0.338262  2.261864
H    -1.206885  -0.980608  5.120074
C    -2.626466  -2.016415  3.914239
C    -3.747530  -1.209059  4.593703
C    -3.717930  -1.204209  6.144686
N    -3.180109  0.014579  6.765197
C    -1.929445  0.241863  7.217605
N    -1.587509  1.524873  7.518186
N    -0.976956  -0.686705  7.329170
H    -2.629061  -3.036421  4.327492
H    -2.855761  -2.124561  2.841629
H    -4.703642  -1.647540  4.279052
H    -3.760838  -0.172122  4.226426
H    -3.182797  -2.081724  6.534096
H    -4.741904  -1.302672  6.523429
H    -3.860215  0.750757  6.932108
H    -0.950298  1.667403  8.294465
H    -2.242409  2.282014  7.354736
H    -1.336969  -1.641206  7.352753
N    0.000513  -3.387906  3.259726
C    1.080275  -4.372277  3.148916
H    -0.786858  -3.493962  2.624611
H    0.700657  -5.369378  3.402815
H    1.884223  -4.099974  3.835765
H    1.458653  -4.382959  2.120290
Pb    1.183806  -0.376623  6.420806
