36
Energy: -611334.823089 eV PBE+vdW (tier 2 basis)
C    0.359162  0.176359  -2.064832
C    0.858911  0.847970  -0.902166
O    2.051237  1.356412  -0.973616
H    -3.876008  3.838351  0.109518
H    -0.570125  -0.389536  -2.050416
H    0.561573  0.703022  -2.999775
N    0.297563  0.819841  0.351533
C    -0.534362  -0.262650  0.863911
C    0.164202  -1.640437  0.643008
O    1.303748  -1.739584  0.120309
H    0.958636  1.195049  1.030111
H    -0.525805  -0.126671  1.957846
C    -2.016253  -0.171933  0.425796
C    -2.664355  1.134163  0.907202
C    -4.171739  1.248811  0.635113
N    -4.543927  1.495992  -0.765952
C    -4.848216  2.690227  -1.297454
N    -5.483367  2.748626  -2.477594
N    -4.518948  3.826576  -0.671181
H    -2.569982  -1.023237  0.850461
H    -2.094360  -0.268227  -0.665941
H    -2.131262  1.991843  0.470242
H    -2.536474  1.218359  1.997959
H    -4.605019  2.053606  1.244140
H    -4.692854  0.331466  0.942472
H    -4.690474  0.689287  -1.363045
H    -5.561425  3.619372  -2.990000
H    -5.996782  1.954885  -2.841663
H    -4.924303  4.712766  -0.949083
N    -0.456466  -2.724285  1.108272
C    0.128050  -4.067002  1.061745
H    -1.334947  -2.611018  1.602081
H    -0.597214  -4.774945  1.470912
H    1.049918  -4.106637  1.654739
H    0.359077  -4.345118  0.027313
Pb    2.595464  -0.805082  -1.720250
