36
Energy: -611334.190626 eV PBE+vdW (tier 2 basis)
C    1.447200  -1.377400  0.993345
C    0.934297  -0.864803  2.288856
O    1.798950  -0.432844  3.157559
H    1.852031  -0.525456  0.424566
H    0.669024  -1.876454  0.392286
H    2.288662  -2.057215  1.177370
N    -0.370292  -0.827180  2.513454
C    -1.024420  -0.202317  3.670809
C    -1.016669  -1.166345  4.873421
O    0.079383  -1.413334  5.494372
H    -1.038034  -1.130735  1.718749
H    -0.387520  0.636896  3.999426
C    -2.386308  0.421319  3.291711
C    -3.499736  -0.414961  2.611925
C    -3.417007  -0.547997  1.086170
N    -2.334899  -1.458595  0.683312
C    -1.879886  -1.541975  -0.681391
N    -2.390255  -0.605380  -1.540692
N    -0.973593  -2.425982  -0.886643
H    -2.159175  1.279556  2.642164
H    -2.786200  0.868352  4.214084
H    -4.451602  0.085664  2.836517
H    -3.603082  -1.429240  3.035788
H    -3.215313  0.440968  0.652153
H    -4.397380  -0.884779  0.711196
H    -2.509113  -2.419368  0.985524
H    -3.343380  -0.275439  -1.432614
H    -2.084968  -0.663912  -2.506485
H    -0.715509  -2.517827  -1.871734
N    -2.126802  -1.729300  5.300704
C    -2.208392  -2.642562  6.446773
H    -2.986810  -1.507155  4.806350
H    -3.258898  -2.894788  6.610175
H    -1.804869  -2.158460  7.343471
H    -1.639544  -3.557820  6.244602
Pb    2.202253  -0.693546  5.285418
