36
Energy: -611334.71263 eV PBE+vdW (tier 2 basis)
C    -0.453390  -0.047481  -0.199958
C    -0.166964  0.640325  1.087870
O    0.929524  1.217163  1.296507
H    0.049761  0.441092  -1.039300
H    -1.526754  -0.164535  -0.385015
H    -0.039813  -1.067038  -0.114483
N    -1.124703  0.584520  2.096002
C    -2.308990  1.492390  1.937596
C    -1.561773  2.842342  1.929450
O    -0.945929  3.127108  3.048819
H    -0.676441  0.838695  2.982689
H    -2.783319  1.288862  0.970608
C    -3.294558  1.272750  3.082055
C    -4.539730  2.166668  3.003551
C    -5.551235  1.788722  4.097033
N    -6.809578  2.540132  4.029746
C    -7.186693  3.552310  4.823297
N    -8.471096  3.936687  4.840663
N    -6.300709  4.190570  5.599718
H    -2.772156  1.438872  4.036558
H    -3.587198  0.212540  3.059407
H    -5.024181  2.057155  2.020519
H    -4.261154  3.228271  3.098409
H    -5.124364  1.915013  5.101692
H    -5.812814  0.724417  4.014408
H    -7.489453  2.232463  3.341177
H    -8.751896  4.818775  5.252518
H    -9.207163  3.342534  4.478138
H    -5.304453  4.074585  5.473404
N    -1.175063  3.495837  0.855811
C    -1.712169  3.341443  -0.488077
H    -6.606875  4.793889  6.353661
H    -0.967619  2.892019  -1.158661
H    -1.960609  4.331760  -0.889153
H    -2.621804  2.726104  -0.517473
Pb    0.982459  3.603192  1.880334
