36
Energy: -611334.960313 eV PBE+vdW (tier 2 basis)
C    -0.545195  -0.156380  -0.730973
C    -0.622270  -0.641938  0.675839
O    0.077378  -1.650897  1.040192
H    0.256003  0.594745  -0.810065
H    -1.478368  0.303804  -1.073280
H    -0.287237  -0.995237  -1.385348
N    -1.424892  -0.066046  1.571545
C    -2.181160  1.184880  1.492898
C    -1.287628  2.364549  1.031012
O    -0.094617  2.461425  1.380957
H    -1.439529  -0.528474  2.477264
H    -2.989931  1.059621  0.756730
C    -2.859467  1.481336  2.871798
C    -2.196647  1.006434  4.182195
C    -0.859241  1.625842  4.629586
N    0.276020  1.328858  3.751959
C    1.073819  0.277167  3.768947
N    0.868057  -0.825615  4.634811
N    2.075547  0.056262  2.919841
H    -3.857360  1.024002  2.845968
H    -3.030355  2.565622  2.924827
H    -2.128946  -0.097357  4.209230
H    -2.920905  1.234657  4.978444
H    -0.626634  1.305733  5.654617
H    -0.942288  2.720294  4.665410
H    0.286691  1.874640  2.849096
H    1.658017  -0.983526  5.264659
H    -0.001584  -0.828041  5.166967
H    2.338178  0.843891  2.325044
N    -1.905983  3.267650  0.262874
C    -1.293540  4.513501  -0.197945
H    -2.869945  3.093999  -0.007671
H    -1.888890  5.369472  0.141165
H    -1.242222  4.524989  -1.293319
H    -0.284193  4.581346  0.214952
Pb    1.824555  -2.173845  2.403101
