36
Energy: -611333.492811 eV PBE+vdW (tier 2 basis)
C    0.160818  1.389563  0.983144
C    -0.092441  0.241774  1.905064
O    0.902592  -0.379249  2.398914
H    -0.753184  1.882386  0.635896
H    0.720096  1.018840  0.112033
H    0.804612  2.124352  1.484108
N    -1.365493  -0.096922  2.152497
C    -1.918136  -1.269599  2.867502
C    -1.707152  -1.163174  4.385524
O    -0.563265  -1.320695  4.926334
H    -2.057603  0.496913  1.703848
H    -3.000491  -1.197950  2.691369
C    -1.466044  -2.646030  2.324410
C    -2.167094  -3.103130  1.035992
C    -1.780886  -2.359195  -0.246297
N    -2.461153  -2.962288  -1.379677
C    -2.276619  -2.541083  -2.697037
N    -0.975180  -2.238771  -3.052414
N    -3.339729  -2.469382  -3.426068
H    -1.687255  -3.385065  3.108736
H    -0.374697  -2.665217  2.182290
H    -3.258993  -3.050142  1.181335
H    -1.937008  -4.168670  0.893428
H    -0.692110  -2.418445  -0.392589
H    -2.029553  -1.280455  -0.171758
H    -3.451740  -3.158713  -1.238234
H    -0.241685  -2.835072  -2.678489
H    -0.836661  -2.017621  -4.033425
H    -3.157542  -2.216165  -4.401289
N    -2.776493  -0.952543  5.135142
C    -2.790019  -0.874654  6.598055
H    -3.668910  -0.831458  4.662023
H    -3.633729  -1.461984  6.976200
H    -2.907784  0.169439  6.914959
H    -1.853443  -1.274932  6.991951
Pb    1.592668  -1.453557  4.255399
