36
Energy: -611335.436714 eV PBE+vdW (tier 2 basis)
C    -0.556455  -1.583756  0.272203
C    -0.411540  -0.841301  1.568193
O    0.723014  -0.462725  1.952441
H    -0.157254  -0.964654  -0.541680
H    -1.586614  -1.869139  0.034998
H    0.063622  -2.489158  0.317149
N    -1.542796  -0.624348  2.273221
C    -1.755158  -0.036226  3.612689
C    -1.367769  1.451446  3.694851
O    -0.185065  1.898647  3.636108
H    -2.387378  -0.986021  1.840821
H    -2.849621  -0.044318  3.704986
C    -1.287752  -0.924924  4.797101
C    0.192012  -1.297742  4.977002
C    1.058058  -0.234286  5.671826
N    2.347600  -0.012223  4.931027
C    3.151903  1.046260  5.493444
N    4.015206  0.737864  6.471059
N    2.923673  2.194906  4.933747
H    -1.856484  -1.859063  4.685280
H    -1.674461  -0.461246  5.718641
H    0.634103  -1.560530  4.008980
H    0.217859  -2.216991  5.576333
H    1.277667  -0.528612  6.708701
H    0.559725  0.740361  5.713708
H    2.869107  -0.891952  4.864986
H    4.638637  1.437219  6.862833
H    4.036887  -0.180687  6.899425
H    3.404618  3.008764  5.320856
N    -2.372584  2.298929  3.895592
C    -2.201509  3.745237  4.044655
H    -3.317112  1.929716  3.944920
H    -3.162526  4.179349  4.331796
H    -1.871391  4.192294  3.098792
H    -1.457714  3.959375  4.820197
Pb    1.927494  1.440534  2.798120
