36
Energy: -611334.694171 eV PBE+vdW (tier 2 basis)
C    -2.787432  2.352165  2.866784
C    -2.018437  1.106810  3.199229
O    -0.915971  1.329264  3.939349
H    -3.109052  2.838419  3.798112
H    -3.662601  2.138483  2.247801
H    -2.147258  3.075121  2.342606
N    -2.448178  -0.044343  2.807466
C    -1.852944  -1.316157  3.194710
C    -0.343385  -1.481050  3.036377
O    0.369079  -0.695930  2.304523
H    -4.087972  -0.271197  1.877448
H    -2.072130  -1.490524  4.263534
C    -2.594216  -2.411984  2.381554
C    -2.472018  -2.229491  0.857007
C    -3.765185  -2.591091  0.093714
N    -4.498663  -1.454370  -0.493237
C    -5.272117  -0.573744  0.164385
N    -6.293452  0.004665  -0.490820
N    -5.042956  -0.276905  1.449249
H    -3.645262  -2.342204  2.694173
H    -2.264934  -3.415838  2.676205
H    -1.648481  -2.844403  0.471990
H    -2.208070  -1.189526  0.619273
H    -4.455419  -3.146721  0.745170
H    -3.538288  -3.246075  -0.753659
H    -4.588952  -1.452832  -1.503671
H    -6.686613  -0.409097  -1.328080
H    -6.734801  0.846206  -0.140200
H    -5.766360  0.214170  1.962891
N    0.275564  -2.492799  3.635892
C    -0.260795  -3.536005  4.512089
H    1.265601  -2.570079  3.400978
H    0.505768  -3.791658  5.250917
H    -0.510667  -4.438593  3.939735
H    -1.149961  -3.182797  5.041864
Pb    1.055306  1.305608  3.108548
