36
Energy: -611335.214642 eV PBE+vdW (tier 2 basis)
C    0.132527  0.049759  1.582310
C    -0.821641  0.494092  2.635290
O    -0.769527  1.679526  3.087283
H    -0.221634  0.390542  0.596204
H    0.273533  -1.035292  1.559891
H    1.094223  0.549295  1.752310
N    -1.766930  -0.350365  3.127013
C    -2.600810  -1.196940  2.276050
C    -3.443105  -0.263601  1.371677
O    -3.692200  0.933070  1.720192
H    -2.230380  0.029513  3.961833
H    -1.951021  -1.820962  1.645858
C    -3.529992  -2.120826  3.096008
C    -4.576876  -1.395941  3.967000
C    -4.101502  -1.126692  5.408297
N    -4.692204  0.060036  6.032184
C    -4.013532  1.208782  6.228218
N    -4.361376  1.974443  7.279819
N    -3.004143  1.543674  5.393122
H    -2.898363  -2.783800  3.705471
H    -4.042101  -2.777952  2.381027
H    -5.491533  -2.000964  3.999582
H    -4.875374  -0.444892  3.503166
H    -3.012656  -1.005188  5.465257
H    -4.340128  -1.986341  6.048351
H    -5.549545  -0.070417  6.561351
H    -4.899733  1.607852  8.058084
H    -4.040284  2.931834  7.357881
H    -2.317371  2.112249  5.899727
N    -3.918605  -0.770204  0.244633
C    -4.781537  -0.072776  -0.711227
H    -3.671648  -1.732398  0.022777
H    -5.749691  -0.583769  -0.776753
H    -4.308359  -0.073603  -1.700041
H    -4.931289  0.955079  -0.374886
Pb    -2.934577  2.589532  3.236441
