36
Energy: -611335.515581 eV PBE+vdW (tier 2 basis)
C    0.141981  -0.846912  0.588506
C    -0.254659  -0.788319  2.030622
O    0.215073  -1.636893  2.844345
H    -0.319683  -0.069770  -0.029366
H    -0.137672  -1.832401  0.190529
H    1.234543  -0.771943  0.510104
N    -1.125256  0.172632  2.395506
C    -1.824110  0.355858  3.686418
C    -0.864674  0.878192  4.773365
O    0.044823  0.174083  5.300951
H    -1.425769  0.790378  1.647013
H    -2.550094  1.157179  3.491237
C    -2.598232  -0.909591  4.101563
C    -3.297503  -0.824319  5.467414
C    -3.602721  -2.217295  6.068507
N    -2.455338  -3.136908  5.978170
C    -1.215904  -2.836353  6.430565
N    -1.094245  -1.997737  7.485609
N    -0.088509  -3.281478  5.853822
H    -1.887648  -1.742771  4.095793
H    -3.326803  -1.120700  3.306003
H    -4.245130  -0.273087  5.393387
H    -2.673502  -0.261005  6.176521
H    -4.423314  -2.708277  5.532552
H    -3.942387  -2.121936  7.109811
H    -2.472378  -3.765695  5.182036
H    -0.222414  -2.044637  8.001130
H    -1.910397  -1.783782  8.048121
H    -0.273330  -4.026883  5.177057
N    -1.044870  2.132643  5.170665
C    -0.225020  2.793609  6.188855
H    -1.786715  2.674459  4.737612
H    -0.657715  3.775031  6.398404
H    0.803400  2.920744  5.829083
H    -0.210453  2.197601  7.108214
Pb    1.357245  -1.711018  4.868959
