36
Energy: -611333.975635 eV PBE+vdW (tier 2 basis)
C    -1.854496  1.181288  0.092607
C    -1.785768  0.405204  1.364762
O    -0.960387  -0.586579  1.423378
H    -2.585918  1.994304  0.134960
H    -2.097037  0.499304  -0.734119
H    -0.862871  1.600875  -0.126984
N    -2.576561  0.757306  2.365704
C    -2.762514  0.064780  3.657316
C    -1.481857  0.180436  4.492747
O    -0.554570  -0.708213  4.452516
H    -3.372246  1.441930  2.155359
H    -3.510026  0.687281  4.163984
C    -3.353540  -1.372266  3.580187
C    -4.671498  -1.517376  4.378475
C    -5.980191  -1.280364  3.576643
N    -5.934788  -0.219829  2.573035
C    -5.590667  1.087052  2.784240
N    -5.698206  1.549892  4.085662
N    -5.060305  1.886567  1.889307
H    -2.633099  -2.096577  3.991066
H    -3.510677  -1.640449  2.526037
H    -4.632285  -0.848578  5.250470
H    -4.738799  -2.531857  4.793506
H    -6.805915  -1.120037  4.286953
H    -6.241355  -2.193058  3.028026
H    -5.892347  -0.519180  1.606472
H    -5.722594  2.566469  4.118410
H    -6.427642  1.128648  4.654970
H    -5.110629  1.472841  0.952805
N    -1.321413  1.218826  5.291181
C    -2.230934  2.352263  5.503556
H    -0.437121  1.232723  5.801850
H    -1.811559  2.971290  6.300964
H    -3.224055  2.007821  5.814723
H    -2.315562  2.959716  4.593853
Pb    0.135132  -1.968798  2.739063
