36
Energy: -611334.940212 eV PBE+vdW (tier 2 basis)
C    0.230394  0.900820  1.446365
C    0.125007  -0.435727  2.089924
O    0.828977  -0.727376  3.105940
H    -0.314969  1.641611  2.052048
H    -0.152808  0.915078  0.421460
H    1.282907  1.211639  1.455562
N    -0.716141  -1.385973  1.613354
C    -2.106246  -1.179932  1.232139
C    -2.827551  -0.598391  2.466120
O    -2.383465  -0.847962  3.632515
H    -0.598195  -2.274677  2.108013
H    -2.154331  -0.494512  0.377569
C    -2.790283  -2.546749  0.886257
C    -1.844282  -3.667451  0.403881
C    -2.070013  -5.050296  1.054748
N    -2.416980  -5.068652  2.490276
C    -1.822976  -4.450574  3.524872
N    -2.520849  -4.376305  4.707273
N    -0.650321  -3.815711  3.491721
H    -3.568200  -2.350177  0.139710
H    -3.320971  -2.889546  1.785804
H    -0.793893  -3.373708  0.517913
H    -1.958635  -3.819710  -0.677037
H    -1.188894  -5.683504  0.874713
H    -2.913927  -5.553557  0.568567
H    -3.175632  -5.699719  2.732135
H    -1.998832  -4.600577  5.550111
H    -3.485229  -4.695496  4.730967
H    -0.001362  -4.157869  2.781116
N    -3.930430  0.123723  2.324194
C    -4.645528  0.487184  1.099143
H    -4.355184  0.419593  3.204073
H    -3.985934  0.436938  0.228522
H    -5.008859  1.515624  1.195820
H    -5.503452  -0.178745  0.941240
Pb    -0.482813  -1.780124  4.762591
