36
Energy: -611334.055952 eV PBE+vdW (tier 2 basis)
C    0.682358  0.108157  0.798295
C    0.307323  -0.100483  2.226619
O    1.160412  -0.701271  2.992105
H    1.558769  0.769789  0.746501
H    -0.134913  0.545215  0.215469
H    0.986961  -0.853164  0.363342
N    -0.872504  0.331500  2.634485
C    -1.518746  0.090802  3.939467
C    -0.776913  0.875077  5.031220
O    0.189496  0.360116  5.700819
H    -1.601897  0.587058  1.869562
H    -2.494537  0.577391  3.825963
C    -1.785654  -1.401371  4.290499
C    -3.267806  -1.725496  4.604479
C    -4.178157  -2.081765  3.406573
N    -4.333084  -1.028305  2.402845
C    -3.379728  -0.726807  1.462063
N    -2.625065  -1.779966  0.994019
N    -3.055756  0.477762  1.048734
H    -1.199434  -1.682167  5.180348
H    -1.433975  -2.025798  3.458266
H    -3.714288  -0.894336  5.174730
H    -3.297859  -2.589966  5.283334
H    -5.176873  -2.324311  3.791892
H    -3.816812  -2.998943  2.924285
H    -4.905411  -0.238829  2.686747
H    -2.162690  -1.562876  0.115756
H    -3.066728  -2.694186  0.985581
H    -3.683327  1.193734  1.424610
N    -1.135005  2.116282  5.303381
C    -2.200949  2.915185  4.686631
H    -0.588581  2.565570  6.039968
H    -2.077954  3.949579  5.019368
H    -3.190430  2.565993  5.008034
H    -2.123190  2.895288  3.593730
Pb    1.732949  -1.134660  5.063963
