36
Energy: -611333.16886 eV PBE+vdW (tier 2 basis)
C    -0.637530  -1.292902  0.928993
C    -0.487316  -0.392318  2.107727
O    0.576917  0.289423  2.248643
H    -0.581495  -0.688056  0.012718
H    -1.578195  -1.853280  0.931718
H    0.206768  -1.994426  0.897653
N    -1.486996  -0.309357  3.002118
C    -1.472193  0.657175  4.101965
C    -0.385685  0.310203  5.146756
O    0.588840  1.138563  5.262789
H    -2.342183  -0.824502  2.807959
H    -1.079234  1.591222  3.671325
C    -2.863201  1.074112  4.634298
C    -3.871096  0.093458  5.249121
C    -4.527755  -0.911945  4.277961
N    -5.784591  -1.421689  4.779120
C    -6.969862  -0.698496  4.652174
N    -8.073674  -1.317590  5.160706
N    -7.116625  0.472776  4.106390
H    -3.346271  1.592671  3.790014
H    -2.658965  1.863470  5.372938
H    -3.464433  -0.429124  6.123698
H    -4.677297  0.725199  5.648761
H    -3.883890  -1.789725  4.106835
H    -4.673138  -0.431665  3.288996
H    -5.872098  -2.427972  4.866542
H    -8.941831  -0.796709  5.105910
H    -8.008771  -2.047168  5.859100
H    -6.262590  0.827468  3.671774
N    -0.375054  -0.767549  5.910625
C    -1.265818  -1.924137  5.964804
H    0.426711  -0.800419  6.544322
H    -1.955471  -1.923735  5.120741
H    -1.831131  -1.926147  6.904429
H    -0.654117  -2.833277  5.921246
Pb    1.841182  1.766780  3.465404
