36
Energy: -611335.42616 eV PBE+vdW (tier 2 basis)
C    0.812397  -1.531030  2.553502
C    0.544980  -0.057642  2.624740
O    1.444082  0.734050  3.012929
H    1.661768  -1.710813  1.881574
H    -0.045388  -2.121308  2.214964
H    1.115104  -1.881247  3.549674
N    -0.685303  0.364025  2.281697
C    -1.293946  1.704811  2.373921
C    -0.755657  2.676251  1.312042
O    0.460877  2.999509  1.200369
H    -1.324639  -0.366576  1.983567
H    -2.335355  1.500676  2.093924
C    -1.402537  2.333166  3.800494
C    -0.348921  3.326244  4.329408
C    0.810805  2.741194  5.155355
N    2.170916  3.137277  4.645905
C    2.395026  4.550208  4.437920
N    2.521372  5.344092  5.508862
N    2.447356  4.865349  3.178939
H    -1.546706  1.503014  4.507249
H    -2.361058  2.869700  3.790538
H    -0.888392  4.035275  4.969989
H    0.034857  3.943214  3.505961
H    0.812757  1.646718  5.128584
H    0.715488  3.042906  6.208910
H    2.877344  2.752699  5.282006
H    2.723758  6.334866  5.415493
H    2.446633  4.982082  6.452960
H    2.590674  5.849958  2.944712
N    -1.659346  3.218787  0.501098
C    -1.337686  4.198458  -0.538391
H    -2.625532  2.916895  0.580851
H    -2.272040  4.616830  -0.921285
H    -0.790561  3.720903  -1.360845
H    -0.722178  5.001783  -0.119628
Pb    2.576614  2.639435  2.136815
