36
Energy: -611333.436187 eV PBE+vdW (tier 2 basis)
C    0.285367  -0.031449  3.441892
C    -0.546368  -1.235717  3.170437
O    0.043963  -2.379354  3.038985
H    1.271481  -0.357365  3.788397
H    0.431181  0.548425  2.516046
H    -0.178259  0.625448  4.184593
N    -1.879194  -1.200102  3.048200
C    -2.677631  -0.230930  2.278310
C    -2.343643  -0.443782  0.814963
O    -1.402025  -1.260368  0.436096
H    -2.335298  -2.110452  3.137844
H    -3.728169  -0.627979  2.475853
C    -2.666766  1.211568  2.822964
C    -3.267771  1.264745  4.238932
C    -4.753087  1.650977  4.311601
N    -5.665851  1.027018  3.330446
C    -6.033059  -0.312608  3.381315
N    -7.367714  -0.548720  3.206065
N    -5.106643  -1.227560  3.483630
H    -3.249756  1.845644  2.145649
H    -1.651982  1.625099  2.804110
H    -2.727024  2.014203  4.833593
H    -3.113300  0.303664  4.745966
H    -4.844588  2.729976  4.131451
H    -5.106037  1.466487  5.338409
H    -6.442167  1.639552  3.098176
H    -7.693503  -1.506274  3.147534
H    -8.054270  0.122994  3.531453
H    -5.507691  -2.160337  3.598281
N    -3.041225  0.135453  -0.147105
C    -4.234267  0.979384  -0.050086
H    -2.714528  -0.081715  -1.088899
H    -4.904569  0.710285  -0.873572
H    -3.965959  2.039192  -0.149150
H    -4.750811  0.816009  0.901592
Pb    -0.147684  -3.060150  0.904925
