36
Energy: -611335.504765 eV PBE+vdW (tier 2 basis)
C    -1.029537  0.569024  0.354028
C    -1.060632  -0.239167  1.617139
O    -0.214307  -1.161471  1.771757
H    -1.842769  1.298127  0.274652
H    -1.061511  -0.107227  -0.509732
H    -0.068772  1.100219  0.302664
N    -1.999176  0.085061  2.527048
C    -2.274278  -0.433500  3.886744
C    -0.980922  -0.627657  4.703626
O    -0.374365  -1.740283  4.719563
H    -2.594975  0.860010  2.251539
H    -2.833752  0.386595  4.353945
C    -3.149837  -1.699005  3.998632
C    -4.356908  -1.809609  3.049932
C    -4.126580  -2.698805  1.814928
N    -3.755443  -4.075754  2.157314
C    -2.496860  -4.530129  2.343453
N    -2.318818  -5.677483  3.036815
N    -1.420016  -3.876217  1.896200
H    -3.502811  -1.708705  5.039698
H    -2.518170  -2.587872  3.908711
H    -4.699845  -0.823629  2.701605
H    -5.203939  -2.224408  3.613171
H    -3.365973  -2.272579  1.147617
H    -5.045939  -2.751041  1.218837
H    -4.519824  -4.719866  2.339087
H    -1.505418  -6.245117  2.828241
H    -3.101257  -6.157153  3.467447
H    -1.675405  -3.189504  1.186468
N    -0.533332  0.378097  5.446059
C    -1.106414  1.717268  5.618091
H    0.300703  0.157746  5.990840
H    -1.268939  2.206548  4.651030
H    -0.388586  2.318997  6.182415
H    -2.043827  1.681232  6.188148
Pb    0.479746  -3.034874  2.951921
