36
Energy: -611333.337059 eV PBE+vdW (tier 2 basis)
C    0.291146  0.701127  -0.012048
C    -0.099972  -0.054071  1.198004
O    0.712043  -0.908992  1.715779
H    1.346016  0.993983  0.040392
H    -0.358922  1.558097  -0.250906
H    0.210861  -0.010026  -0.853829
N    -1.308217  0.099584  1.780847
C    -1.905223  1.398275  2.082370
C    -1.029667  2.044761  3.176748
O    -0.147734  1.375470  3.827453
H    -1.551406  -0.641931  2.441903
H    -1.842322  2.031539  1.174959
C    -3.373723  1.227967  2.545076
C    -4.322057  0.592664  1.509687
C    -5.048902  1.579635  0.569301
N    -4.185906  2.560929  -0.083947
C    -3.057809  2.257923  -0.810333
N    -3.037964  1.014493  -1.404894
N    -1.980248  2.994244  -0.886766
H    -3.754017  2.211025  2.859914
H    -3.366959  0.613058  3.460116
H    -5.099576  0.035443  2.050282
H    -3.775442  -0.152981  0.915326
H    -5.793227  2.154924  1.134201
H    -5.624507  1.003278  -0.171652
H    -4.239267  3.514600  0.251366
H    -2.328678  0.939328  -2.128072
H    -3.931361  0.621136  -1.685555
H    -2.105518  3.912916  -0.451961
N    -1.204336  3.324241  3.445496
C    -0.466352  4.077568  4.466359
H    -1.898475  3.828156  2.899447
H    -0.909573  5.073289  4.545657
H    0.588333  4.174637  4.181424
H    -0.537900  3.570076  5.434526
Pb    1.160559  -0.494720  3.893329
