36
Energy: -611334.64623 eV PBE+vdW (tier 2 basis)
C    -0.979330  0.978746  0.506314
C    -0.336784  0.503943  1.770391
O    0.881831  0.123697  1.723900
H    -2.022390  1.286129  0.633382
H    -0.931316  0.167912  -0.234089
H    -0.399704  1.816376  0.096544
N    -1.071230  0.482459  2.883681
C    -0.776351  -0.050996  4.239397
C    0.206182  0.830762  5.026989
O    1.490920  0.840157  4.660423
H    -2.011560  0.850984  2.771534
H    -1.728750  0.077808  4.763538
C    -0.434631  -1.554601  4.232779
C    -0.465853  -2.176101  5.640050
C    -1.884790  -2.463938  6.200200
N    -2.002108  -2.159496  7.635200
C    -1.937018  -0.904699  8.112039
N    -1.409609  -0.652542  9.314818
N    -2.402925  0.131778  7.385806
H    0.559388  -1.726441  3.796770
H    -1.139166  -2.070245  3.563453
H    0.065318  -1.512093  6.337846
H    0.105791  -3.112591  5.624650
H    -2.146833  -3.520802  6.082281
H    -2.658074  -1.913232  5.647360
H    -1.881454  -2.927579  8.289518
H    -1.650257  0.208522  9.794788
H    -0.888861  -1.352133  9.831781
H    -3.059514  -0.106552  6.650869
N    -0.249568  1.492975  6.028265
C    0.668427  2.357081  6.767997
H    -1.744847  0.893519  7.116845
H    0.170062  2.724287  7.670701
H    0.949756  3.231904  6.163040
H    1.596683  1.838251  7.048560
Pb    2.727812  0.345432  2.983868
