36
Energy: -611335.090899 eV PBE+vdW (tier 2 basis)
C    0.050667  0.237952  -0.504072
C    -0.428169  -0.202751  0.836729
O    0.399935  -0.574289  1.725890
H    0.433432  1.268929  -0.443172
H    -0.721348  0.184363  -1.277852
H    0.904602  -0.389968  -0.787906
N    -1.747470  -0.217518  1.140169
C    -2.660759  0.874920  0.830055
C    -2.220555  2.110541  1.646434
O    -1.456873  1.990351  2.657473
H    -1.943776  -0.715539  2.017571
H    -2.560235  1.123130  -0.235141
C    -4.147819  0.503838  1.113319
C    -4.424854  -0.633976  2.111533
C    -3.790455  -0.554551  3.519684
N    -2.775390  -1.633698  3.674630
C    -1.888938  -1.684386  4.725010
N    -1.794485  -2.845352  5.394968
N    -1.133526  -0.625057  5.008388
H    -4.614766  0.222613  0.160921
H    -4.670713  1.409571  1.448235
H    -4.149579  -1.593539  1.648052
H    -5.515706  -0.679888  2.221669
H    -4.563857  -0.676915  4.291051
H    -3.298729  0.404854  3.713635
H    -3.152771  -2.548675  3.430472
H    -1.018798  -3.029505  6.022266
H    -2.526047  -3.547491  5.359820
H    -0.713863  -0.707009  5.938000
N    -2.652167  3.317141  1.302569
C    -3.544674  3.708013  0.209240
H    -2.336502  4.066366  1.919573
H    -3.184317  4.651500  -0.214038
H    -4.568798  3.854024  0.576421
H    -3.552478  2.955249  -0.583849
Pb    0.255169  0.738198  3.684326
