36
Energy: -611333.383026 eV PBE+vdW (tier 2 basis)
C    -0.094410  0.279647  0.231735
C    -0.151731  0.221320  1.712698
O    0.926099  0.124240  2.404156
H    0.658621  1.005103  -0.101090
H    -1.071183  0.471985  -0.225812
H    0.260524  -0.706769  -0.112823
N    -1.331523  0.276724  2.363576
C    -2.366072  1.274505  2.053447
C    -1.670131  2.634425  2.192178
O    -0.742458  2.795929  3.084891
H    -1.296371  -0.013649  3.344118
H    -2.735468  1.103897  1.012629
C    -3.507113  1.080319  3.085432
C    -4.805428  1.890510  2.925082
C    -5.855765  1.280851  1.977048
N    -5.436445  1.237197  0.580312
C    -4.756777  0.190231  -0.012241
N    -5.314903  -1.045985  0.168220
N    -3.643244  0.462939  -0.645154
H    -3.085249  1.283876  4.084232
H    -3.747535  0.005867  3.059212
H    -4.593427  2.931474  2.633821
H    -5.268642  1.964579  3.919894
H    -6.783043  1.864781  2.053857
H    -6.100381  0.261064  2.300725
H    -5.173487  2.130019  0.178830
H    -4.864055  -1.842514  -0.266296
H    -6.325326  -1.113582  0.241998
H    -3.347571  -0.313762  -1.243930
N    -1.973562  3.664239  1.429418
C    -2.875184  3.736944  0.275078
H    -1.473255  4.523443  1.666436
H    -3.066904  2.736057  -0.133657
H    -2.386462  4.345610  -0.493887
H    -3.813124  4.230588  0.559877
Pb    1.071006  1.781250  3.963927
