36
Energy: -611333.8873 eV PBE+vdW (tier 2 basis)
C    0.365629  0.321958  0.113556
C    0.203615  0.166891  1.585417
O    1.207809  0.485689  2.339065
H    -0.529733  0.048920  -0.456252
H    1.213503  -0.290965  -0.222327
H    0.633114  1.367206  -0.099197
N    -0.949268  -0.258269  2.077014
C    -1.345811  -0.296368  3.494472
C    -0.763020  -1.537816  4.190921
O    0.485130  -1.586670  4.486427
H    -1.770332  -0.388454  1.401272
H    -0.855114  0.553231  4.000900
C    -2.866616  -0.039963  3.615830
C    -3.925812  -1.039016  3.073327
C    -3.683261  -1.731684  1.723957
N    -3.275552  -0.768476  0.688525
C    -2.847839  -1.182896  -0.621281
N    -2.389021  -2.487948  -0.686344
N    -2.705278  -0.389819  -1.612179
H    -3.021505  0.933403  3.129156
H    -3.084974  0.140021  4.677999
H    -4.866215  -0.470032  3.022552
H    -4.158305  -1.825360  3.812034
H    -4.597439  -2.283174  1.449682
H    -2.873732  -2.472982  1.810531
H    -3.926900  0.012636  0.604382
H    -2.114761  -2.728176  -1.637373
H    -2.973075  -3.209155  -0.272252
H    -2.992674  0.573639  -1.421639
N    -1.535657  -2.552040  4.513979
C    -1.073292  -3.767938  5.192883
H    -2.526188  -2.471517  4.295447
H    -1.946993  -4.373334  5.446164
H    -0.532577  -3.504410  6.108820
H    -0.409201  -4.341701  4.535149
Pb    2.244763  -0.232120  4.127756
