36
Energy: -611334.234418 eV PBE+vdW (tier 2 basis)
C    0.566272  1.279671  1.155861
C    -0.087863  0.287987  2.051451
O    0.480035  -0.063440  3.143889
H    0.416905  2.295432  1.556634
H    0.189588  1.237840  0.129721
H    1.648364  1.096735  1.166351
N    -1.298950  -0.223261  1.749639
C    -2.428791  0.656791  1.392223
C    -2.613648  1.676731  2.532717
O    -2.435530  1.165641  3.774556
H    -1.573803  -1.002592  2.349468
H    -2.185352  1.183288  0.461799
C    -3.692512  -0.204125  1.169474
C    -5.008639  0.593627  1.097696
C    -5.672785  0.797624  2.473364
N    -6.710611  1.829631  2.464506
C    -6.689354  2.993117  3.137455
N    -7.841568  3.668985  3.289272
N    -5.561345  3.482516  3.662551
H    -3.763453  -0.952738  1.976702
H    -3.544741  -0.769410  0.240323
H    -5.706933  0.052353  0.445294
H    -4.846648  1.566218  0.615289
H    -4.946798  1.068027  3.247490
H    -6.137543  -0.143537  2.802818
H    -7.566828  1.617665  1.961169
H    -7.847454  4.639510  3.578068
H    -8.740852  3.226973  3.142145
H    -4.609862  3.220524  3.340886
N    -2.989409  2.891843  2.416709
C    -3.123755  3.583919  1.144638
H    -5.620295  4.272922  4.293766
H    -2.549770  4.518164  1.203619
H    -4.171294  3.878843  0.984861
H    -2.791663  3.028002  0.255212
Pb    -0.821050  0.389272  4.994781
