36
Energy: -611332.957108 eV PBE+vdW (tier 2 basis)
C    0.181986  0.919230  0.365733
C    -0.072510  0.264822  1.678274
O    0.735821  0.442208  2.645908
H    -0.045514  1.994526  0.432523
H    -0.384305  0.476703  -0.458845
H    1.257893  0.849379  0.155435
N    -1.152198  -0.531196  1.865092
C    -2.505680  -0.167979  1.445448
C    -2.969001  0.982450  2.386466
O    -2.273473  1.340725  3.392583
H    -1.124876  -1.051107  2.744526
H    -2.456220  0.236289  0.422875
C    -3.460976  -1.378222  1.468123
C    -3.255050  -2.417914  0.353523
C    -2.093294  -3.414307  0.555343
N    -2.071727  -4.467130  -0.449363
C    -3.041863  -5.447886  -0.598253
N    -3.753287  -5.780693  0.533485
N    -3.358725  -6.024983  -1.715641
H    -4.487415  -0.994478  1.386212
H    -3.413273  -1.854027  2.462837
H    -3.140964  -1.912663  -0.618273
H    -4.182716  -3.003112  0.285068
H    -2.158723  -3.859993  1.560391
H    -1.117469  -2.913187  0.507176
H    -1.551788  -4.271093  -1.297783
H    -4.393549  -6.554821  0.375542
H    -3.257615  -5.829874  1.417665
H    -2.802244  -5.716324  -2.517928
N    -4.110575  1.590935  2.116675
C    -4.675868  2.686345  2.913615
H    -4.639454  1.280508  1.305578
H    -4.848307  2.355637  3.944320
H    -5.627083  2.981958  2.464296
H    -3.995077  3.545686  2.916665
Pb    -0.252354  1.325904  4.545954
