36
Energy: -611333.967963 eV PBE+vdW (tier 2 basis)
C    -2.084507  -2.250184  1.708407
C    -1.386277  -1.301941  2.620426
O    -0.183989  -0.935937  2.329333
H    -3.014817  -2.629388  2.146186
H    -1.417247  -3.091418  1.481241
H    -2.293585  -1.744822  0.754016
N    -2.019130  -0.854592  3.697416
C    -1.460190  0.141030  4.610795
C    -0.200876  -0.401561  5.317379
O    0.941333  0.110181  4.988118
H    -3.067703  -1.015434  3.774680
H    -1.082823  0.984571  4.006569
C    -2.515240  0.720954  5.573390
C    -3.771569  1.292232  4.874828
C    -5.000511  0.369744  4.841098
N    -4.798604  -0.893250  4.101772
C    -4.816943  -2.145609  4.784133
N    -4.937837  -3.216680  3.911729
N    -4.558785  -2.344976  6.023740
H    -2.009881  1.521023  6.131522
H    -2.806251  -0.028754  6.318867
H    -3.527699  1.627422  3.854124
H    -4.075547  2.200915  5.412141
H    -5.831993  0.912403  4.373906
H    -5.328780  0.140220  5.864652
H    -5.315975  -0.912364  3.223834
H    -5.029367  -4.100847  4.407707
H    -5.628391  -3.129203  3.169754
H    -4.483393  -1.478809  6.560455
N    -0.210102  -1.342007  6.238041
C    -1.307789  -2.128942  6.811347
H    0.718546  -1.542833  6.616228
H    -2.170651  -2.188787  6.142106
H    -1.613193  -1.703131  7.775959
H    -0.933617  -3.143559  6.985118
Pb    1.650906  0.192590  2.874070
