36
Energy: -611333.46865 eV PBE+vdW (tier 2 basis)
C    0.226800  0.559870  0.349253
C    -0.039692  0.025055  1.710232
O    0.961771  -0.180421  2.492730
H    0.635234  -0.224965  -0.305203
H    1.023630  1.310974  0.451182
H    -0.649761  1.016366  -0.113337
N    -1.275992  -0.189116  2.206196
C    -2.365648  -1.022974  1.651633
C    -2.074523  -2.468630  2.121241
O    -0.863266  -2.831947  2.449944
H    -1.255322  -0.248495  3.225838
H    -3.286321  -0.700905  2.163678
C    -2.635014  -0.888946  0.139184
C    -3.430943  0.392889  -0.208472
C    -4.856629  0.162518  -0.804598
N    -5.520945  -1.077144  -0.396040
C    -5.580061  -1.527284  0.893851
N    -5.593459  -0.565006  1.882494
N    -5.516944  -2.784661  1.267156
H    -3.210248  -1.777109  -0.148741
H    -1.703566  -0.964203  -0.433033
H    -2.879594  1.000287  -0.938537
H    -3.514343  1.017577  0.690992
H    -4.803023  0.116693  -1.897891
H    -5.482400  1.037903  -0.576791
H    -5.534898  -1.812209  -1.094181
H    -5.950247  -0.918335  2.766583
H    -5.987142  0.338403  1.634543
H    -5.537255  -3.418831  0.463806
N    -3.068370  -3.305496  2.216893
C    -2.916486  -4.698484  2.635178
H    -4.100403  -3.018536  1.912902
H    -3.903227  -5.168367  2.595248
H    -2.537819  -4.753116  3.663930
H    -2.226010  -5.236534  1.973937
Pb    1.130233  -2.309677  3.272463
