36
Energy: -611334.885568 eV PBE+vdW (tier 2 basis)
C    -1.541334  -1.155237  0.133927
C    -1.212709  0.158992  0.758163
O    -0.553604  1.015436  0.062870
H    -0.625570  -1.626712  -0.244526
H    -2.178451  -0.967204  -0.742577
H    -2.060839  -1.842421  0.807060
N    -1.599618  0.483246  1.982169
C    -2.292877  -0.253873  3.038523
C    -2.752365  0.890542  3.985266
O    -2.083249  1.944602  3.987420
H    -1.459010  1.453744  2.306278
H    -3.155413  -0.790484  2.620345
C    -1.383227  -1.254892  3.806883
C    -0.352397  -0.630433  4.777584
C    1.134464  -0.751144  4.419500
N    1.536642  -0.352676  3.049443
C    1.655812  0.867379  2.521680
N    0.953572  1.981222  3.052228
N    2.310366  1.179271  1.419339
H    -0.894200  -1.910215  3.071136
H    -2.056565  -1.909540  4.375575
H    -0.442082  -1.122952  5.755570
H    -0.602880  0.418473  4.984557
H    1.454470  -1.796419  4.503134
H    1.732786  -0.181480  5.144272
H    1.959343  -1.093261  2.495507
H    1.574848  2.678708  3.468133
H    0.148722  1.799740  3.664901
H    2.937105  0.478390  1.021705
N    -3.793842  0.643693  4.778396
C    -4.312260  1.585943  5.771210
H    -4.295458  -0.231427  4.655428
H    -5.316908  1.919512  5.484680
H    -3.643621  2.448920  5.816824
H    -4.360128  1.102097  6.753480
Pb    0.875704  2.740701  0.448074
