36
Energy: -611334.863581 eV PBE+vdW (tier 2 basis)
C    1.560570  -0.189639  1.119329
C    1.047341  -0.564526  2.467065
O    1.778040  -1.263686  3.253408
H    2.128830  0.749850  1.199203
H    0.761638  -0.044090  0.384324
H    2.245120  -0.968783  0.768068
N    -0.172358  -0.212792  2.873586
C    -1.128891  0.718029  2.273673
C    -0.474384  2.089921  1.983451
O    0.439623  2.541307  2.704443
H    -0.432054  -0.580712  3.785240
H    -1.481531  0.292792  1.323905
C    -2.379653  0.869625  3.202328
C    -2.224539  0.724170  4.731603
C    -1.412820  1.768570  5.522007
N    0.020805  1.791370  5.219086
C    0.984425  1.054127  5.741354
N    0.733639  0.004596  6.658053
N    2.268574  1.112088  5.394440
H    -3.112236  0.113977  2.889956
H    -2.839808  1.842656  2.981029
H    -1.885626  -0.295267  4.994690
H    -3.247030  0.762898  5.136127
H    -1.558376  1.610800  6.599606
H    -1.788180  2.778825  5.310990
H    0.273265  2.246033  4.302606
H    1.202948  0.145136  7.555522
H    -0.244108  -0.237726  6.814816
H    2.534725  1.900877  4.802528
N    -0.945801  2.777296  0.935516
C    -1.977964  2.392641  -0.030621
H    -0.518007  3.695006  0.823039
H    -2.955417  2.248961  0.446777
H    -1.699608  1.484657  -0.581872
H    -2.077140  3.203802  -0.757151
Pb    2.864824  -1.107085  5.246137
