36
Energy: -611334.466304 eV PBE+vdW (tier 2 basis)
C    0.340980  -1.772657  0.383839
C    0.061985  -0.978765  1.614888
O    0.878009  -0.040572  1.937632
H    0.419605  -1.088361  -0.472051
H    -0.433764  -2.518597  0.181618
H    1.314078  -2.271851  0.484616
N    -1.024773  -1.247518  2.328981
C    -1.449340  -0.480097  3.502387
C    -0.500466  -0.772651  4.689237
O    0.380352  0.131288  5.005624
H    -1.642865  -2.016655  2.016512
H    -1.275010  0.577968  3.252269
C    -2.961723  -0.625443  3.836997
C    -3.901855  -1.068205  2.694056
C    -4.202022  -2.572316  2.559859
N    -3.050700  -3.422604  2.194614
C    -2.233869  -4.002544  3.167185
N    -1.185740  -4.732848  2.680590
N    -2.304331  -3.762555  4.446752
H    -3.279597  0.365601  4.185103
H    -3.086287  -1.284595  4.702080
H    -3.562255  -0.666921  1.726512
H    -4.873904  -0.587605  2.872675
H    -4.944477  -2.699370  1.763062
H    -4.684362  -2.950059  3.475107
H    -3.213464  -3.997582  1.369984
H    -0.767042  -5.384233  3.336674
H    -1.190145  -5.042162  1.715223
H    -3.213308  -3.374389  4.703350
N    -0.573265  -1.898071  5.340199
C    0.308021  -2.243253  6.456321
H    -1.265934  -2.677923  5.010474
H    -0.060743  -3.172728  6.898500
H    0.302443  -1.447775  7.210169
H    1.338872  -2.394604  6.108819
Pb    1.627514  1.275957  3.589029
