36
Energy: -611334.723134 eV PBE+vdW (tier 2 basis)
C    0.104346  1.628339  1.058457
C    -0.329747  0.638597  2.090298
O    0.279338  0.558969  3.235706
H    -0.523802  1.601514  0.162754
H    1.141404  1.416137  0.761043
H    0.074209  2.642388  1.480294
N    -1.350656  -0.143329  1.845208
C    -1.952422  -1.201623  2.659891
C    -3.013120  -1.780290  1.668148
O    -3.233040  -1.150238  0.626798
H    -1.906887  -0.090215  0.953182
H    -1.190187  -1.966842  2.873424
C    -2.578991  -0.685983  3.987157
C    -1.744254  -1.025215  5.232517
C    -2.037781  -0.086919  6.418420
N    -0.942333  -0.018527  7.396426
C    0.246434  0.560565  7.158354
N    1.254174  0.410920  8.046624
N    0.474574  1.251397  6.024877
H    -3.596327  -1.084926  4.091269
H    -2.705379  0.402467  3.891763
H    -0.681213  -0.945355  4.973108
H    -1.911017  -2.067156  5.538852
H    -2.928780  -0.405393  6.971251
H    -2.267188  0.932060  6.063388
H    -1.123669  -0.370632  8.331578
H    1.951182  1.144227  8.112892
H    1.126479  -0.147414  8.884054
H    -0.398026  1.432152  5.525298
N    -3.639116  -2.924075  1.984510
C    -3.440021  -3.785295  3.143073
H    -4.337876  -3.208883  1.300833
H    -2.397785  -3.756737  3.481560
H    -3.660111  -4.818159  2.854370
H    -4.101542  -3.513841  3.978403
Pb    2.080677  1.058721  4.438283
