36
Energy: -611334.658389 eV PBE+vdW (tier 2 basis)
C    -0.515518  2.327197  0.968097
C    -0.882611  1.465471  2.139577
O    -0.866293  2.131029  3.330087
H    0.505499  2.721174  1.075480
H    -1.184785  3.197402  0.930326
H    -0.593993  1.766663  0.033477
N    -1.199009  0.237075  1.960070
C    -1.715894  -0.638528  2.987794
C    -0.940851  -0.735244  4.302245
O    0.277691  -0.341378  4.417813
H    0.129941  -3.105957  -2.757957
H    -2.729780  -0.292692  3.263201
C    -1.888764  -2.049585  2.351024
C    -0.603930  -2.608569  1.732186
C    -0.902347  -3.864052  0.901281
N    0.264174  -4.416895  0.201653
C    0.612038  -4.168934  -1.067437
N    1.531647  -4.939421  -1.668263
N    0.053037  -3.159915  -1.749498
H    -2.647023  -1.919146  1.565457
H    -2.308900  -2.759386  3.077284
H    0.137881  -2.852253  2.508827
H    -0.155183  -1.826244  1.101418
H    -1.683915  -3.664703  0.153609
H    -1.294898  -4.668986  1.537479
H    0.856445  -5.059316  0.717845
H    1.962382  -4.661214  -2.541807
H    1.781888  -5.848929  -1.299409
H    -0.483270  -2.439661  -1.283807
N    -1.522787  -1.259496  5.378889
C    -2.881363  -1.774838  5.551409
H    -0.905445  -1.337492  6.187297
H    -3.574664  -1.285410  4.861396
H    -3.203476  -1.561532  6.575911
H    -2.915692  -2.860442  5.392998
Pb    0.717945  1.877278  4.715307
