36
Energy: -611333.530424 eV PBE+vdW (tier 2 basis)
C    1.466942  -1.626312  2.883877
C    0.610428  -1.346871  4.066040
O    1.151338  -1.192056  5.222256
H    2.013681  -0.718714  2.585180
H    0.907400  -2.017335  2.029481
H    2.229964  -2.356207  3.189284
N    -0.725778  -1.249415  3.963501
C    -1.409868  -0.489163  2.916417
C    -1.173615  1.016173  3.218483
O    -0.504499  1.389973  4.273743
H    -1.221936  -1.271533  4.856638
H    -0.914258  -0.712361  1.960358
C    -2.919585  -0.833407  2.843710
C    -3.426635  -1.368278  1.494750
C    -3.055187  -0.583782  0.233428
N    -3.236380  0.897243  0.312205
C    -4.562640  1.393707  0.623612
N    -5.307064  1.741366  -0.465191
N    -4.841494  1.519801  1.871055
H    -3.509813  0.058787  3.095831
H    -3.134109  -1.591308  3.610321
H    -4.519726  -1.430465  1.579190
H    -3.077923  -2.399291  1.331605
H    -3.623969  -1.008930  -0.609025
H    -1.992774  -0.731400  -0.017477
H    -2.923665  1.299728  -0.574601
H    -5.099207  1.376452  -1.387004
H    -6.241831  2.112819  -0.337689
H    -5.803783  1.831592  2.029909
N    -1.689592  1.875401  2.390791
C    -1.647939  3.326430  2.526358
H    -2.291570  1.491437  1.569333
H    -1.238850  3.763483  1.607205
H    -1.033346  3.622546  3.378859
H    -2.675569  3.688419  2.659849
Pb    0.699614  0.870300  6.068944
