36
Energy: -611335.260442 eV PBE+vdW (tier 2 basis)
C    0.304871  -0.432395  0.865811
C    0.832586  -0.966324  2.164176
O    2.105242  -1.104691  2.277581
H    -0.134701  -1.251331  0.276143
H    1.135432  -0.015377  0.288341
H    -0.461389  0.335549  1.015529
N    0.105972  -1.328599  3.236370
C    -1.195706  -1.986381  3.173006
C    -0.897985  -3.425233  2.662946
O    0.197576  -3.967309  2.989922
H    -6.181604  3.248529  4.313778
H    -1.485864  -2.139908  4.228550
C    -2.363188  -1.203435  2.522238
C    -3.729850  -1.494519  3.166831
C    -4.909017  -0.740828  2.529765
N    -4.912754  0.711925  2.751121
C    -5.645698  1.370683  3.663770
N    -6.212252  0.724589  4.690248
N    -5.808602  2.696228  3.550215
H    -2.406799  -1.373506  1.435005
H    -2.127783  -0.137844  2.655628
H    -3.677456  -1.263588  4.242967
H    -3.977583  -2.566565  3.109141
H    -5.862835  -1.142403  2.897403
H    -4.920862  -0.893721  1.441433
H    -4.398449  1.286848  2.092401
H    -6.925577  1.168701  5.256842
H    -5.961306  -0.225726  4.927804
H    -5.635302  3.179554  2.676875
N    -1.781939  -4.072425  1.910264
C    -1.608791  -5.438459  1.410252
H    -2.643188  -3.594028  1.670957
H    -2.271702  -6.127257  1.948607
H    -0.571132  -5.742158  1.565572
H    -1.846228  -5.468365  0.341251
Pb    1.896847  -2.614113  4.034525
