36
Energy: -611333.77156 eV PBE+vdW (tier 2 basis)
C    -0.884346  -0.881872  0.205580
C    -1.178312  -1.287270  1.607658
O    -0.581929  -2.333419  2.072748
H    -1.637388  -0.202540  -0.209344
H    -0.811096  -1.775200  -0.424706
H    0.101103  -0.390442  0.185881
N    -2.000360  -0.545753  2.340351
C    -2.438073  -0.795946  3.722058
C    -1.244613  -0.925240  4.677522
O    -0.797053  -2.072492  5.051635
H    -2.647836  0.113830  1.833745
H    -2.941769  0.137501  4.010376
C    -3.488401  -1.921996  3.871044
C    -4.928440  -1.434778  3.570745
C    -5.564927  -1.879238  2.240034
N    -4.720947  -1.798008  1.039952
C    -4.400711  -0.645874  0.326266
N    -4.302386  0.546384  1.104645
N    -4.014856  -0.565017  -0.890184
H    -3.444512  -2.289763  4.904817
H    -3.239698  -2.767991  3.207742
H    -4.957899  -0.339576  3.666569
H    -5.595770  -1.800392  4.362601
H    -6.515224  -1.333657  2.112918
H    -5.841548  -2.937672  2.326113
H    -4.859767  -2.585257  0.413963
H    -4.246401  1.332418  0.453418
H    -5.088870  0.698278  1.736883
H    -4.060363  -1.450818  -1.400153
N    -0.693476  0.160123  5.184824
C    -1.060643  1.562781  4.952257
H    0.066200  -0.015161  5.845055
H    -1.161588  1.768389  3.881354
H    -0.257165  2.189417  5.349160
H    -1.989638  1.815723  5.479705
Pb    -0.324681  -3.783113  3.705959
