36
Energy: -611332.692738 eV PBE+vdW (tier 2 basis)
C    -1.021348  1.435500  -0.189991
C    -0.688476  0.797957  1.103544
O    0.548928  0.881487  1.550384
H    -2.031565  1.863876  -0.171692
H    -1.011205  0.691912  -1.027138
H    -0.297498  2.219305  -0.430822
N    -1.544832  0.128183  1.830023
C    -2.965482  -0.127333  1.597202
C    -3.432064  -0.604127  3.007710
O    -2.557774  -0.908373  3.831809
H    -1.306728  -0.293869  2.763429
H    -3.467489  0.812812  1.319833
C    -3.182156  -1.194706  0.495774
C    -4.548688  -1.125825  -0.200317
C    -4.493180  -1.680547  -1.639579
N    -3.558361  -0.918714  -2.455115
C    -2.311811  -1.340346  -2.867133
N    -2.215164  -2.645122  -3.258833
N    -1.342391  -0.460670  -2.813923
H    -3.005851  -2.193901  0.918521
H    -2.399847  -1.034997  -0.257608
H    -4.897460  -0.080087  -0.252956
H    -5.317272  -1.683016  0.354121
H    -5.499937  -1.644026  -2.080975
H    -4.176825  -2.731349  -1.636764
H    -3.612166  0.094353  -2.388505
H    -1.314339  -2.984196  -3.574004
H    -3.017802  -3.099118  -3.682621
H    -0.486143  -0.808321  -3.256062
N    -4.750694  -0.681476  3.216471
C    -5.346231  -1.153179  4.466824
H    -5.377920  -0.361238  2.485807
H    -5.909700  -0.344524  4.947738
H    -4.542537  -1.480049  5.131230
H    -6.020163  -1.994724  4.268068
Pb    2.412411  1.184616  2.495092
