36
Energy: -611333.687007 eV PBE+vdW (tier 2 basis)
C    -0.349285  -1.235370  0.301856
C    -0.422735  -0.834314  1.735565
O    0.628936  -0.401006  2.316532
H    -0.020223  -0.369959  -0.290706
H    -1.303351  -1.600355  -0.092121
H    0.417270  -2.012676  0.181017
N    -1.591099  -0.921817  2.379986
C    -1.820420  -0.430821  3.741302
C    -1.121801  -1.333289  4.776862
O    -0.029004  -0.905386  5.320517
H    -2.405742  -1.224643  1.849078
H    -1.273538  0.520366  3.818456
C    -3.317875  -0.124229  4.059561
C    -4.366456  -0.440929  2.988130
C    -5.802234  -0.136458  3.498692
N    -6.177718  -0.891618  4.680671
C    -6.340955  -2.272652  4.689652
N    -7.127225  -2.770508  3.678193
N    -5.721470  -2.943777  5.614353
H    -3.373529  0.946318  4.296735
H    -3.586006  -0.650870  4.984638
H    -4.344312  -1.504720  2.694993
H    -4.202974  0.161277  2.079946
H    -6.506053  -0.334872  2.681688
H    -5.896580  0.931427  3.737762
H    -5.783440  -0.574520  5.561415
H    -7.321409  -3.765519  3.695714
H    -7.910638  -2.204161  3.365206
H    -6.037880  -3.916947  5.668298
N    -1.587990  -2.507052  5.150312
C    -2.764089  -3.241138  4.690024
H    -1.033234  -2.956524  5.881572
H    -2.561567  -4.307899  4.828719
H    -2.937714  -3.061459  3.625021
H    -3.687593  -2.981443  5.259199
Pb    1.670618  0.084071  4.263172
