36
Energy: -611335.458841 eV PBE+vdW (tier 2 basis)
C    0.055350  0.022104  0.668677
C    -0.571882  0.150814  2.018433
O    -0.038997  0.887513  2.897311
H    0.202274  1.024271  0.244967
H    -0.533577  -0.583801  -0.027873
H    1.053349  -0.423794  0.779714
N    -1.716544  -0.521741  2.262370
C    -2.433300  -0.387071  3.525573
C    -1.849805  -1.297501  4.620512
O    -1.037473  -0.790715  5.454054
H    -2.094692  -1.110071  1.524333
H    -2.175645  0.614073  3.879062
C    -3.962632  -0.419917  3.425280
C    -4.633091  0.791566  2.732716
C    -3.980963  2.185258  2.864236
N    -3.332602  2.433446  4.161590
C    -2.283806  3.270326  4.349723
N    -2.194949  4.354654  3.556057
N    -1.364438  2.957655  5.275811
H    -4.328920  -0.490141  4.460830
H    -4.317938  -1.340125  2.935066
H    -5.664107  0.835816  3.107131
H    -4.724308  0.607591  1.653944
H    -4.758160  2.936224  2.657766
H    -3.201754  2.312717  2.098796
H    -3.614515  1.903434  4.978914
H    -1.358816  4.927049  3.558829
H    -3.018376  4.754499  3.117770
H    -0.871028  3.791024  5.610021
N    -2.205817  -2.571107  4.678382
C    -1.722151  -3.543881  5.661840
H    -2.894817  -2.899881  4.006424
H    -2.550492  -3.862769  6.306139
H    -0.943674  -3.079580  6.270698
H    -1.315209  -4.417550  5.139979
Pb    0.212019  1.190405  5.229741
