36
Energy: -611335.333844 eV PBE+vdW (tier 2 basis)
C    -0.099580  -1.635133  -0.036433
C    0.630339  -0.695236  0.860395
O    1.888086  -0.768028  0.981288
H    -1.170820  -1.697503  0.177524
H    0.354714  -2.628766  0.071931
H    0.051038  -1.343295  -1.087117
N    -0.039877  0.244622  1.579226
C    -1.071499  1.109753  1.029858
C    -0.369594  2.185382  0.150512
O    0.895219  2.315608  0.132198
H    0.551235  0.707173  2.269663
H    -1.683906  0.509790  0.340731
C    -2.025777  1.659150  2.126281
C    -1.448108  2.083964  3.488219
C    -0.538411  3.320154  3.542498
N    0.816275  3.096425  3.027016
C    1.836195  2.454721  3.640759
N    1.774154  2.247488  4.969665
N    2.854226  2.013351  2.889834
H    -2.752892  0.860284  2.324091
H    -2.607958  2.490558  1.701255
H    -0.946263  1.233594  3.976389
H    -2.316604  2.297895  4.128196
H    -0.489878  3.695894  4.574218
H    -0.959941  4.148727  2.958357
H    1.018429  3.407799  2.084352
H    1.165256  2.800684  5.561982
H    2.495973  1.714294  5.439754
H    3.672519  1.764518  3.448665
N    -1.150162  2.954465  -0.595465
C    -0.698994  3.998832  -1.518305
H    -2.154108  2.794649  -0.544665
H    0.392435  4.011207  -1.541886
H    -1.072928  4.975682  -1.188304
H    -1.086405  3.789713  -2.522267
Pb    3.011130  1.296833  0.673182
