36
Energy: -611335.627134 eV PBE+vdW (tier 2 basis)
C    -1.753869  0.789312  0.276302
C    -1.792592  0.745574  1.768697
O    -1.314980  1.700689  2.443214
H    -2.265040  1.699154  -0.065811
H    -2.216465  -0.084191  -0.194968
H    -0.709102  0.868816  -0.052796
N    -2.352341  -0.327122  2.367981
C    -2.536776  -0.381991  3.813335
C    -1.243033  -0.807573  4.534988
O    -0.578555  0.095249  5.140360
H    -2.756478  -1.049886  1.778864
H    -2.660604  0.664854  4.114654
C    -3.830831  -1.070219  4.255406
C    -4.054389  -0.974682  5.775967
C    -3.789812  0.397165  6.418147
N    -4.465933  1.497858  5.720295
C    -3.983721  2.758478  5.581969
N    -4.899565  3.746993  5.490749
N    -2.671373  3.021827  5.512803
H    -3.875012  -2.122110  3.945901
H    -4.645053  -0.557145  3.722717
H    -3.421459  -1.700876  6.307992
H    -5.087492  -1.287444  5.983615
H    -2.721856  0.633787  6.448348
H    -4.127526  0.365522  7.465236
H    -5.477276  1.416075  5.656060
H    -4.636557  4.674205  5.179730
H    -5.847805  3.633478  5.831165
H    -2.527530  4.021455  5.676606
N    -0.796198  -2.054469  4.554931
C    -1.369081  -3.265196  3.964031
H    0.072929  -2.171137  5.077853
H    -0.552442  -3.968731  3.775188
H    -1.852205  -3.049625  3.007028
H    -2.086251  -3.739216  4.646348
Pb    -0.590119  2.364476  4.593177
