36
Energy: -611334.219497 eV PBE+vdW (tier 2 basis)
C    -0.846758  0.949067  0.303708
C    -0.760930  0.603447  1.753133
O    -0.236791  -0.520616  2.081683
H    -1.301909  1.926473  0.113836
H    -1.437256  0.172080  -0.203425
H    0.156793  0.920589  -0.141328
N    -1.246967  1.463389  2.646977
C    -1.494528  1.327152  4.099610
C    -0.226115  1.388162  4.954896
O    0.835517  0.694270  4.674850
H    -1.614151  2.323677  2.246702
H    -2.046354  2.248735  4.327439
C    -2.384708  0.122966  4.490788
C    -3.840232  0.151439  3.988551
C    -4.697693  1.394892  4.346516
N    -4.503478  1.900202  5.708802
C    -3.538292  2.835172  6.009444
N    -3.370089  3.847111  5.072033
N    -2.715613  2.811731  7.022148
H    -2.378754  0.086475  5.589667
H    -1.927118  -0.820038  4.155657
H    -4.323233  -0.745536  4.402758
H    -3.878436  0.023218  2.895919
H    -5.755473  1.138071  4.205700
H    -4.491343  2.213613  3.648234
H    -4.672315  1.225091  6.449830
H    -2.840057  4.627589  5.453549
H    -4.220077  4.161728  4.610234
H    -2.879942  2.007193  7.633214
N    -0.254443  2.139039  6.024999
C    0.855383  2.239255  6.973839
H    -1.191490  2.573539  6.350254
H    0.535677  2.889144  7.792741
H    1.123623  1.252539  7.372509
H    1.735817  2.674669  6.486395
Pb    1.310900  -1.135532  3.553773
