36
Energy: -611334.612135 eV PBE+vdW (tier 2 basis)
C    0.934287  -0.162135  0.016067
C    0.410468  -0.378527  1.400606
O    1.055377  -1.163662  2.173343
H    0.321717  0.518839  -0.583653
H    0.991800  -1.135461  -0.490817
H    1.959797  0.226024  0.073128
N    -0.714890  0.246209  1.754013
C    -1.551059  0.150686  2.981315
C    -0.892450  0.819850  4.199460
O    0.155825  0.211560  4.768534
H    -1.084473  0.870716  1.043232
H    -2.397593  0.802422  2.746967
C    -2.074329  -1.282629  3.216134
C    -3.058464  -1.415245  4.396181
C    -4.567430  -1.333921  4.091339
N    -5.050828  -0.173941  3.315606
C    -4.801218  1.116730  3.572757
N    -5.019824  2.048003  2.626374
N    -4.280601  1.520845  4.742168
H    -1.229406  -1.962522  3.391081
H    -2.536237  -1.633498  2.281488
H    -2.773569  -0.714174  5.193086
H    -2.933756  -2.411081  4.843707
H    -5.129298  -1.411953  5.035196
H    -4.859888  -2.206731  3.494988
H    -5.711281  -0.379549  2.571852
H    -5.152881  3.013371  2.909568
H    -5.340793  1.793068  1.699542
H    -4.272270  0.855337  5.506237
N    -1.413873  1.912863  4.622936
C    -0.812734  2.618175  5.748754
H    -3.435502  2.116583  4.700047
H    -1.606900  2.985877  6.411427
H    -0.291300  3.508340  5.367001
H    -0.104061  2.014454  6.328807
Pb    1.676413  -1.222507  4.336174
