36
Energy: -611334.802457 eV PBE+vdW (tier 2 basis)
C    -1.091922  1.324770  -2.439423
C    -1.296047  0.304442  -1.365793
O    -1.702420  -0.859443  -1.702725
H    -0.369491  0.942272  -3.172487
H    -0.748837  2.294027  -2.063186
H    -2.042190  1.462384  -2.974300
N    -1.065968  0.660239  -0.100465
C    -1.310601  -0.062912  1.173777
C    -0.303856  -1.177664  1.470136
O    -0.221866  -2.214604  0.630317
H    -0.703930  1.603122  0.009539
H    -1.073822  0.691598  1.927415
C    -2.790018  -0.493234  1.351002
C    -3.693878  0.607045  1.945796
C    -3.789170  0.613070  3.479894
N    -2.471032  0.724941  4.114086
C    -1.975769  -0.029494  5.113703
N    -2.798130  -0.583637  6.015415
N    -0.651723  -0.209134  5.156376
H    -2.811661  -1.381718  1.999656
H    -3.201857  -0.809306  0.384259
H    -4.720318  0.483231  1.574761
H    -3.375740  1.598797  1.585415
H    -4.241489  -0.326192  3.826186
H    -4.442849  1.435617  3.804711
H    -1.824745  1.413329  3.743770
H    -2.462702  -1.293710  6.656114
H    -3.709905  -0.183562  6.206415
H    -0.202630  -0.538431  6.003849
N    0.367781  -1.070324  2.558799
C    1.337984  -2.098095  2.918904
H    -0.142412  -0.286299  4.250916
H    2.314889  -1.617751  3.065593
H    1.437568  -2.898724  2.177197
H    1.054063  -2.544154  3.883317
Pb    -1.101356  -2.962037  -1.167095
