36
Energy: -611333.333261 eV PBE+vdW (tier 2 basis)
C    1.750082  2.897317  1.268463
C    1.505355  1.434814  1.367997
O    2.460045  0.628278  1.065021
H    1.101714  3.509738  1.904764
H    1.619387  3.217987  0.221625
H    2.807382  3.068430  1.509289
N    0.339615  0.887820  1.775186
C    -1.015583  1.252069  1.332912
C    -1.153674  0.729023  -0.119000
O    -0.197072  0.120925  -0.716614
H    0.435392  -0.103239  2.000854
H    -1.693994  0.650659  1.958704
C    -1.369787  2.738580  1.537837
C    -2.861864  3.069602  1.672883
C    -3.077278  4.405473  2.419676
N    -2.542714  5.583104  1.756358
C    -1.346081  6.168936  2.115343
N    -1.225525  7.488251  1.766157
N    -0.428048  5.437978  2.692088
H    -0.924624  3.356385  0.747782
H    -0.885336  3.051857  2.471907
H    -3.382513  2.293037  2.256942
H    -3.362856  3.137875  0.692218
H    -2.616986  4.333963  3.414296
H    -4.156039  4.553448  2.561389
H    -3.196031  6.154772  1.233932
H    -0.359219  7.964629  1.983416
H    -2.043549  8.085148  1.712004
H    0.352967  6.019883  3.005191
N    -2.302695  0.909042  -0.741179
C    -2.594273  0.454927  -2.104963
H    -3.033831  1.408454  -0.238598
H    -3.636231  0.695009  -2.330319
H    -2.448368  -0.628571  -2.182838
H    -1.941498  0.961612  -2.825596
Pb    1.909653  -0.797936  -0.618494
