36
Energy: -611334.06409 eV PBE+vdW (tier 2 basis)
C    0.041727  0.397476  0.108545
C    -0.331146  -0.139499  1.450372
O    0.032621  -1.331534  1.752736
H    1.132891  0.362801  -0.010683
H    -0.311002  1.419003  -0.066545
H    -0.379881  -0.266338  -0.660110
N    -1.042397  0.629903  2.273693
C    -1.712343  0.314828  3.553367
C    -0.757571  0.177535  4.744815
O    0.323430  -0.547391  4.691641
H    -1.245199  1.557855  1.909957
H    -2.286220  1.221188  3.773671
C    -2.740855  -0.838035  3.463336
C    -4.035763  -0.488403  2.693638
C    -4.689868  0.896726  2.862664
N    -5.393486  1.234601  4.115452
C    -4.707798  1.795830  5.184903
N    -5.093135  3.017101  5.603860
N    -3.717605  1.167193  5.784991
H    -2.978314  -1.141394  4.491150
H    -2.292046  -1.724444  2.991963
H    -4.776722  -1.267026  2.921950
H    -3.833290  -0.579805  1.615130
H    -5.453110  0.958772  2.077078
H    -3.966057  1.697372  2.619649
H    -6.314367  1.633328  3.950855
H    -4.802513  3.341416  6.518891
H    -5.694835  3.616407  5.053812
H    -3.844862  0.168964  5.609010
N    -1.113404  0.798298  5.834634
C    -0.393883  0.741354  7.101795
H    -2.145333  1.212310  5.859323
H    -1.126587  0.626581  7.908492
H    0.145547  1.685181  7.257928
H    0.319900  -0.086618  7.116831
Pb    1.027329  -2.255271  3.516388
