36
Energy: -611332.979752 eV PBE+vdW (tier 2 basis)
C    -3.806813  0.696186  -2.950125
C    -2.498299  0.933311  -2.283290
O    -1.484770  1.283108  -2.971841
H    -4.251855  1.655338  -3.256956
H    -4.515366  0.139743  -2.330119
H    -3.615666  0.140145  -3.878469
N    -2.356502  0.782319  -0.945871
C    -3.288532  1.326922  0.041445
C    -3.238115  2.869406  -0.099807
O    -2.257386  3.443287  -0.678889
H    -1.383483  0.774362  -0.632339
H    -4.303879  0.975000  -0.191761
C    -2.855689  0.840697  1.448815
C    -3.844630  1.024691  2.605571
C    -5.106015  0.138813  2.521795
N    -5.844931  0.106962  3.767971
C    -5.474170  -0.707777  4.828283
N    -6.269221  -0.637747  5.930569
N    -4.451139  -1.517857  4.871491
H    -1.903901  1.332414  1.705100
H    -2.634441  -0.232561  1.339114
H    -4.127761  2.079241  2.747186
H    -3.304079  0.758555  3.525103
H    -4.819330  -0.883077  2.213744
H    -5.801971  0.498200  1.749408
H    -6.807542  0.423279  3.741643
H    -6.013129  -1.225982  6.715101
H    -6.947113  0.097429  6.081471
H    -3.954592  -1.582860  3.980334
N    -4.233189  3.570429  0.418148
C    -4.340782  5.031241  0.439199
H    -4.981797  3.049299  0.868324
H    -5.289116  5.333822  -0.019643
H    -3.506660  5.462513  -0.117102
H    -4.311637  5.388618  1.475811
Pb    -0.528216  3.253065  -2.230281
