36
Energy: -611335.556727 eV PBE+vdW (tier 2 basis)
C    0.686156  -0.609375  0.722193
C    0.153849  0.586991  1.449516
O    0.845269  1.645801  1.493785
H    0.038355  -1.489664  0.787025
H    1.674777  -0.860178  1.128906
H    0.833375  -0.348927  -0.334704
N    -1.038876  0.464923  2.052631
C    -1.788153  1.424119  2.892580
C    -2.326614  2.594045  2.039774
O    -1.571532  3.533040  1.657284
H    -1.480263  -0.443931  1.948429
H    -2.641802  0.836500  3.253566
C    -1.045735  2.014449  4.108802
C    0.022765  1.171515  4.806187
C    0.901075  2.059922  5.713936
N    1.425874  3.224751  4.991867
C    2.429611  3.242656  4.084456
N    3.505110  2.460323  4.298044
N    2.303883  4.044133  3.016890
H    -1.822036  2.311703  4.830013
H    -0.584196  2.950338  3.774222
H    0.675841  0.681085  4.071023
H    -0.422910  0.374383  5.416935
H    1.721260  1.469720  6.138837
H    0.328272  2.447823  6.565558
H    0.824919  4.039613  4.937068
H    4.224965  2.376813  3.590773
H    3.747734  2.153708  5.234223
H    3.212500  4.326542  2.637262
N    -3.622490  2.590317  1.754041
C    -4.310108  3.626811  0.981405
H    -4.181956  1.810509  2.088496
H    -5.321704  3.751200  1.379944
H    -4.372339  3.338094  -0.075791
H    -3.760707  4.567729  1.068966
Pb    0.756408  3.932028  1.239647
