36
Energy: -611333.733657 eV PBE+vdW (tier 2 basis)
C    -3.522732  1.453724  0.806425
C    -2.416812  0.464432  0.961845
O    -1.378200  0.568929  0.233680
H    -3.118087  2.459030  0.991739
H    -4.364606  1.274809  1.483213
H    -3.879025  1.442699  -0.232287
N    -2.538098  -0.498435  1.885933
C    -1.487256  -1.436018  2.315528
C    -1.446711  -2.638860  1.351277
O    -0.890384  -2.512482  0.209777
H    -3.403205  -0.508199  2.421762
H    -0.523140  -0.920748  2.175216
C    -1.639210  -1.768347  3.807390
C    -1.420975  -0.554229  4.722179
C    -1.422303  -0.935129  6.220901
N    -1.201736  0.204247  7.085604
C    -2.152567  1.163911  7.402206
N    -3.455281  0.706913  7.514079
N    -1.722322  2.377488  7.537064
H    -0.898453  -2.545032  4.052949
H    -2.635606  -2.204362  4.003378
H    -2.197253  0.208399  4.558972
H    -0.457023  -0.079956  4.479714
H    -2.372976  -1.419219  6.481540
H    -0.631209  -1.672150  6.422326
H    -0.269854  0.613461  7.080745
H    -4.118680  1.398945  7.848009
H    -3.588202  -0.198030  7.959237
H    -2.446328  3.031541  7.847936
N    -1.992271  -3.783847  1.716173
C    -2.045922  -5.004487  0.907919
H    -2.396773  -3.829860  2.648755
H    -1.559536  -5.821718  1.453432
H    -1.530906  -4.834550  -0.039379
H    -3.092603  -5.271997  0.718785
Pb    0.021366  -0.767440  -0.943279
