36
Energy: -611335.2147 eV PBE+vdW (tier 2 basis)
C    -0.343194  -0.212256  -0.353231
C    -0.136337  -0.088353  1.116187
O    1.033474  -0.155481  1.611226
H    -0.007496  0.707182  -0.856628
H    -1.380999  -0.423426  -0.627963
H    0.304856  -1.017439  -0.724279
N    -1.173992  0.075010  1.965757
C    -2.283792  1.000352  1.790716
C    -1.717126  2.421664  2.032296
O    -0.582112  2.577478  2.585943
H    -0.884436  0.036640  2.951355
H    -2.648308  0.935105  0.755994
C    -3.455043  0.637925  2.734687
C    -3.266540  0.787540  4.259116
C    -2.436138  -0.278630  4.998066
N    -0.976021  -0.087393  4.891314
C    -0.267132  0.881893  5.562585
N    -0.861908  1.543750  6.566504
N    0.970187  1.134140  5.141120
H    -3.743839  -0.395115  2.490705
H    -4.314719  1.257706  2.449309
H    -2.893826  1.793016  4.511458
H    -4.274723  0.739872  4.694481
H    -2.644359  -1.276855  4.591965
H    -2.750256  -0.326527  6.052515
H    -0.421004  -0.924520  4.726521
H    -0.403965  2.333738  7.007092
H    -1.670556  1.162925  7.046325
H    1.528892  1.634295  5.837350
N    -2.421078  3.489867  1.678769
C    -3.727566  3.565690  1.021227
H    -1.973412  4.378730  1.903580
H    -3.727611  4.434136  0.354534
H    -4.532534  3.688279  1.757147
H    -3.917339  2.673542  0.417036
Pb    1.615805  1.697124  2.947599
