36
Energy: -611334.897153 eV PBE+vdW (tier 2 basis)
C    0.202380  0.192330  -0.034723
C    0.066026  -0.076766  1.430194
O    1.042597  -0.636891  2.036160
H    -0.677217  0.671821  -0.476395
H    0.386372  -0.762584  -0.546952
H    1.085954  0.819959  -0.210007
N    -1.074418  0.263192  2.032411
C    -1.587183  -0.014868  3.396660
C    -0.952397  0.845395  4.495252
O    0.375271  0.883811  4.605262
H    -1.742862  0.726745  1.423654
H    -2.630005  0.313126  3.344419
C    -1.593589  -1.519404  3.750361
C    -2.357602  -1.823101  5.050753
C    -3.870635  -2.042316  4.942221
N    -4.696143  -1.005323  4.267552
C    -5.219611  0.086297  4.883513
N    -6.492081  0.424930  4.619559
N    -4.470199  0.811872  5.710807
H    -0.564199  -1.892556  3.846300
H    -2.027878  -2.070869  2.903018
H    -2.140553  -1.056107  5.806297
H    -1.968963  -2.761580  5.471611
H    -4.272366  -2.206563  5.952092
H    -4.061420  -2.959277  4.370512
H    -5.271530  -1.364536  3.512207
H    -6.851699  1.342682  4.857386
H    -7.161819  -0.256549  4.280867
H    -4.931614  1.520373  6.273031
N    -1.758750  1.428518  5.306580
C    -1.251172  2.217788  6.421612
H    -3.432356  0.960901  5.534446
H    -1.759486  1.904149  7.343807
H    -1.508926  3.273364  6.255560
H    -0.167273  2.137558  6.562383
Pb    2.121670  -0.165823  3.948895
