36
Energy: -611334.800108 eV PBE+vdW (tier 2 basis)
C    1.135618  1.255199  0.503901
C    0.555582  0.559888  1.692410
O    1.275734  -0.273521  2.370147
H    2.062016  1.771981  0.787310
H    0.441958  1.968959  0.048564
H    1.406457  0.498616  -0.246507
N    -0.701398  0.769419  2.009703
C    -1.495739  0.164735  3.079984
C    -2.878718  0.862970  2.893595
O    -2.914561  1.881702  2.191400
H    -1.287743  1.479381  1.520897
H    -1.576203  -0.916281  2.893753
C    -0.908189  0.386100  4.491301
C    -0.556598  1.842489  4.824672
C    0.485809  1.970860  5.934302
N    1.877004  1.692342  5.456521
C    2.506345  2.623223  4.553853
N    2.212157  3.920291  4.629176
N    3.320996  2.044018  3.710948
H    -0.025028  -0.261677  4.590889
H    -1.627101  0.001670  5.226827
H    -1.458429  2.383134  5.141856
H    -0.204607  2.378577  3.929662
H    0.299085  1.247805  6.739375
H    0.432143  2.964005  6.408682
H    2.492962  1.568616  6.267687
H    2.614048  4.593277  3.982730
H    1.663007  4.297995  5.394328
H    3.901702  2.640532  3.119212
N    -3.957378  0.353029  3.507935
C    -4.093467  -0.880620  4.275766
H    -4.804437  0.895692  3.347573
H    -5.063056  -1.335243  4.045581
H    -4.049005  -0.694900  5.358060
H    -3.319741  -1.605312  4.000882
Pb    2.900614  -0.270001  3.875583
