36
Energy: -611334.324236 eV PBE+vdW (tier 2 basis)
C    -1.703446  0.202136  0.530037
C    -0.812585  0.368255  1.716072
O    0.432317  0.102128  1.580636
H    -2.749385  0.456365  0.730159
H    -1.644833  -0.842955  0.193368
H    -1.328727  0.821165  -0.296157
N    -1.351764  0.767486  2.869517
C    -0.766978  0.878588  4.228233
C    0.177711  2.077667  4.360398
O    1.307272  2.132679  3.718181
H    -2.346901  0.968955  2.818325
H    -1.628690  1.133250  4.854185
C    -0.169274  -0.446850  4.763141
C    -1.228394  -1.460910  5.256217
C    -1.706866  -1.311486  6.718669
N    -2.366594  -0.043109  7.034976
C    -1.707116  1.140197  7.249356
N    -0.439491  1.052029  7.782613
N    -2.133015  2.330948  6.896881
H    0.519345  -0.197242  5.582869
H    0.429731  -0.929762  3.976520
H    -0.805454  -2.472190  5.168859
H    -2.099531  -1.451789  4.580913
H    -0.865271  -1.470992  7.405287
H    -2.419123  -2.117506  6.936184
H    -3.316333  0.056440  6.690317
H    -0.125213  1.928305  8.189337
H    -0.248755  0.256617  8.383979
H    -3.085301  2.320211  6.524260
N    -0.170128  3.032507  5.177125
C    0.650868  4.213306  5.438005
H    -1.036968  2.870540  5.835756
H    0.159872  4.797626  6.220904
H    0.739699  4.826896  4.532957
H    1.657628  3.925452  5.766952
Pb    2.398090  0.858827  2.305904
