36
Energy: -611335.645097 eV PBE+vdW (tier 2 basis)
C    -0.880351  0.038204  -0.133793
C    -1.338879  0.381174  1.245896
O    -1.122224  1.534464  1.718615
H    -1.170061  -0.968665  -0.452048
H    0.212759  0.134518  -0.183489
H    -1.294889  0.773501  -0.836682
N    -2.000179  -0.558908  1.952183
C    -2.605645  -0.300636  3.261360
C    -1.546179  -0.517766  4.361347
O    -0.781957  0.441247  4.687757
H    -2.134528  -1.469662  1.519714
H    -2.792604  0.776442  3.270292
C    -3.954721  -1.019536  3.436058
C    -4.728710  -0.620276  4.710252
C    -5.507022  0.713929  4.657969
N    -4.731922  1.873430  4.193134
C    -3.641261  2.400375  4.791461
N    -3.352248  2.033750  6.061695
N    -2.777947  3.205627  4.154619
H    -3.814953  -2.113140  3.429281
H    -4.559736  -0.804978  2.541586
H    -4.050910  -0.636015  5.576789
H    -5.477680  -1.397056  4.917561
H    -5.951402  0.924896  5.642746
H    -6.354221  0.628112  3.967063
H    -4.893572  2.168413  3.236632
H    -2.735412  2.649268  6.580294
H    -4.052331  1.560848  6.621924
H    -3.170990  3.577355  3.285989
N    -1.426481  -1.714991  4.915233
C    -0.422054  -2.093469  5.911813
H    -2.076449  -2.437573  4.616214
H    -0.920061  -2.522303  6.788906
H    0.143597  -1.206411  6.204053
H    0.259418  -2.840326  5.486263
Pb    -0.535119  2.575756  3.746980
