36
Energy: -611333.926591 eV PBE+vdW (tier 2 basis)
C    -2.240730  2.140993  0.604536
C    -1.542400  1.435186  1.709197
O    -0.254204  1.306243  1.645806
H    -1.918449  3.192753  0.593204
H    -3.332186  2.085201  0.718365
H    -1.928916  1.706444  -0.354611
N    -2.239572  0.960277  2.731857
C    -1.625417  0.310731  3.889267
C    -0.941532  -1.001485  3.458525
O    0.347012  -1.062006  3.498256
H    -3.272074  1.238949  2.883843
H    -0.800162  0.944107  4.260389
C    -2.627499  0.113844  5.044536
C    -3.119902  1.384594  5.767269
C    -3.804145  2.476005  4.920637
N    -4.561615  1.895703  3.801880
C    -5.219863  2.725157  2.821085
N    -5.481343  4.010818  3.202119
N    -5.396509  2.158962  1.681970
H    -2.134931  -0.522401  5.794020
H    -3.487491  -0.463704  4.684198
H    -2.291277  1.852911  6.317036
H    -3.820089  1.032620  6.538460
H    -3.056929  3.154902  4.484716
H    -4.419867  3.086459  5.601308
H    -5.201841  1.152097  4.083239
H    -5.642263  4.235594  4.177815
H    -5.961818  4.613457  2.542796
H    -5.969578  2.719594  1.044505
N    -1.601012  -2.066484  3.046460
C    -3.040541  -2.288545  2.869528
H    -0.997120  -2.859661  2.821926
H    -3.483103  -2.705131  3.782766
H    -3.167356  -3.012831  2.058567
H    -3.547860  -1.362035  2.586961
Pb    1.618866  0.445647  2.433191
