36
Energy: -611334.372785 eV PBE+vdW (tier 2 basis)
C    0.224075  1.083493  1.075445
C    -0.164700  -0.058690  1.950336
O    0.698196  -0.954958  2.250906
H    -0.222071  2.025149  1.410394
H    -0.121761  0.890260  0.046075
H    1.315120  1.164109  1.054371
N    -1.425000  -0.193484  2.407357
C    -2.628885  -0.060458  1.545818
C    -2.388469  -0.902262  0.272378
O    -1.689201  -2.040581  0.451288
H    -1.511141  -0.911832  3.125222
H    -3.407155  -0.587320  2.121077
C    -3.115724  1.375539  1.308601
C    -4.631704  1.416758  1.073200
C    -5.174647  2.765721  0.602568
N    -4.541783  3.361385  -0.599444
C    -4.581341  2.879587  -1.858256
N    -4.673109  3.747141  -2.879897
N    -4.509103  1.566945  -2.097085
H    -2.583990  1.813436  0.452931
H    -2.861847  1.976656  2.193278
H    -5.158007  1.189536  2.012987
H    -4.932539  0.627866  0.371980
H    -5.033666  3.518192  1.388346
H    -6.257367  2.677751  0.430169
H    -4.385091  4.362379  -0.537499
H    -4.443985  3.471920  -3.827889
H    -5.038123  4.683141  -2.746893
H    -4.723252  1.230922  -3.029180
N    -2.877636  -0.521350  -0.846864
C    -2.703087  -1.339831  -2.041216
H    -3.999936  0.910645  -1.468950
H    -3.677414  -1.758270  -2.334200
H    -1.999267  -2.170848  -1.916457
H    -2.359988  -0.700816  -2.866191
Pb    0.041687  -2.977350  1.342102
