36
Energy: -611335.720105 eV PBE+vdW (tier 2 basis)
C    -1.154871  0.062303  -0.261180
C    -1.265283  0.355334  1.199214
O    -0.707208  1.385179  1.681411
H    -1.506666  0.937003  -0.824653
H    -1.723421  -0.820280  -0.572206
H    -0.096769  -0.077111  -0.521183
N    -1.982553  -0.485214  1.968863
C    -2.279415  -0.231733  3.380995
C    -1.176127  -0.856138  4.252115
O    -0.097433  -0.210248  4.426274
H    -2.400818  -1.296710  1.520188
H    -2.130751  0.844109  3.505002
C    -3.749053  -0.521560  3.710960
C    -4.213730  -0.119379  5.127841
C    -3.626280  1.170177  5.734739
N    -3.688916  2.351984  4.870112
C    -2.621669  2.997658  4.342164
N    -2.832896  3.831718  3.300680
N    -1.362071  2.806963  4.756578
H    -4.003060  -1.580501  3.539856
H    -4.331824  0.035893  2.963570
H    -3.988233  -0.916082  5.851860
H    -5.310092  -0.051335  5.106669
H    -2.576907  1.009460  6.008916
H    -4.150947  1.389981  6.674124
H    -4.611210  2.739132  4.687679
H    -2.174841  4.587420  3.148689
H    -3.752710  3.942813  2.889519
H    -1.333064  2.456746  5.715885
N    -1.363538  -2.058242  4.776364
C    -0.381513  -2.798469  5.572374
H    -2.251947  -2.517019  4.590934
H    -0.839037  -3.112930  6.517202
H    0.475779  -2.152220  5.772493
H    -0.050111  -3.687017  5.021002
Pb    0.493380  1.936391  3.601644
