36
Energy: -611333.250737 eV PBE+vdW (tier 2 basis)
C    -0.351072  0.439032  2.495880
C    -1.081869  -0.238468  3.601731
O    -0.551853  -0.290791  4.769042
H    -1.012052  1.062345  1.885393
H    0.108446  -0.313596  1.833483
H    0.454371  1.045200  2.921745
N    -2.280656  -0.828133  3.424161
C    -2.642620  -1.686761  2.281160
C    -1.624371  -2.867272  2.276030
O    -0.878401  -3.074564  3.313877
H    -2.732760  -1.085787  4.301387
H    -3.612977  -2.121212  2.568796
C    -2.839230  -0.950937  0.935030
C    -4.009855  -1.516414  0.110304
C    -3.880463  -1.262770  -1.406393
N    -2.588304  -1.634595  -1.977316
C    -1.978341  -2.867128  -1.931063
N    -2.764161  -3.905081  -1.368983
N    -0.762456  -3.163396  -2.232614
H    -1.912532  -0.989621  0.345823
H    -3.034470  0.105669  1.158066
H    -4.955543  -1.068775  0.447438
H    -4.116307  -2.595072  0.291001
H    -4.011025  -0.194127  -1.617726
H    -4.711232  -1.770935  -1.923758
H    -2.077240  -0.915803  -2.475111
H    -2.352592  -4.797858  -1.644687
H    -3.747059  -3.887596  -1.642097
H    -0.224096  -2.370806  -2.591477
N    -1.531376  -3.650750  1.232112
C    -0.587263  -4.762568  1.095615
H    -2.172646  -3.557650  0.408415
H    0.243373  -4.643678  1.794043
H    -0.215291  -4.755615  0.063919
H    -1.097297  -5.714358  1.294983
Pb    -0.065748  -2.448422  5.322254
