36
Energy: -611333.090664 eV PBE+vdW (tier 2 basis)
C    -0.197276  1.440287  0.156755
C    -0.403036  0.367566  1.166066
O    0.574053  -0.027578  1.885884
H    -0.055015  2.409790  0.658530
H    -1.010130  1.513824  -0.571095
H    0.745777  1.230121  -0.367453
N    -1.613023  -0.208926  1.340875
C    -2.866662  0.538587  1.454020
C    -2.758842  1.388298  2.745311
O    -1.897934  1.117787  3.649074
H    -1.589322  -1.062679  1.902214
H    -2.962191  1.214398  0.591058
C    -4.045811  -0.461131  1.458942
C    -5.443987  0.149711  1.321174
C    -6.555754  -0.915343  1.147640
N    -6.424076  -1.726697  -0.049017
C    -5.679854  -2.887666  -0.176884
N    -5.439695  -3.590725  0.993080
N    -5.146872  -3.319113  -1.276427
H    -3.992233  -1.083563  2.366698
H    -3.858880  -1.133075  0.608563
H    -5.474096  0.829953  0.453604
H    -5.712924  0.740922  2.210686
H    -7.525749  -0.401966  1.108975
H    -6.585165  -1.563970  2.031443
H    -6.680214  -1.289036  -0.928165
H    -4.994492  -4.483647  0.792568
H    -6.224219  -3.686944  1.632730
H    -5.354219  -2.734095  -2.090938
N    -3.591921  2.401200  2.905061
C    -3.630408  3.268869  4.088212
H    -4.256632  2.590752  2.159276
H    -4.478366  3.950698  3.986875
H    -2.705653  3.853729  4.162982
H    -3.752553  2.666926  4.995462
Pb    0.155039  0.150062  4.144669
