36
Energy: -611335.036268 eV PBE+vdW (tier 2 basis)
C    -0.242110  -1.503948  1.288608
C    0.193922  -0.187830  1.831291
O    1.374847  0.233362  1.631157
H    -0.434365  -1.414622  0.208314
H    -1.131237  -1.903691  1.785753
H    0.589549  -2.212368  1.394580
N    -0.643271  0.583713  2.566741
C    -2.030305  0.872379  2.232978
C    -2.011858  1.881573  1.055213
O    -0.935082  2.455995  0.696718
H    -0.158076  1.400618  2.941868
H    -2.487292  -0.051324  1.852933
C    -2.851211  1.342198  3.483658
C    -2.055711  1.795833  4.719984
C    -1.412796  3.209243  4.658625
N    0.002558  3.231347  5.044682
C    1.052540  3.173624  4.195713
N    2.247264  2.765722  4.669644
N    0.934386  3.471333  2.894137
H    -3.476902  0.495656  3.792447
H    -3.549886  2.135119  3.184103
H    -1.282589  1.052427  4.960084
H    -2.752967  1.765924  5.566949
H    -1.939969  3.899493  5.327340
H    -1.513432  3.645496  3.656661
H    0.202488  3.208037  6.040927
H    3.093142  3.081591  4.209881
H    2.349595  2.414690  5.615287
H    0.111356  4.051702  2.723912
N    -3.134871  2.138149  0.395174
C    -4.476398  1.583760  0.590016
H    -3.029807  2.816633  -0.359826
H    -4.926885  1.412768  -0.393469
H    -5.110966  2.281491  1.151372
H    -4.436644  0.627602  1.119441
Pb    1.462620  2.462328  0.857534
