36
Energy: -611334.66273 eV PBE+vdW (tier 2 basis)
C    0.746295  0.065610  -0.489153
C    0.215624  -0.533474  0.774442
O    0.518763  -1.744171  1.045676
H    0.422944  1.098418  -0.655104
H    0.418352  -0.555388  -1.334383
H    1.843689  0.026816  -0.476520
N    -0.567206  0.219779  1.550867
C    -1.346366  -0.111718  2.771106
C    -0.492352  -0.277362  4.037904
O    0.467498  -1.204936  4.054681
H    -0.680771  1.174534  1.223751
H    -1.911050  0.806046  2.952224
C    -2.342605  -1.276252  2.551029
C    -3.637491  -0.921231  1.788011
C    -4.836686  -0.397234  2.604804
N    -4.810069  1.028391  2.973446
C    -4.096615  1.574062  3.971184
N    -3.843969  2.894477  3.971106
N    -3.582390  0.834368  4.963753
H    -2.594765  -1.697157  3.535662
H    -1.837506  -2.084129  2.004983
H    -3.998928  -1.841632  1.307510
H    -3.425144  -0.227271  0.959824
H    -4.998708  -1.015179  3.500635
H    -5.745728  -0.521754  2.004979
H    -5.390512  1.650452  2.419063
H    -3.605025  3.350886  4.845052
H    -4.127964  3.489306  3.201492
H    -3.923557  -0.116186  5.052778
N    -0.801358  0.460877  5.041686
C    -0.071039  0.350845  6.298103
H    -2.558971  0.943562  5.187332
H    -0.787878  0.334869  7.129226
H    0.542883  1.253680  6.428026
H    0.578870  -0.530150  6.357504
Pb    1.283110  -2.796463  2.887858
