36
Energy: -611335.282471 eV PBE+vdW (tier 2 basis)
C    0.232609  0.689311  1.251101
C    1.154467  -0.195817  2.035798
O    2.413249  0.058010  1.980421
H    -0.653065  0.980003  1.825749
H    -0.100855  0.166567  0.341537
H    0.779294  1.584065  0.938367
N    0.801710  -1.247933  2.795702
C    -0.276165  -2.178596  2.474248
C    0.247256  -3.004244  1.266355
O    1.489149  -3.227824  1.170895
H    -7.220924  0.352379  3.276751
H    -0.276496  -2.907603  3.305389
C    -1.716473  -1.611776  2.407054
C    -2.785327  -2.611622  2.882598
C    -4.217720  -2.066333  2.916285
N    -4.405787  -1.094969  4.004225
C    -5.469160  -0.283785  4.138684
N    -5.496879  0.616293  5.131556
N    -6.486708  -0.346472  3.272088
H    -1.959722  -1.240892  1.399704
H    -1.732662  -0.729962  3.062755
H    -2.521721  -2.994710  3.882685
H    -2.811266  -3.506135  2.242124
H    -4.914955  -2.909960  3.044644
H    -4.455425  -1.566335  1.965060
H    -3.820811  -1.211019  4.826547
H    -6.351326  1.100854  5.380703
H    -4.672478  0.827605  5.680126
H    -6.624427  -1.150684  2.673132
N    -0.585738  -3.489650  0.352730
C    -0.145209  -4.307520  -0.782830
H    -1.574438  -3.288332  0.440061
H    -1.013157  -4.527709  -1.409580
H    0.297335  -5.245875  -0.428409
H    0.602898  -3.765309  -1.372199
Pb    2.989599  -2.085556  2.673028
