36
Energy: -611335.056883 eV PBE+vdW (tier 2 basis)
C    0.474656  1.037528  0.570846
C    0.582353  0.052099  1.687116
O    1.749046  -0.254168  2.119732
H    1.194185  1.846169  0.746862
H    -0.528799  1.458535  0.458432
H    0.764575  0.556497  -0.374981
N    -0.494720  -0.497347  2.237851
C    -1.899752  -0.467921  1.827937
C    -2.664914  -1.105158  3.012814
O    -2.103868  -1.981008  3.707982
H    -0.352918  -1.111074  3.046611
H    -2.223538  0.576788  1.720331
C    -2.195768  -1.209937  0.477744
C    -1.257115  -2.330237  -0.006092
C    -1.211672  -3.667243  0.756808
N    -0.619528  -3.579167  2.097038
C    0.663923  -3.511461  2.408589
N    1.693618  -3.573352  1.422731
N    1.168413  -3.276878  3.613006
H    -2.201071  -0.448489  -0.313539
H    -3.227611  -1.587733  0.526170
H    -0.234943  -1.934117  -0.124572
H    -1.581784  -2.576636  -1.028016
H    -0.664069  -4.415504  0.167164
H    -2.223007  -4.071484  0.892811
H    -1.258237  -3.211246  2.834306
H    2.228674  -4.444137  1.485637
H    1.393255  -3.431937  0.457869
H    0.517741  -3.308697  4.400303
N    -3.914715  -0.686192  3.205035
C    -4.815235  -1.218248  4.228709
H    -4.265304  0.068527  2.621584
H    -5.097619  -0.420997  4.926355
H    -4.298026  -2.011651  4.773268
H    -5.719612  -1.621069  3.757592
Pb    2.987771  -1.922870  3.076068
