36
Energy: -611335.702371 eV PBE+vdW (tier 2 basis)
C    -1.109922  -0.245147  -0.182753
C    -0.692446  -0.022818  1.236884
O    0.538612  -0.047212  1.540304
H    -2.191616  -0.181834  -0.340234
H    -0.762572  -1.240803  -0.493497
H    -0.603799  0.482571  -0.830180
N    -1.664011  0.174401  2.148313
C    -1.548634  0.189982  3.622922
C    -0.951699  1.512656  4.131636
O    0.244288  1.866918  3.918408
H    -2.611773  0.173207  1.782243
H    -2.586117  0.150271  3.981137
C    -0.802642  -1.063147  4.126229
C    -0.334484  -1.050902  5.588290
C    0.926930  -1.918080  5.764479
N    2.019467  -1.448709  4.905852
C    2.846371  -0.406352  5.138828
N    3.225256  -0.147930  6.405657
N    3.256249  0.327234  4.094042
H    0.063783  -1.189529  3.469948
H    -1.456918  -1.925655  3.940419
H    -1.119224  -1.419800  6.262481
H    -0.089097  -0.031700  5.923817
H    0.732072  -2.964871  5.498686
H    1.242346  -1.921532  6.814081
H    2.013140  -1.751098  3.937941
H    3.772107  0.677841  6.616787
H    3.210936  -0.875328  7.112486
H    4.139220  0.810119  4.279964
N    -1.750331  2.283016  4.861046
C    -1.341512  3.563226  5.443414
H    -2.703306  1.972451  5.024642
H    -2.165347  3.945936  6.050939
H    -1.108775  4.286113  4.652180
H    -0.455921  3.427131  6.074739
Pb    2.035038  1.478420  2.473478
