36
Energy: -611334.718437 eV PBE+vdW (tier 2 basis)
C    0.024915  0.496880  -0.316624
C    -0.110487  0.362039  1.165618
O    0.936904  0.332762  1.923302
H    0.575966  1.415827  -0.560906
H    -0.941959  0.517719  -0.828869
H    0.611104  -0.349725  -0.700267
N    -1.304372  0.236710  1.694736
C    -1.656157  0.086595  3.104342
C    -3.208912  -0.057585  3.035146
O    -3.767193  0.199783  1.963854
H    -2.184993  0.268116  1.133380
H    -1.210825  -0.845073  3.486484
C    -1.191453  1.292435  3.971125
C    -0.052763  0.947462  4.943262
C    0.746273  2.132804  5.475062
N    1.687008  2.725951  4.462737
C    1.224029  3.707819  3.506796
N    0.394904  4.673529  3.903423
N    1.710763  3.516289  2.311004
H    -2.044495  1.693301  4.535810
H    -0.902807  2.092512  3.276050
H    0.642461  0.233391  4.476640
H    -0.464959  0.424891  5.818757
H    1.388363  1.800501  6.299716
H    0.081585  2.906091  5.892819
H    2.485685  3.132286  4.962356
H    0.170752  4.812404  4.883172
H    0.045651  5.373153  3.254303
H    1.522441  4.221948  1.596856
N    -3.868413  -0.446878  4.139089
C    -3.326946  -0.841686  5.433302
H    -4.877988  -0.490973  4.016175
H    -4.031418  -1.529614  5.911263
H    -3.184188  0.018384  6.103900
H    -2.377336  -1.378451  5.319673
Pb    2.803552  1.422435  2.429787
