36
Energy: -611334.830001 eV PBE+vdW (tier 2 basis)
C    -1.857209  -1.979211  -0.039596
C    -1.253058  -1.491689  1.242370
O    -0.145981  -1.889976  1.645730
H    -1.259147  -1.582820  -0.872685
H    -2.899762  -1.673497  -0.180756
H    -1.781892  -3.071675  -0.083158
N    -1.973108  -0.579004  1.968812
C    -1.389699  0.257530  3.022446
C    -1.105367  -0.523932  4.322740
O    -1.510217  -0.025840  5.442536
H    -2.856740  -0.270260  1.577500
H    -0.384108  0.561350  2.676103
C    -2.199823  1.550434  3.216254
C    -3.710307  1.460467  3.520034
C    -4.154850  1.308479  4.979056
N    -3.687070  2.435636  5.799890
C    -3.456098  2.452078  7.122064
N    -3.584834  3.627236  7.767309
N    -3.094631  1.342369  7.813692
H    -2.080395  2.113041  2.279982
H    -1.695094  2.153827  3.983066
H    -4.192655  0.642898  2.963280
H    -4.179768  2.372344  3.119338
H    -3.792556  0.379769  5.420060
H    -5.255249  1.283672  5.011579
H    -3.828438  3.350937  5.377662
H    -3.191035  3.765640  8.690563
H    -4.067980  4.418214  7.355008
H    -3.296601  1.477600  8.807603
N    -0.405437  -1.623685  4.211238
C    0.009933  -2.469881  5.314423
H    -0.132067  -1.851546  3.192243
H    0.593832  -3.304899  4.916312
H    -0.860007  -2.893499  5.842808
H    0.648940  -1.918749  6.022563
Pb    -1.666475  -0.406054  7.626607
