36
Energy: -611335.051478 eV PBE+vdW (tier 2 basis)
C    0.314346  -0.754473  -0.292763
C    -0.179168  -0.200705  1.004236
O    0.505364  -0.354819  2.104914
H    1.297975  -0.326042  -0.533634
H    -0.365434  -0.539775  -1.123333
H    0.421576  -1.846611  -0.215221
N    -1.309049  0.455239  1.043181
C    -1.989389  1.002883  2.211988
C    -3.432485  1.237508  1.654724
O    -3.594189  1.151776  0.432478
H    -1.943904  0.575120  0.214582
H    -2.007135  0.236929  3.002828
C    -1.341236  2.315823  2.742684
C    -1.327244  2.429956  4.286840
C    0.067261  2.387630  4.917561
N    0.784469  1.166708  4.532795
C    1.952536  0.751039  5.028715
N    2.504039  1.385284  6.074433
N    2.573565  -0.321867  4.465997
H    -1.874430  3.169491  2.306906
H    -0.318611  2.387889  2.345542
H    -1.939517  1.635104  4.740470
H    -1.784115  3.376880  4.599671
H    -0.044841  2.418800  6.012107
H    0.650778  3.271587  4.610012
H    0.460562  0.671528  3.700123
H    2.045703  2.167624  6.526296
H    3.390442  1.090419  6.465178
H    3.392002  -0.608009  5.006343
N    -4.385146  1.549031  2.542056
C    -5.769682  1.843493  2.167562
H    -4.152716  1.554780  3.529460
H    -6.046422  2.849043  2.505593
H    -6.447815  1.109045  2.617973
H    -5.850918  1.791397  1.078948
Pb    2.375107  -1.540541  2.591796
