36
Energy: -611332.588258 eV PBE+vdW (tier 2 basis)
C    -0.232730  -1.809555  0.952032
C    -0.431479  -1.289338  2.333957
O    0.439904  -1.619431  3.249043
H    0.769025  -1.530039  0.599080
H    -0.976763  -1.435661  0.243918
H    -0.278754  -2.907564  0.969089
N    -1.428903  -0.521295  2.687327
C    -2.545853  0.031332  1.913653
C    -2.953972  1.251184  2.797473
O    -2.681146  1.200849  4.003189
H    -1.516142  -0.155776  3.663955
H    -2.196752  0.356232  0.923200
C    -3.682936  -1.015896  1.789929
C    -4.900654  -0.552309  0.984125
C    -5.967538  -1.648457  0.772007
N    -6.652344  -2.075621  1.978481
C    -6.285377  -3.132483  2.773151
N    -7.013549  -3.324572  3.910461
N    -5.270524  -3.942301  2.568252
H    -3.979128  -1.312768  2.806411
H    -3.249623  -1.910721  1.315979
H    -4.588213  -0.212089  -0.016885
H    -5.381726  0.305363  1.476168
H    -5.528636  -2.526204  0.275880
H    -6.729336  -1.263674  0.081286
H    -7.443642  -1.512526  2.273601
H    -6.830023  -4.189177  4.407173
H    -7.930800  -2.913561  4.034861
H    -4.849530  -3.795775  1.647685
N    -3.585356  2.261620  2.185718
C    -4.056526  3.458028  2.882465
H    -3.707685  2.219512  1.179146
H    -5.130847  3.595929  2.712303
H    -3.519045  4.343908  2.523118
H    -3.870294  3.330476  3.951874
Pb    2.005232  -2.141504  4.612726
