36
Energy: -611333.884399 eV PBE+vdW (tier 2 basis)
C    -1.716260  0.722587  -1.035519
C    -1.111029  0.115838  0.173138
O    -0.031585  -0.581835  0.079265
H    -0.965331  1.287700  -1.602950
H    -2.598789  1.335612  -0.813243
H    -2.021095  -0.113137  -1.688279
N    -1.671731  0.261530  1.387191
C    -2.151307  1.543286  1.899467
C    -0.911979  2.389304  2.182940
O    0.277928  1.868164  2.170102
H    -1.329126  -0.392964  2.095298
H    -2.786013  2.058124  1.111959
C    -3.054001  1.346276  3.135890
C    -4.207897  0.357390  2.911476
C    -5.110514  0.617812  1.694692
N    -5.722624  1.936906  1.647542
C    -5.363184  2.901236  0.744455
N    -6.272052  3.911836  0.582220
N    -4.188408  2.845057  0.158350
H    -3.465595  2.326417  3.407243
H    -2.453730  1.015217  3.998492
H    -4.814054  0.360116  3.829156
H    -3.825091  -0.671187  2.820030
H    -5.907977  -0.138461  1.695820
H    -4.556697  0.485803  0.756277
H    -6.605108  2.058785  2.130073
H    -6.067497  4.639032  -0.091585
H    -7.259832  3.735615  0.730496
H    -4.103192  3.563082  -0.563335
N    -1.001485  3.676992  2.451533
C    -2.193245  4.530349  2.485312
H    -0.111029  4.126275  2.669362
H    -2.992905  4.089889  1.880440
H    -1.924377  5.503486  2.060713
H    -2.525714  4.677968  3.520783
Pb    1.584791  0.176506  1.471303
