36
Energy: -611334.017602 eV PBE+vdW (tier 2 basis)
C    0.961767  -0.609171  0.155124
C    0.219767  -0.767538  1.438870
O    0.368585  -1.872037  2.091220
H    0.771558  0.360109  -0.316546
H    0.667598  -1.420391  -0.525283
H    2.038440  -0.725230  0.340147
N    -0.557879  0.225961  1.837823
C    -1.492170  0.268735  2.979251
C    -0.695546  0.330883  4.290656
O    -0.293337  -0.732520  4.884600
H    -0.708581  1.035352  1.149979
H    -1.982634  1.241595  2.867102
C    -2.611811  -0.797597  3.009611
C    -3.376852  -1.064089  1.701440
C    -4.328806  0.029227  1.165327
N    -3.693182  1.289430  0.774883
C    -2.565015  1.366671  -0.011770
N    -2.429161  0.392675  -0.968201
N    -1.567295  2.203196  0.161872
H    -3.304291  -0.504043  3.814469
H    -2.206846  -1.775044  3.336218
H    -4.000418  -1.952937  1.875993
H    -2.669641  -1.349468  0.910108
H    -5.088493  0.282225  1.915977
H    -4.887283  -0.401693  0.319678
H    -3.831686  2.076276  1.397473
H    -1.737012  0.619139  -1.676102
H    -3.276678  -0.018756  -1.346184
H    -1.798571  2.926315  0.849394
N    -0.409457  1.499312  4.833970
C    -0.750516  2.842338  4.348407
H    0.124048  1.444546  5.703303
H    -0.451996  2.967771  3.301120
H    -0.193211  3.565832  4.949873
H    -1.821567  3.046459  4.472132
Pb    0.191300  -2.772784  4.093552
