36
Energy: -611335.250845 eV PBE+vdW (tier 2 basis)
C    -1.371590  1.073122  -0.178062
C    -0.991784  0.705128  1.225504
O    -0.332024  1.530309  1.919325
H    -2.168180  1.830904  -0.122386
H    -1.745710  0.231226  -0.771449
H    -0.519523  1.540278  -0.681667
N    -1.421432  -0.486272  1.677112
C    -1.626120  -1.081260  3.017168
C    -1.112998  -0.304254  4.231491
O    0.100316  0.028736  4.392922
H    -1.932328  -1.016758  0.974775
H    -2.719816  -1.120854  3.115721
C    -1.172207  -2.571388  3.087341
C    0.313932  -2.926588  3.283961
C    1.139102  -3.345524  2.057265
N    1.260966  -2.387773  0.946222
C    1.785873  -1.147243  1.026192
N    1.744344  -0.363953  -0.091029
N    2.273956  -0.615864  2.143721
H    -1.580063  -3.072394  2.194864
H    -1.736404  -2.998034  3.928943
H    0.352472  -3.807512  3.940354
H    0.815089  -2.136752  3.855011
H    0.693638  -4.244091  1.612441
H    2.143246  -3.646345  2.398807
H    1.195911  -2.795223  0.018108
H    2.496842  0.309231  -0.194395
H    1.420647  -0.763906  -0.965413
H    2.465896  -1.327449  2.849438
N    -1.969748  -0.104929  5.230213
C    -3.393705  -0.445019  5.334025
H    -1.539161  0.311713  6.055911
H    -3.966538  -0.016081  4.503485
H    -3.772439  -0.009214  6.262811
H    -3.546561  -1.530701  5.379425
Pb    1.572047  1.364276  3.189892
