36
Energy: -611335.036147 eV PBE+vdW (tier 2 basis)
C    -0.301014  -0.524956  0.026130
C    -0.210987  -0.391532  1.508303
O    0.923198  -0.514352  2.082439
H    -0.213121  0.471704  -0.433790
H    -1.248518  -0.968189  -0.300841
H    0.534995  -1.134320  -0.330629
N    -1.297247  -0.154991  2.251031
C    -2.625679  0.261831  1.817085
C    -2.552588  1.622896  1.077574
O    -1.614975  2.423575  1.274464
H    -1.131951  -0.152682  3.254584
H    -3.009305  -0.483017  1.105485
C    -3.618795  0.277031  3.028659
C    -3.094545  0.530695  4.457140
C    -2.691239  1.954664  4.877287
N    -1.569729  2.534416  4.123723
C    -0.306855  2.125227  4.149607
N    0.550502  2.558829  3.075614
N    0.293921  1.287549  4.964961
H    -4.106738  -0.705656  3.050362
H    -4.414644  1.000738  2.805131
H    -2.303492  -0.190232  4.725931
H    -3.918910  0.254231  5.131391
H    -2.449052  1.969057  5.949123
H    -3.531795  2.646775  4.746496
H    -1.809631  3.122472  3.325587
H    -0.003253  2.602182  2.195456
H    0.972004  3.474260  3.263981
H    -0.211487  0.961303  5.789079
N    -3.544569  1.901556  0.220539
C    -4.676791  1.063995  -0.183494
H    -3.460520  2.815910  -0.220317
H    -5.219341  1.590014  -0.973721
H    -5.375698  0.885946  0.643222
H    -4.341801  0.102055  -0.593208
Pb    2.145196  0.645119  3.636801
