36
Energy: -611335.110688 eV PBE+vdW (tier 2 basis)
C    -0.133886  -1.132611  1.396367
C    -0.651420  -1.086445  2.802520
O    0.091638  -1.487025  3.741296
H    0.231142  -2.143025  1.177526
H    0.731948  -0.459348  1.321486
H    -0.872388  -0.840004  0.642333
N    -1.883035  -0.575869  2.981948
C    -2.648551  -0.264094  4.210022
C    -1.738952  0.219560  5.359987
O    -1.260154  -0.596166  6.205502
H    -2.339832  -0.274738  2.125896
H    -3.276182  0.584957  3.909501
C    -3.588149  -1.360937  4.746255
C    -4.509225  -2.102951  3.759507
C    -3.923017  -3.373599  3.103209
N    -3.201417  -4.196795  4.093017
C    -1.847811  -4.184658  4.193329
N    -1.137806  -4.194624  3.036913
N    -1.180873  -4.127506  5.354038
H    -4.219282  -0.852471  5.489827
H    -2.995245  -2.077478  5.325136
H    -4.881544  -1.441215  2.962739
H    -5.406701  -2.398965  4.321493
H    -3.219618  -3.118276  2.303494
H    -4.730772  -3.961796  2.650388
H    -3.690890  -4.312468  4.977288
H    -0.152024  -4.416816  3.117794
H    -1.585282  -4.578445  2.211167
H    -1.814886  -4.228819  6.152155
N    -1.519818  1.521119  5.498741
C    -2.024772  2.632167  4.684613
H    -0.962494  1.766334  6.317727
H    -1.866132  2.444554  3.617165
H    -1.461305  3.529609  4.955360
H    -3.087727  2.821300  4.883678
Pb    0.284442  -2.336134  5.876753
