36
Energy: -611334.889498 eV PBE+vdW (tier 2 basis)
C    -0.752669  3.708443  0.936865
C    -0.438377  2.323650  0.895636
O    0.792516  1.947737  1.052400
H    -1.780361  4.069054  0.931746
H    -0.899541  1.527901  -3.137287
H    -0.027822  4.362825  0.448558
N    -1.386083  1.304619  0.903770
C    -2.682723  1.490332  1.553579
C    -2.492060  1.942542  3.033030
O    -1.346473  2.065964  3.548446
H    -0.923315  0.432478  1.171492
H    -3.217548  2.297082  1.026574
C    -3.517548  0.188339  1.485730
C    -3.573954  -0.554071  0.138184
C    -4.069124  0.224395  -1.087372
N    -2.976495  0.970792  -1.728255
C    -2.945392  1.341368  -3.013211
N    -4.054344  1.304786  -3.762871
N    -1.790551  1.760077  -3.557970
H    -4.545623  0.424841  1.796629
H    -3.133921  -0.517191  2.238403
H    -4.260007  -1.399589  0.283423
H    -2.603897  -1.013537  -0.102304
H    -4.889393  0.907860  -0.809292
H    -4.466942  -0.491693  -1.820290
H    -2.156070  1.157379  -1.147294
H    -4.011592  1.408651  -4.769845
H    -4.972053  1.197588  -3.350184
H    -1.768254  2.190915  -4.474472
N    -3.584822  2.170439  3.754101
C    -3.557623  2.574156  5.163181
H    -4.492955  2.031837  3.322579
H    -4.581839  2.568376  5.544484
H    -3.142038  3.584018  5.266841
H    -2.948012  1.874140  5.745167
Pb    0.650049  3.281245  2.979074
