36
Energy: -611335.681355 eV PBE+vdW (tier 2 basis)
C    -0.497285  -0.703276  -0.035451
C    -0.531259  -0.746465  1.457584
O    0.543423  -0.737614  2.120496
H    -1.492416  -0.704428  -0.492458
H    0.073770  -1.564595  -0.406839
H    0.044642  0.198049  -0.352081
N    -1.730706  -0.788929  2.074395
C    -1.841760  -0.701746  3.527773
C    -1.443099  -2.018430  4.218804
O    -0.366272  -2.031964  4.906043
H    -2.569725  -0.763330  1.501498
H    -1.043623  -0.016133  3.826716
C    -3.177915  -0.090009  4.028374
C    -3.016799  1.309239  4.645572
C    -2.323100  1.353637  6.019278
N    -0.914433  0.937715  6.010540
C    0.134522  1.636806  5.524269
N    0.013898  2.972521  5.385093
N    1.244749  0.975721  5.170089
H    -3.647448  -0.759486  4.763302
H    -3.888043  -0.029513  3.190636
H    -4.019023  1.740041  4.781843
H    -2.496488  1.975922  3.940168
H    -2.833273  0.691773  6.731172
H    -2.417102  2.361680  6.446343
H    -0.699340  -0.013112  6.289746
H    0.766754  3.511083  4.974075
H    -0.671549  3.494946  5.919132
H    2.051848  1.597647  5.090409
N    -2.175685  -3.119125  4.147548
C    -3.460834  -3.349524  3.489466
H    -1.785684  -3.910347  4.662906
H    -3.404578  -4.283321  2.918658
H    -3.703725  -2.537395  2.801957
H    -4.260294  -3.439386  4.236084
Pb    1.661838  -1.100489  4.182168
