36
Energy: -611335.06684 eV PBE+vdW (tier 2 basis)
C    1.227365  -0.879996  1.748108
C    0.329869  -1.114089  2.927664
O    0.696496  -2.152178  3.674832
H    0.881815  -0.040032  1.139280
H    1.284612  -1.789257  1.135113
H    2.247767  -0.670702  2.097176
N    -0.691239  -0.330908  3.109845
C    -1.662372  -0.526544  4.195185
C    -1.005331  -0.530014  5.578056
O    -0.791856  -1.613315  6.239440
H    -1.522658  1.943438  0.416600
H    -2.291649  0.378189  4.187270
C    -2.623428  -1.712493  3.967913
C    -3.721747  -1.446150  2.919587
C    -3.343531  -1.460452  1.431315
N    -2.536451  -0.308080  1.024995
C    -2.575951  0.279137  -0.171379
N    -3.300193  -0.218383  -1.184952
N    -1.868153  1.407821  -0.368712
H    -3.128319  -1.934672  4.918746
H    -2.063795  -2.620005  3.686885
H    -4.232513  -0.498769  3.151908
H    -4.481508  -2.231019  3.041155
H    -4.281787  -1.445929  0.860344
H    -2.817721  -2.397452  1.180194
H    -1.747113  -0.069697  1.669296
H    -3.478894  0.325668  -2.020285
H    -3.669655  -1.159395  -1.160140
H    -1.749093  1.802700  -1.293006
N    -0.661611  0.619086  6.134555
C    -0.832711  1.968683  5.590766
H    -0.254971  0.540132  7.067054
H    -0.626050  1.974142  4.516164
H    -0.113717  2.627583  6.086556
H    -1.845036  2.345122  5.788644
Pb    0.425550  -3.316496  5.455362
