36
Energy: -611335.758211 eV PBE+vdW (tier 2 basis)
C    1.493046  1.006550  0.503823
C    1.061984  0.525578  1.854426
O    1.899167  -0.026126  2.621688
H    2.331487  1.705543  0.618921
H    0.694127  1.489374  -0.068492
H    1.870870  0.146950  -0.067188
N    -0.232624  0.693368  2.191062
C    -0.946438  0.133366  3.356171
C    -0.488454  0.799682  4.668974
O    0.517114  0.381037  5.326105
H    -0.816378  1.130993  1.484466
H    -1.993348  0.422264  3.201050
C    -0.876616  -1.401127  3.408575
C    -1.653981  -2.023920  4.585766
C    -0.910246  -3.213761  5.209472
N    0.401397  -2.775703  5.696510
C    1.607767  -3.190738  5.260933
N    1.742443  -4.462853  4.837705
N    2.628892  -2.320584  5.257596
H    0.176982  -1.700748  3.447814
H    -1.266161  -1.775019  2.452553
H    -2.648269  -2.360239  4.264164
H    -1.837994  -1.283428  5.381550
H    -0.758287  -4.003724  4.462681
H    -1.496367  -3.642911  6.033011
H    0.416376  -1.888059  6.189956
H    1.107830  -5.188451  5.152192
H    2.599763  -4.768550  4.393672
H    3.539484  -2.784231  5.238746
N    -1.197538  1.812742  5.152189
C    -2.405876  2.440144  4.602746
H    -0.840865  2.192382  6.029543
H    -3.248410  1.737722  4.583836
H    -2.224417  2.841859  3.599047
H    -2.675362  3.274159  5.256479
Pb    2.754900  -0.053544  4.793258
