36
Energy: -611332.911542 eV PBE+vdW (tier 2 basis)
C    -0.077373  -0.179740  0.159311
C    -0.286777  0.114801  1.604618
O    0.672218  0.592570  2.292672
H    -0.946632  0.077283  -0.453547
H    0.134872  -1.253634  0.025613
H    0.804466  0.369584  -0.186037
N    -1.472383  -0.110011  2.224932
C    -2.278325  -1.337415  2.112329
C    -1.378335  -2.516940  2.573559
O    -0.294799  -2.306610  3.210082
H    -1.503723  0.310580  3.153680
H    -3.042880  -1.231497  2.898710
C    -3.013118  -1.546743  0.771099
C    -3.834411  -0.339457  0.294597
C    -5.122435  -0.081211  1.086776
N    -5.821095  1.056380  0.534337
C    -6.694443  1.891829  1.194993
N    -7.182798  1.438741  2.401404
N    -6.925828  3.035459  0.620397
H    -3.695675  -2.403525  0.890529
H    -2.299040  -1.838304  -0.009516
H    -3.216953  0.571238  0.308166
H    -4.100746  -0.522220  -0.756944
H    -4.906692  0.127023  2.150160
H    -5.751273  -0.992245  1.060707
H    -5.554495  1.418447  -0.376876
H    -7.867371  2.037144  2.851354
H    -7.382282  0.448724  2.509287
H    -7.599817  3.613942  1.129603
N    -1.774608  -3.755142  2.335041
C    -1.055443  -4.953162  2.783740
H    -2.636594  -3.889592  1.814642
H    -1.614568  -5.832334  2.454362
H    -0.976361  -4.961287  3.877101
H    -0.050037  -4.979350  2.347765
Pb    1.306721  -0.816350  4.016937
