36
Energy: -611334.432742 eV PBE+vdW (tier 2 basis)
C    -0.669361  -0.443342  -0.431578
C    -0.365764  -0.808591  0.980808
O    -0.322855  -2.043182  1.321509
H    -0.041984  0.380669  -0.785943
H    -1.722755  -0.126726  -0.512879
H    -0.533117  -1.324438  -1.065792
N    -0.164696  0.126738  1.928395
C    -1.033039  1.314703  2.126294
C    -2.497906  0.815031  2.210338
O    -2.672010  -0.425908  2.705667
H    0.193981  -0.265917  2.797839
H    -0.755003  1.668946  3.131390
C    -0.790068  2.464256  1.139262
C    -1.228025  3.828184  1.712006
C    -1.972052  4.667885  0.662242
N    -2.735170  5.776662  1.233031
C    -3.962025  5.644503  1.757780
N    -4.647799  6.739462  2.124020
N    -4.505089  4.430808  1.905546
H    -1.336125  2.264134  0.207733
H    0.278869  2.481466  0.891272
H    -0.359961  4.383740  2.091417
H    -1.890497  3.673674  2.574210
H    -2.671119  4.033127  0.098328
H    -1.277652  5.096114  -0.070977
H    -2.294939  6.688652  1.288209
H    -5.504146  6.671655  2.659238
H    -4.357575  7.666124  1.836998
H    -5.483987  4.347211  2.148772
N    -3.463988  1.573523  1.847955
C    -4.826547  1.051758  1.941633
H    -3.965102  3.556856  1.810561
H    -5.490499  1.662327  1.318771
H    -5.188777  1.090464  2.980584
H    -4.907358  0.008583  1.606040
Pb    -2.030204  -2.487850  2.803223
