36
Energy: -611332.890952 eV PBE+vdW (tier 2 basis)
C    -0.733799  -0.896055  -0.667660
C    -0.415033  -0.325666  0.669487
O    0.769428  0.113888  0.881403
H    -1.739257  -0.640083  -1.025461
H    -0.637978  -1.993332  -0.638008
H    0.017820  -0.529581  -1.375472
N    -1.313253  -0.205881  1.677032
C    -2.219519  -1.240187  2.205502
C    -1.333094  -2.244182  2.982082
O    -0.064630  -2.266694  2.806264
H    -0.961285  0.410079  2.411653
H    -2.852761  -0.717495  2.939338
C    -3.154167  -1.909189  1.178042
C    -4.096286  -0.905232  0.506044
C    -4.928073  -1.539827  -0.630358
N    -5.571620  -0.542563  -1.470422
C    -4.870670  0.326555  -2.293292
N    -3.666521  -0.174947  -2.795258
N    -5.200573  1.539737  -2.579207
H    -3.739902  -2.672844  1.707119
H    -2.566170  -2.460612  0.431958
H    -3.520951  -0.069390  0.083686
H    -4.772847  -0.464092  1.253828
H    -5.712191  -2.192469  -0.224678
H    -4.285857  -2.181856  -1.249659
H    -6.467288  -0.188218  -1.149392
H    -3.281664  0.482916  -3.471919
H    -3.732426  -1.110584  -3.193301
H    -6.075320  1.851238  -2.147747
N    -1.870149  -3.092250  3.844928
C    -3.264877  -3.240006  4.268481
H    -1.199464  -3.731021  4.274738
H    -3.753574  -4.056042  3.720788
H    -3.822135  -2.310229  4.121926
H    -3.273545  -3.481007  5.336763
Pb    1.893824  -1.077138  2.476155
