36
Energy: -611334.18062 eV PBE+vdW (tier 2 basis)
C    -4.541745  -2.361729  1.086309
C    -3.165052  -2.247476  1.646708
O    -2.219370  -2.917608  1.081982
H    -4.523902  -2.065535  0.028320
H    -5.265184  -1.742944  1.625730
H    -4.863211  -3.411519  1.118956
N    -2.951708  -1.453759  2.685272
C    -1.639504  -1.194735  3.283685
C    -1.205652  -2.441836  4.080107
O    -0.363846  -3.267364  3.551467
H    -3.760128  -0.927725  3.116487
H    -0.920418  -1.099774  2.455161
C    -1.589539  0.120355  4.107504
C    -2.550057  1.246417  3.676078
C    -3.898335  1.284140  4.414293
N    -4.732380  0.069138  4.226057
C    -4.941166  -0.936806  5.207120
N    -3.967448  -1.000383  6.235165
N    -5.816891  -1.860296  5.158434
H    -0.554117  0.476710  4.034600
H    -1.743625  -0.098825  5.170227
H    -2.717016  1.229777  2.588121
H    -2.055496  2.207062  3.875462
H    -4.478322  2.138712  4.044923
H    -3.736217  1.484066  5.483049
H    -5.611603  0.277722  3.757277
H    -4.334927  -1.625936  6.955949
H    -3.749816  -0.098948  6.661549
H    -6.460687  -1.792001  4.365911
N    -1.725843  -2.653691  5.262330
C    -1.459606  -3.817898  6.106832
H    -2.443005  -1.973861  5.615922
H    -1.270205  -3.474635  7.130157
H    -0.586973  -4.360010  5.736485
H    -2.336044  -4.479462  6.112585
Pb    -0.244815  -3.882188  1.414592
