36
Energy: -611333.763815 eV PBE+vdW (tier 2 basis)
C    -0.028403  0.957595  0.239940
C    -0.009427  0.606866  1.687941
O    0.953133  1.024112  2.418858
H    -0.039001  2.052340  0.140716
H    -0.887970  0.539576  -0.294037
H    0.900159  0.605487  -0.229798
N    -1.000660  -0.127298  2.200724
C    -1.148178  -0.442702  3.631507
C    0.016207  -1.322527  4.115536
O    0.865054  -0.777434  4.945479
H    -1.759968  -0.392177  1.576267
H    -1.020687  0.504152  4.180066
C    -2.575595  -0.945606  3.936134
C    -3.016103  -0.880132  5.415928
C    -2.786282  -2.138071  6.265919
N    -1.372701  -2.432910  6.477529
C    -0.711168  -3.621569  6.236901
N    -1.467702  -4.673023  5.757238
N    0.585985  -3.762636  6.279822
H    -2.731140  -1.956564  3.535458
H    -3.242425  -0.280338  3.366332
H    -4.098032  -0.687367  5.426606
H    -2.563788  -0.004536  5.909348
H    -3.251351  -2.993827  5.762706
H    -3.304530  -2.014983  7.229173
H    -0.856243  -1.776894  7.054078
H    -0.926396  -5.534155  5.726254
H    -2.386785  -4.812997  6.166290
H    1.043018  -2.925406  6.653647
N    0.231147  -2.558237  3.731955
C    -0.548455  -3.383073  2.809699
H    0.861668  -3.088271  4.375824
H    0.133192  -4.113253  2.360936
H    -0.982331  -2.779162  2.008836
H    -1.331004  -3.928517  3.355104
Pb    2.060885  0.998133  4.380109
