36
Energy: -611335.615303 eV PBE+vdW (tier 2 basis)
C    -0.170334  -0.170487  0.485080
C    -0.588789  -0.022264  1.917073
O    -0.137555  -0.821611  2.785220
H    -0.627246  0.559465  -0.191113
H    -0.434208  -1.182770  0.149213
H    0.922612  -0.089668  0.417384
N    -1.453649  0.969885  2.199370
C    -2.218123  1.318791  3.415679
C    -1.391107  1.539491  4.694179
O    -0.690348  0.649636  5.265331
H    -1.733439  1.513373  1.387234
H    -2.599899  2.318665  3.170573
C    -3.514951  0.462436  3.613571
C    -3.511405  -1.071057  3.438585
C    -3.439077  -1.935107  4.704996
N    -2.130141  -1.899351  5.348588
C    -1.232968  -2.893914  5.449555
N    -1.642007  -4.176151  5.429915
N    0.065061  -2.563231  5.569587
H    -4.215303  0.867211  2.870728
H    -3.945731  0.741625  4.588387
H    -2.736856  -1.394732  2.730563
H    -4.467304  -1.327969  2.960620
H    -3.666519  -2.970684  4.425930
H    -4.207757  -1.623928  5.428271
H    -1.748393  -0.976090  5.544334
H    -2.597170  -4.430322  5.652734
H    -0.968011  -4.930292  5.384691
H    0.645509  -3.314384  5.944228
N    -1.536521  2.735430  5.256814
C    -0.943311  3.134902  6.533624
H    -2.102291  3.429198  4.775441
H    -1.623995  3.829471  7.035604
H    0.019414  3.636121  6.368387
H    -0.791594  2.250965  7.158579
Pb    1.144845  -0.756301  4.700606
