36
Energy: -611335.240557 eV PBE+vdW (tier 2 basis)
C    -0.677658  0.967419  0.397813
C    -0.873433  0.378109  1.761811
O    -0.042815  -0.428024  2.244936
H    -1.463929  1.670309  0.103026
H    -0.630510  0.153253  -0.337527
H    0.293757  1.478374  0.367591
N    -1.973659  0.756518  2.452259
C    -2.349759  0.286301  3.791626
C    -1.127017  0.287094  4.734255
O    -0.589117  -0.782586  5.169008
H    -2.610235  1.404627  1.997793
H    -2.999777  1.078702  4.191605
C    -3.219371  -0.999987  3.793329
C    -2.897385  -2.123587  2.773358
C    -2.581707  -3.492359  3.378611
N    -1.379064  -3.378872  4.221981
C    -0.664188  -4.478367  4.768916
N    -1.207406  -5.699246  4.743627
N    0.518662  -4.117417  5.192548
H    -4.244860  -0.658542  3.604607
H    -3.247856  -1.377816  4.827362
H    -2.063672  -1.838259  2.120458
H    -3.759915  -2.258913  2.109333
H    -2.384968  -4.214355  2.575793
H    -3.439444  -3.858805  3.968541
H    -1.516977  -2.673644  4.954664
H    -0.678397  -6.509490  5.049908
H    -2.186241  -5.848175  4.525754
H    1.068102  -4.806558  5.706556
N    -0.675707  1.461108  5.161282
C    -1.183578  2.804459  4.869037
H    0.106699  1.396008  5.811841
H    -2.238520  2.901092  5.156514
H    -0.605970  3.519656  5.460446
H    -1.062420  3.052449  3.808181
Pb    0.884273  -2.096993  3.871359
