36
Energy: -611335.600881 eV PBE+vdW (tier 2 basis)
C    0.376613  1.441932  1.835300
C    -0.007570  0.211732  2.589653
O    0.770573  -0.266577  3.466100
H    -0.395858  1.782407  1.137823
H    1.306156  1.250452  1.282464
H    0.595132  2.243679  2.553695
N    -1.202573  -0.358723  2.329068
C    -1.708692  -1.462809  3.142385
C    -1.224042  -2.816055  2.587664
O    -0.200787  -3.344163  3.130667
H    -1.802846  0.082227  1.637262
H    -1.144868  -1.381923  4.074106
C    -3.187703  -1.327940  3.542975
C    -3.542722  -2.163478  4.787991
C    -3.015773  -1.613274  6.126443
N    -1.553520  -1.638959  6.273056
C    -0.777747  -2.694247  6.614396
N    -1.347417  -3.761075  7.205470
N    0.528888  -2.634651  6.321679
H    -3.863481  -1.589619  2.720643
H    -3.368650  -0.262595  3.756335
H    -4.637780  -2.199640  4.872337
H    -3.221389  -3.210053  4.663215
H    -3.490990  -2.155189  6.955772
H    -3.319985  -0.566304  6.254334
H    -1.047811  -0.764592  6.186378
H    -0.802693  -4.597001  7.379843
H    -2.229621  -3.685186  7.699656
H    1.082304  -3.262111  6.910406
N    -1.802379  -3.444121  1.572355
C    -2.944867  -3.056300  0.742852
H    -1.352438  -4.328464  1.332419
H    -3.885872  -3.443481  1.154012
H    -2.799156  -3.485383  -0.253663
H    -3.006945  -1.970305  0.632425
Pb    1.597487  -2.339050  4.260160
