36
Energy: -611333.343772 eV PBE+vdW (tier 2 basis)
C    0.248354  0.305540  0.569826
C    -0.001225  0.377470  2.033582
O    0.974454  0.562908  2.839981
H    -0.590823  -0.114167  0.008128
H    1.142665  -0.313922  0.411830
H    0.498323  1.303546  0.177655
N    -1.246116  0.252144  2.540883
C    -2.407932  0.976499  2.020232
C    -2.174632  2.477098  2.284110
O    -1.268203  2.872380  3.113790
H    -1.271657  0.113357  3.552925
H    -2.472373  0.817492  0.933389
C    -3.707377  0.483721  2.679423
C    -4.172420  -0.892155  2.185929
C    -5.671427  -1.133145  2.469246
N    -6.508277  -0.121843  1.836421
C    -7.020073  0.991489  2.487024
N    -7.623015  0.735157  3.691718
N    -6.855686  2.152842  1.918574
H    -4.488721  1.224444  2.463358
H    -3.583026  0.494319  3.775098
H    -3.584872  -1.705005  2.637556
H    -4.011113  -0.965564  1.097213
H    -5.869038  -1.120403  3.548569
H    -5.945003  -2.132770  2.103460
H    -6.300911  0.083491  0.862304
H    -8.034901  1.518937  4.184850
H    -8.123638  -0.141637  3.801020
H    -7.402238  2.888217  2.376635
N    -2.922469  3.376677  1.675316
C    -3.998532  3.166025  0.700790
H    -2.732145  4.342223  1.947035
H    -4.116630  4.091510  0.129835
H    -4.963740  2.912383  1.190155
H    -3.732909  2.363089  0.003011
Pb    0.709195  2.432375  4.144055
