36
Energy: -611335.107874 eV PBE+vdW (tier 2 basis)
C    -0.891260  1.992271  1.569615
C    -1.498323  0.627797  1.461777
O    -2.057527  0.163638  0.492950
H    0.194259  1.911804  1.398084
H    -1.029373  2.446707  2.560076
H    -1.307262  2.641416  0.793575
N    -1.426680  -0.193642  2.658768
C    -1.412889  -1.659779  2.427502
C    -2.779554  -2.084150  1.897701
O    -3.844211  -1.674609  2.472985
H    -0.686361  0.096590  3.303247
H    -0.667004  -1.889662  1.651761
C    -1.009215  -2.361239  3.757623
C    -1.663680  -3.710847  4.091541
C    -2.973530  -3.600919  4.889019
N    -2.772084  -2.966784  6.191760
C    -3.327999  -1.830351  6.652249
N    -3.329188  -1.654287  7.991210
N    -3.853197  -0.888749  5.845020
H    -1.208528  -1.670939  4.593555
H    0.081437  -2.479125  3.729460
H    -0.947934  -4.300782  4.681331
H    -1.849741  -4.311246  3.189796
H    -3.744565  -3.038137  4.355384
H    -3.379022  -4.607952  5.061556
H    -2.278836  -3.525177  6.882804
H    -3.535813  -0.752756  8.402782
H    -3.184135  -2.424924  8.633687
H    -4.406008  -0.245143  6.417003
N    -2.830684  -2.950637  0.905476
C    -4.060423  -3.465843  0.301053
H    -1.953595  -3.186229  0.447329
H    -3.913119  -4.517428  0.034992
H    -4.297392  -2.893285  -0.605207
H    -4.883277  -3.375278  1.013905
Pb    -3.859229  0.173095  3.780393
