36
Energy: -611333.292286 eV PBE+vdW (tier 2 basis)
C    0.620214  1.312608  1.217584
C    -0.140347  0.190482  1.839511
O    0.249865  -0.305178  2.940882
H    0.616441  2.167841  1.908139
H    0.211453  1.629579  0.252465
H    1.668853  1.012742  1.090065
N    -1.239450  -0.278935  1.220974
C    -2.105333  -1.284808  1.836128
C    -1.386668  -2.649541  1.958952
O    -1.183336  -3.086342  3.146593
H    -1.541612  0.184402  0.368040
H    -2.213656  -0.988038  2.890255
C    -3.555818  -1.283232  1.305922
C    -3.851295  -1.599435  -0.163059
C    -5.330283  -1.353789  -0.490483
N    -5.589095  -1.686539  -1.875619
C    -6.800052  -1.532039  -2.530511
N    -7.926821  -1.455738  -1.759914
N    -6.722252  -1.457564  -3.827919
H    -3.950576  -0.284161  1.551444
H    -4.111353  -1.982710  1.948614
H    -3.618816  -2.647711  -0.393777
H    -3.243178  -0.973452  -0.838818
H    -5.598818  -0.303249  -0.266989
H    -5.946238  -1.987891  0.169725
H    -4.826270  -1.589844  -2.541437
H    -8.821904  -1.460476  -2.233973
H    -7.941511  -1.791954  -0.804360
H    -7.635902  -1.363963  -4.280179
N    -0.949301  -3.375819  0.943363
C    -0.934994  -3.128574  -0.497510
H    -0.505502  -4.246999  1.242086
H    -1.627999  -3.807133  -1.009394
H    0.078801  -3.319414  -0.869181
H    -1.202010  -2.095803  -0.721609
Pb    0.023042  -1.838877  4.649412
