36
Energy: -611333.43574 eV PBE+vdW (tier 2 basis)
C    0.140498  0.930172  -0.160541
C    -0.031712  0.172755  1.107436
O    0.984227  -0.366979  1.670341
H    0.642901  1.890076  0.034279
H    -0.798766  1.105011  -0.692911
H    0.822931  0.354971  -0.802148
N    -1.240040  0.030334  1.685976
C    -2.198083  1.122558  1.860270
C    -1.637364  2.014613  3.001466
O    -0.571515  1.669394  3.639288
H    -1.266795  -0.668049  2.430817
H    -2.203837  1.723197  0.938191
C    -3.619293  0.587561  2.124717
C    -3.873936  0.067668  3.543904
C    -5.389785  -0.004925  3.837590
N    -5.703225  0.039645  5.249609
C    -5.689642  1.217751  5.954593
N    -6.211354  1.155302  7.218090
N    -5.147554  2.275762  5.399187
H    -3.818417  -0.179799  1.362814
H    -4.327424  1.399457  1.916922
H    -3.452310  0.765900  4.280682
H    -3.413917  -0.918707  3.712047
H    -5.826692  -0.920797  3.421057
H    -5.881701  0.848317  3.346337
H    -6.078401  -0.790264  5.690302
H    -6.275792  2.010776  7.754751
H    -6.881143  0.436945  7.469367
H    -5.270555  3.091571  6.004603
N    -2.228466  3.140810  3.341424
C    -3.470415  3.739087  2.840588
H    -1.787715  3.618466  4.128702
H    -4.319086  3.344194  3.423166
H    -3.597783  3.540824  1.772063
H    -3.398976  4.821953  2.981651
Pb    1.297779  0.376490  3.813132
