36
Energy: -611334.104192 eV PBE+vdW (tier 2 basis)
C    -0.201512  0.708451  -0.017265
C    -0.275840  0.911795  1.458131
O    0.834868  0.929584  2.120258
H    -1.191026  0.704625  -0.485279
H    0.311226  -0.242875  -0.216194
H    0.415318  1.500542  -0.463499
N    -1.468660  1.053236  2.010034
C    -1.845780  1.115387  3.435920
C    -1.447318  2.470694  4.040933
O    -0.242077  2.733193  4.383285
H    -2.311480  0.870710  1.370985
H    -2.942657  1.102371  3.403184
C    -1.406124  -0.071047  4.328698
C    -1.607939  -1.494025  3.779098
C    -3.049545  -2.032841  3.639600
N    -3.902465  -1.321291  2.685425
C    -3.514541  -0.991944  1.405334
N    -2.652225  -1.867647  0.793881
N    -3.792318  0.131741  0.785800
H    -1.928808  0.051721  5.290608
H    -0.332633  0.019557  4.579633
H    -1.091434  -2.175278  4.470945
H    -1.086321  -1.597962  2.817425
H    -3.568677  -2.001484  4.606152
H    -2.982745  -3.100981  3.379743
H    -4.627269  -0.732048  3.076812
H    -2.700309  -2.843891  1.068074
H    -2.590992  -1.731817  -0.210746
H    -4.493246  0.681725  1.290967
N    -2.394762  3.371310  4.219803
C    -2.205429  4.712900  4.778492
H    -3.337028  3.123719  3.926662
H    -3.049229  4.940708  5.437984
H    -2.171029  5.453642  3.969155
H    -1.272790  4.743643  5.346263
Pb    1.734357  1.771023  3.935380
