36
Energy: -611333.959091 eV PBE+vdW (tier 2 basis)
C    0.163559  0.395057  -0.188344
C    0.117604  -0.023374  1.232656
O    1.195196  -0.387109  1.836814
H    1.028647  1.040740  -0.378184
H    -0.768008  0.861735  -0.524512
H    0.321601  -0.522620  -0.781380
N    -1.039251  -0.047705  1.918907
C    -2.014792  1.041441  1.900917
C    -1.342692  2.250353  2.563267
O    -0.259674  2.135429  3.272014
H    -1.012000  -0.592617  2.784644
H    -2.255047  1.326108  0.843900
C    -3.312798  0.563206  2.586197
C    -4.495189  1.540553  2.640644
C    -5.017034  2.060589  1.294846
N    -4.284214  3.243125  0.758485
C    -3.712034  3.155136  -0.532926
N    -3.938150  4.242572  -1.326751
N    -2.967776  2.129055  -0.797575
H    -3.080684  0.235993  3.613928
H    -3.621309  -0.335216  2.030616
H    -4.287933  2.384573  3.316068
H    -5.318322  0.992526  3.120871
H    -6.068746  2.349608  1.415879
H    -4.981538  1.270804  0.533610
H    -4.820211  4.100133  0.879684
H    -3.509714  4.270248  -2.245119
H    -4.799690  4.771655  -1.242515
H    -2.684948  2.106800  -1.779393
N    -1.891338  3.425357  2.383903
C    -1.388782  4.677068  2.948404
H    -2.759692  3.452392  1.789492
H    -2.152151  5.447099  2.808453
H    -0.470053  4.991264  2.436490
H    -1.181988  4.561858  4.017995
Pb    1.523927  0.851092  3.708280
