36
Energy: -611334.783382 eV PBE+vdW (tier 2 basis)
C    0.350392  0.557488  0.662146
C    -0.099942  0.537184  2.084686
O    0.822319  0.635415  2.988973
H    1.102579  -0.224894  0.496751
H    0.856156  1.516850  0.480571
H    -0.462894  0.442377  -0.058488
N    -1.359174  0.442052  2.451689
C    -2.597127  0.284747  1.696862
C    -3.608833  1.078833  2.577206
O    -3.312820  1.222699  3.776861
H    -1.645669  0.635137  3.436890
H    -2.487374  0.706671  0.691948
C    -3.065165  -1.195132  1.640949
C    -2.004226  -2.256233  1.281094
C    -1.522710  -3.119865  2.457261
N    -0.751358  -2.391496  3.474589
C    -1.060416  -2.162291  4.759538
N    -2.124385  -2.758077  5.322011
N    -0.287309  -1.316547  5.485088
H    -3.886887  -1.237434  0.914364
H    -3.516119  -1.441972  2.614257
H    -1.139466  -1.815479  0.764899
H    -2.433620  -2.959810  0.554494
H    -0.892855  -3.939177  2.084302
H    -2.390667  -3.590562  2.933759
H    0.176032  -2.085665  3.199980
H    -2.443125  -2.482177  6.242837
H    -2.570831  -3.567952  4.909131
H    -0.426388  -1.474594  6.486029
N    -4.752022  1.517083  2.040639
C    -5.234143  1.394321  0.667660
H    -5.372938  1.967508  2.711537
H    -5.776849  2.306809  0.399178
H    -5.912649  0.537813  0.555808
H    -4.400902  1.287382  -0.034176
Pb    1.064274  0.497037  5.202358
