36
Energy: -611334.860875 eV PBE+vdW (tier 2 basis)
C    0.900383  -0.459993  0.925667
C    0.353637  0.251949  2.116411
O    1.189605  0.898583  2.855152
H    1.467220  0.267850  0.328009
H    0.135636  -0.921502  0.296531
H    1.618879  -1.225141  1.249526
N    -0.928820  0.263265  2.443453
C    -2.097100  -0.364143  1.819874
C    -3.194385  0.720635  2.058930
O    -2.979812  1.547350  2.960318
H    -1.318666  1.008968  3.080340
H    -1.921064  -0.535398  0.750661
C    -2.511024  -1.674989  2.538422
C    -1.416577  -2.755486  2.714351
C    -0.872078  -2.927588  4.137981
N    -0.182661  -1.724213  4.618444
C    0.597478  -1.625106  5.702203
N    0.772097  -2.694040  6.493998
N    1.208654  -0.445378  5.976219
H    -3.343900  -2.097851  1.961564
H    -2.942930  -1.407788  3.515916
H    -0.580968  -2.603222  2.017126
H    -1.841135  -3.730231  2.441335
H    -0.159450  -3.765640  4.143613
H    -1.701319  -3.181226  4.820071
H    -0.454603  -0.848326  4.182996
H    1.455091  -2.689002  7.241964
H    0.221406  -3.537623  6.384731
H    1.577077  -0.438183  6.930081
N    -4.298498  0.654302  1.312148
C    -5.436454  1.562844  1.460754
H    -4.348885  -0.048319  0.580726
H    -5.603999  2.109422  0.525350
H    -5.211752  2.271789  2.261440
H    -6.340015  0.996605  1.715949
Pb    1.883462  1.441344  4.895746
