36
Energy: -611334.066263 eV PBE+vdW (tier 2 basis)
C    1.221075  -0.111615  0.915889
C    0.574755  0.462455  2.126163
O    1.231091  1.346960  2.808196
H    1.291434  0.673956  0.148190
H    0.657640  -0.965348  0.515027
H    2.249117  -0.408034  1.159634
N    -0.647453  0.071873  2.453311
C    -1.467205  0.617225  3.543397
C    -0.900153  0.157939  4.905467
O    -0.064191  0.899033  5.538311
H    -1.217934  -0.490245  1.729719
H    -1.387704  1.718666  3.546991
C    -2.941885  0.215797  3.347023
C    -3.701441  0.830766  2.152918
C    -3.131332  0.613275  0.738269
N    -2.498857  -0.706072  0.608239
C    -1.836302  -1.125686  -0.600064
N    -2.001000  -0.302635  -1.684302
N    -1.090532  -2.160290  -0.465955
H    -3.486459  0.500040  4.258320
H    -3.004742  -0.883405  3.281687
H    -3.823508  1.912236  2.306287
H    -4.716842  0.412001  2.201252
H    -2.363105  1.366706  0.512021
H    -3.953714  0.776806  0.022300
H    -3.076743  -1.479548  0.938206
H    -1.568132  -0.598833  -2.552948
H    -2.873386  0.200511  -1.810181
H    -0.716303  -2.503058  -1.354763
N    -1.284972  -0.992219  5.415370
C    -0.822696  -1.573787  6.678364
H    -1.971998  -1.526370  4.886580
H    -1.689935  -1.952449  7.230055
H    -0.315534  -0.808449  7.269333
H    -0.136482  -2.405976  6.475195
Pb    1.509963  2.290715  4.765870
