36
Energy: -611334.625558 eV PBE+vdW (tier 2 basis)
C    -0.662596  2.119407  0.337939
C    -0.472325  1.546304  1.713629
O    0.200550  2.050165  2.598434
H    -1.489459  2.844389  0.370453
H    -0.901295  1.362142  -0.418672
H    0.239743  2.665820  0.046328
N    -1.128532  0.322611  1.971091
C    -1.256113  -0.082135  3.358222
C    -0.043822  -0.891488  3.834840
O    0.069341  -1.249340  5.062865
H    -1.846096  0.022403  1.317205
H    -1.193083  0.842565  3.963151
C    -2.585150  -0.785655  3.682460
C    -2.787495  -2.218213  3.130052
C    -3.446758  -3.188406  4.124687
N    -2.486157  -3.749749  5.102344
C    -2.065495  -3.176563  6.227057
N    -0.861781  -3.639382  6.829512
N    -2.538575  -2.117322  6.853643
H    -3.395916  -0.129220  3.338335
H    -2.673199  -0.790557  4.773357
H    -1.833140  -2.658062  2.801191
H    -3.423195  -2.190639  2.234731
H    -3.872224  -4.050297  3.598062
H    -4.281869  -2.718650  4.662433
H    -2.085919  -4.653223  4.862139
H    -0.267338  -4.236536  6.253187
H    -1.013578  -4.057139  7.751292
H    -3.457744  -1.777613  6.570211
N    0.874011  -1.195148  2.946064
C    2.157254  -1.842256  3.189311
H    0.665044  -0.841823  2.008141
H    2.968411  -1.134538  2.977087
H    2.265145  -2.711672  2.530393
H    2.216984  -2.158884  4.233081
Pb    -0.486372  -1.034593  7.241055
