36
Energy: -611333.984128 eV PBE+vdW (tier 2 basis)
C    2.774073  -1.392724  0.612811
C    1.804286  -0.520806  1.334522
O    1.866068  0.748162  1.161005
H    2.634189  -1.244766  -0.468302
H    2.656422  -2.456023  0.845884
H    3.799338  -1.075538  0.844590
N    0.882486  -1.082226  2.116574
C    -0.290979  -0.437490  2.735044
C    0.091555  0.225717  4.071778
O    0.868855  1.263373  4.043730
H    0.915619  -2.097192  2.194693
H    -0.570905  0.404467  2.079678
C    -1.476765  -1.412102  2.765740
C    -1.221533  -2.817722  3.369146
C    -2.280102  -3.234702  4.400027
N    -2.241620  -2.365077  5.589091
C    -3.354940  -1.519125  5.906321
N    -3.299730  -1.059999  7.215593
N    -4.232218  -1.057154  5.100198
H    -1.836011  -1.513767  1.733384
H    -2.286029  -0.896246  3.303155
H    -0.238837  -2.874780  3.869114
H    -1.201607  -3.571563  2.569958
H    -2.102923  -4.272721  4.708004
H    -3.284694  -3.211928  3.954540
H    -1.891252  -2.860801  6.408298
H    -4.127885  -0.519626  7.457254
H    -3.070006  -1.741307  7.935364
H    -4.171943  -1.425303  4.149814
N    -0.387040  -0.208648  5.204975
C    -0.133251  0.412803  6.505931
H    -1.032943  -1.049042  5.236780
H    -1.032231  0.271178  7.116626
H    0.084124  1.476999  6.383584
H    0.720452  -0.074782  6.995991
Pb    1.735875  2.553448  2.462915
