36
Energy: -611333.63498 eV PBE+vdW (tier 2 basis)
C    -0.617771  0.738375  0.059368
C    -0.560566  0.547953  1.536685
O    0.498869  0.872132  2.166502
H    -0.486581  1.807769  -0.160445
H    -1.557704  0.394539  -0.384362
H    0.224252  0.211663  -0.408863
N    -1.631906  0.055888  2.173271
C    -1.785614  -0.011148  3.632778
C    -0.931714  -1.160519  4.213423
O    0.197510  -0.862555  4.746476
H    -2.460228  -0.128085  1.611022
H    -1.314116  0.895158  4.045272
C    -3.265395  0.046779  4.030383
C    -3.486160  0.049643  5.549487
C    -4.928212  0.447303  5.937883
N    -5.294167  1.758472  5.423194
C    -5.973051  1.952641  4.221183
N    -7.120035  1.206478  4.082172
N    -5.443432  2.771662  3.365161
H    -3.838846  -0.763796  3.559186
H    -3.652495  0.988960  3.606150
H    -2.791339  0.764162  6.022425
H    -3.262980  -0.933572  5.994584
H    -5.013339  0.435049  7.033745
H    -5.646199  -0.287644  5.551965
H    -4.605584  2.494664  5.562685
H    -7.667644  1.357758  3.242468
H    -7.676059  1.034358  4.914846
H    -6.067249  2.972705  2.577492
N    -1.289776  -2.431710  4.190035
C    -2.495060  -3.069500  3.652961
H    -0.609216  -3.054792  4.628326
H    -2.261644  -4.123431  3.475158
H    -2.787886  -2.620704  2.699553
H    -3.324489  -3.011257  4.368674
Pb    1.717583  0.671729  4.059699
