36
Energy: -611334.989049 eV PBE+vdW (tier 2 basis)
C    -2.084066  -0.323066  0.745018
C    -1.319064  -0.003194  1.995671
O    -0.012039  -0.229455  1.886739
H    -3.142342  -0.066486  0.839018
H    -1.975213  -1.388735  0.501322
H    -1.658741  0.237371  -0.097979
N    -1.954158  0.428073  3.044537
C    -1.247220  0.729814  4.299405
C    -0.182151  1.816523  4.100670
O    1.076981  1.557957  4.050909
H    -3.575554  -0.436900  3.294573
H    -2.000660  1.211320  4.941555
C    -0.750393  -0.534265  5.045958
C    -1.610865  -0.893630  6.268618
C    -3.111620  -1.087771  6.034782
N    -3.457852  -2.244843  5.194101
C    -4.276051  -2.213084  4.124216
N    -4.986565  -3.310953  3.816353
N    -4.370822  -1.111515  3.374926
H    0.277235  -0.388322  5.407332
H    -0.729105  -1.377358  4.340880
H    -1.513296  -0.102797  7.028501
H    -1.195666  -1.798323  6.737314
H    -3.574310  -0.203300  5.580673
H    -3.602458  -1.223134  7.009801
H    -3.312227  -3.160136  5.610971
H    -5.424922  -3.415053  2.909037
H    -5.182308  -4.026314  4.506876
H    -5.125615  -1.036715  2.703006
N    -0.564679  3.077223  3.988881
C    -1.927865  3.612594  4.038854
H    0.195727  3.747958  3.875025
H    -1.932174  4.577223  3.522688
H    -2.247821  3.772105  5.077115
H    -2.619894  2.939104  3.523797
Pb    1.968996  0.055162  2.650629
