36
Energy: -611334.974175 eV PBE+vdW (tier 2 basis)
C    1.960287  0.410921  0.890910
C    1.079415  0.269446  2.088604
O    1.486924  -0.380868  3.141557
H    2.888744  0.929572  1.169118
H    1.480285  0.971553  0.082768
H    2.226240  -0.585173  0.508205
N    -0.113187  0.810330  2.084022
C    -1.201552  0.674808  3.057919
C    -2.449580  0.630436  2.113542
O    -2.300682  1.075951  0.969201
H    -0.532857  1.192853  1.203015
H    -1.078080  -0.262266  3.616854
C    -1.341755  1.908663  3.985520
C    -0.182246  2.303681  4.914943
C    0.092289  1.418724  6.140292
N    0.873649  0.235161  5.769708
C    1.764555  -0.417989  6.516483
N    1.817680  -0.221617  7.842636
N    2.622337  -1.283181  5.905039
H    -2.249332  1.760147  4.588591
H    -1.555441  2.770351  3.336274
H    -0.430236  3.301227  5.303343
H    0.752281  2.442816  4.348798
H    -0.852336  1.118166  6.622060
H    0.667674  2.003362  6.873307
H    0.892029  -0.005279  4.775878
H    2.552029  -0.627483  8.409784
H    1.112880  0.321227  8.327931
H    3.139943  -1.850616  6.578576
N    -3.615507  0.157222  2.577215
C    -3.937962  -0.382178  3.892035
H    -4.377505  0.232354  1.904834
H    -3.047203  -0.799098  4.374395
H    -4.660578  -1.197071  3.775237
H    -4.379944  0.381222  4.547903
Pb    3.253463  -1.655882  3.779837
