36
Energy: -611332.960378 eV PBE+vdW (tier 2 basis)
C    -0.413230  -0.308023  0.682641
C    -0.377045  -0.075119  2.150618
O    0.733632  -0.104264  2.776079
H    0.109850  0.503096  0.154842
H    -1.425023  -0.428838  0.286285
H    0.165515  -1.221369  0.478176
N    -1.510732  0.168453  2.849059
C    -2.517751  1.157592  2.445931
C    -1.779296  2.509027  2.329081
O    -0.757972  2.734994  3.077125
H    -1.391457  0.101942  3.862120
H    -2.946713  0.872441  1.476558
C    -3.616035  1.180625  3.538967
C    -4.805702  2.111125  3.288320
C    -5.813750  1.594260  2.242130
N    -6.582763  2.689940  1.678707
C    -6.665656  2.982986  0.329015
N    -6.705494  1.881922  -0.508406
N    -6.635073  4.236796  -0.002074
H    -3.134905  1.461412  4.489782
H    -3.961488  0.141739  3.655224
H    -4.454450  3.112150  2.998721
H    -5.323733  2.253005  4.246842
H    -6.467178  0.839420  2.710248
H    -5.308492  1.084065  1.406927
H    -6.708031  3.521154  2.250754
H    -7.261510  1.087210  -0.201066
H    -6.833927  2.090774  -1.493530
H    -6.825762  4.392517  -0.996294
N    -2.169264  3.453105  1.491053
C    -3.243887  3.461541  0.494176
H    -1.613985  4.309653  1.548397
H    -3.660905  2.461709  0.354984
H    -2.826459  3.807175  -0.458601
H    -4.051501  4.145178  0.790194
Pb    1.155801  1.825612  3.976053
