36
Energy: -611335.34246 eV PBE+vdW (tier 2 basis)
C    -1.379870  2.037617  2.453356
C    -1.191653  0.717108  3.139789
O    -0.158207  0.548075  3.851384
H    -1.432913  2.829772  3.212238
H    -2.274719  2.084870  1.823731
H    -0.494355  2.245662  1.838790
N    -2.151792  -0.209644  2.942209
C    -2.287456  -1.600593  3.428895
C    -1.341427  -1.782690  4.605481
O    -0.187188  -2.362720  4.404715
H    -2.919643  0.099458  2.351252
H    -3.308735  -1.669838  3.835849
C    -2.205841  -2.627997  2.275467
C    -1.059394  -2.514935  1.251361
C    0.180495  -3.394155  1.454132
N    -0.110458  -4.832819  1.440372
C    -0.019325  -5.678418  2.476263
N    -0.061448  -7.001530  2.251437
N    0.099024  -5.223790  3.729851
H    -3.154303  -2.530563  1.728287
H    -2.252279  -3.632740  2.722296
H    -0.707186  -1.475520  1.177775
H    -1.473710  -2.742368  0.258644
H    0.694215  -3.152516  2.388488
H    0.892360  -3.198739  0.640223
H    -0.343295  -5.243092  0.540897
H    -0.179303  -7.662374  3.009514
H    0.054747  -7.385892  1.321752
H    0.351209  -5.858981  4.476646
N    -1.536481  -1.220966  5.777275
C    -2.725258  -0.466549  6.160087
H    -0.001593  -4.231237  3.959158
H    -2.715618  0.556419  5.754258
H    -2.760318  -0.400447  7.252131
H    -3.647104  -0.963682  5.827681
Pb    0.737798  -0.613657  5.677652
