36
Energy: -611334.808778 eV PBE+vdW (tier 2 basis)
C    0.465845  1.376308  0.400728
C    0.196195  0.182515  1.265271
O    1.036635  -0.796057  1.320331
H    -0.255591  2.185170  0.554128
H    0.415971  1.065475  -0.653096
H    1.479931  1.760168  0.576773
N    -0.932824  0.131569  1.935629
C    -1.456397  -0.940605  2.783792
C    -2.860545  -0.388961  3.175032
O    -3.082520  0.811026  2.961483
H    -1.623418  0.915379  1.937055
H    -1.548007  -1.857773  2.183499
C    -0.554908  -1.231965  4.002561
C    -0.398804  -0.072207  5.006507
C    0.988375  -0.006881  5.661744
N    1.983232  0.670863  4.800918
C    2.800407  0.113538  3.911265
N    3.450286  0.960132  2.956452
N    3.067723  -1.154317  3.690249
H    0.417670  -1.533206  3.597056
H    -0.947852  -2.117865  4.517837
H    -1.145039  -0.163998  5.807000
H    -0.603209  0.898379  4.529611
H    1.365762  -1.001873  5.933692
H    0.952380  0.571776  6.592398
H    2.031251  1.681879  4.902774
H    3.043536  1.890831  2.847589
H    4.454340  1.047319  3.139472
H    2.723159  -1.836247  4.365737
N    -3.754267  -1.212922  3.741827
C    -3.666939  -2.649821  3.980635
H    -4.627601  -0.751241  3.990101
H    -3.001264  -3.131503  3.256082
H    -4.661862  -3.088693  3.851481
H    -3.321535  -2.875467  4.999235
Pb    3.254481  -1.163256  1.345780
