36
Energy: -611334.449467 eV PBE+vdW (tier 2 basis)
C    0.208864  0.597371  -0.124725
C    -0.044675  0.193276  1.288964
O    0.963481  0.042490  2.068455
H    0.847704  -0.163897  -0.595378
H    0.774510  1.538445  -0.140457
H    -0.706314  0.711278  -0.714638
N    -1.297405  -0.021681  1.684171
C    -1.819223  -0.579509  2.950629
C    -1.772936  0.411219  4.108366
O    -0.659638  0.918426  4.553073
H    -2.004549  0.145798  0.972439
H    -2.890134  -0.727604  2.755946
C    -1.249012  -1.975527  3.323460
C    -2.272397  -3.100158  3.046840
C    -3.028711  -3.640233  4.262529
N    -3.731134  -2.672020  5.144385
C    -4.899478  -2.019752  4.737334
N    -6.032623  -2.364398  5.396695
N    -4.814012  -1.072020  3.833367
H    -0.968357  -1.988135  4.388664
H    -0.332703  -2.164832  2.750146
H    -1.750809  -3.967247  2.618160
H    -2.981748  -2.771309  2.274565
H    -2.312292  -4.146812  4.923476
H    -3.726237  -4.415370  3.903817
H    -3.846961  -3.082754  6.068626
H    -6.889742  -1.839306  5.264608
H    -6.117112  -3.255493  5.871661
H    -5.732985  -0.752362  3.519133
N    -2.922197  0.665183  4.664525
C    -3.129494  1.509746  5.832164
H    -3.759966  0.056321  4.290891
H    -3.841731  2.304904  5.578901
H    -2.188608  1.954244  6.165157
H    -3.561120  0.905274  6.640207
Pb    1.457580  0.473539  4.189840
