36
Energy: -611332.569246 eV PBE+vdW (tier 2 basis)
C    0.154461  -0.219376  0.207594
C    0.003874  -0.138828  1.685352
O    1.023064  0.282075  2.396770
H    -0.797686  -0.032890  -0.302352
H    0.497150  -1.228575  -0.094250
H    0.900011  0.503594  -0.137118
N    -1.084600  -0.480934  2.322852
C    -2.353769  -1.007390  1.815491
C    -3.280692  -0.826627  3.058361
O    -2.738150  -0.640047  4.156661
H    -1.184246  -0.404873  3.367175
H    -2.703257  -0.393157  0.971277
C    -2.197568  -2.485691  1.386033
C    -3.344541  -3.051349  0.541197
C    -2.928021  -4.317765  -0.244180
N    -1.903843  -4.049638  -1.248352
C    -0.543078  -4.006793  -1.019441
N    -0.049870  -4.839729  -0.047617
N    0.281611  -3.179662  -1.608828
H    -2.035955  -3.102000  2.282348
H    -1.269493  -2.543453  0.804804
H    -3.694354  -2.298691  -0.185565
H    -4.209328  -3.314330  1.167418
H    -3.806268  -4.730494  -0.757928
H    -2.574860  -5.093970  0.445021
H    -2.206675  -3.497490  -2.045791
H    0.964420  -4.886081  -0.037333
H    -0.506236  -5.735030  0.092711
H    -0.175045  -2.633108  -2.345272
N    -4.599331  -0.916117  2.853766
C    -5.592578  -0.809539  3.922983
H    -4.938105  -1.010745  1.901936
H    -6.176223  0.112489  3.811461
H    -5.068897  -0.792167  4.881996
H    -6.269096  -1.671249  3.891194
Pb    2.542385  1.173729  3.584402
