36
Energy: -611335.379053 eV PBE+vdW (tier 2 basis)
C    -2.446323  -1.046988  0.607227
C    -2.170111  -1.059381  2.079671
O    -2.007408  -2.162650  2.677242
H    -2.649985  -0.049891  0.203239
H    -3.303068  -1.701476  0.399556
H    -1.584320  -1.477647  0.079261
N    -2.130062  0.126753  2.710455
C    -1.954814  0.442831  4.145061
C    -0.522900  0.109177  4.619661
O    -0.151750  -1.077306  4.855771
H    -2.285493  0.933732  2.113377
H    -2.085398  1.532062  4.188621
C    -2.945610  -0.221053  5.119460
C    -4.421279  -0.326567  4.717401
C    -5.120172  -1.499717  5.439387
N    -4.488523  -2.779488  5.088508
C    -3.403565  -3.328699  5.676979
N    -3.066875  -2.997878  6.943268
N    -2.578346  -4.179083  5.032557
H    -2.852683  0.324781  6.070426
H    -2.553785  -1.218924  5.323659
H    -4.523557  -0.486659  3.633297
H    -4.967079  0.600423  4.941585
H    -6.176464  -1.552659  5.149479
H    -5.112888  -1.365606  6.528939
H    -4.595651  -3.038366  4.111452
H    -2.465971  -3.652731  7.431917
H    -3.695920  -2.456911  7.524532
H    -3.039607  -4.581816  4.210050
N    0.305239  1.126785  4.814518
C    1.683418  0.981520  5.291559
H    -0.033141  2.066125  4.627126
H    2.066495  1.971953  5.549945
H    2.315653  0.541294  4.510484
H    1.706538  0.337568  6.177322
Pb    -0.585024  -3.300759  4.130114
