36
Energy: -611335.124703 eV PBE+vdW (tier 2 basis)
C    0.411206  0.165884  1.196223
C    -0.126042  0.111556  2.584023
O    0.646599  -0.096055  3.570149
H    0.847203  1.160581  1.010349
H    -0.344297  -0.043606  0.432588
H    1.235782  -0.552748  1.113259
N    -1.449161  0.285552  2.821704
C    -2.269432  1.322974  2.206213
C    -1.617346  2.691321  2.520603
O    -0.781628  2.810926  3.472025
H    -1.705696  0.091825  3.787295
H    -2.288144  1.169328  1.118359
C    -3.722634  1.243983  2.738820
C    -3.956926  1.768440  4.178096
C    -4.311838  0.746720  5.273420
N    -3.373709  -0.366370  5.509099
C    -2.092940  -0.266482  5.939213
N    -1.371107  -1.406903  6.040910
N    -1.474841  0.898680  6.158033
H    -4.045431  0.198273  2.632115
H    -4.353907  1.814952  2.048006
H    -4.815658  2.453223  4.161994
H    -3.114246  2.396490  4.497962
H    -5.262878  0.263549  5.018921
H    -4.490761  1.286870  6.216951
H    -3.809315  -1.279748  5.602891
H    -0.568764  -1.416152  6.659454
H    -1.775411  -2.310499  5.821632
H    -2.135990  1.663221  6.301575
N    -1.941165  3.758558  1.801899
C    -2.865612  3.870042  0.671568
H    -1.487080  4.620631  2.105771
H    -2.477753  4.625709  -0.019024
H    -3.862241  4.181874  1.009696
H    -2.943943  2.922657  0.129861
Pb    0.507828  1.657547  5.137625
