36
Energy: -611332.999229 eV PBE+vdW (tier 2 basis)
C    -1.500971  0.432749  -1.102309
C    -0.616567  0.432097  0.093224
O    0.646516  0.550131  -0.047452
H    -1.538608  1.439211  -1.546317
H    -2.514265  0.077877  -0.893757
H    -1.037514  -0.214295  -1.860797
N    -1.119560  0.296994  1.340743
C    -2.264520  1.054826  1.843507
C    -1.789534  2.520659  2.001619
O    -0.543182  2.813901  1.952895
H    -0.408448  0.116207  2.050995
H    -3.056753  1.032028  1.081385
C    -2.822388  0.432177  3.141984
C    -1.853454  0.377081  4.329935
C    -2.504522  -0.189580  5.616758
N    -2.979031  -1.556961  5.499572
C    -4.210110  -1.958775  5.004173
N    -5.235589  -1.032145  5.100095
N    -4.447614  -3.086539  4.413996
H    -3.163182  -0.578416  2.876139
H    -3.728046  0.980456  3.431753
H    -1.471447  1.382450  4.574020
H    -0.975682  -0.250205  4.097385
H    -3.332970  0.461523  5.921747
H    -1.767048  -0.152099  6.429626
H    -2.277585  -2.289431  5.532383
H    -6.121301  -1.438425  4.806070
H    -5.313832  -0.534469  5.983441
H    -3.634348  -3.706733  4.363850
N    -2.663463  3.494720  2.193802
C    -4.126134  3.434085  2.257268
H    -2.243855  4.418164  2.311909
H    -4.527299  4.336832  1.784919
H    -4.467972  3.399960  3.299507
H    -4.509198  2.563085  1.718001
Pb    1.566524  2.286591  1.158198
