36
Energy: -611334.839134 eV PBE+vdW (tier 2 basis)
C    0.551605  0.835155  0.384676
C    0.258707  1.323516  1.759544
O    1.090914  2.045507  2.386829
H    0.384787  1.651332  -0.336107
H    -0.052843  -0.031119  0.098488
H    1.617886  0.583721  0.321881
N    -0.907387  1.011119  2.383912
C    -2.228729  1.117826  1.767265
C    -2.358484  2.548012  1.194921
O    -1.692767  3.502817  1.715142
H    -0.901061  1.353370  3.347109
H    -2.319068  0.365744  0.972946
C    -3.374376  0.919132  2.806769
C    -3.225320  -0.171889  3.884240
C    -2.199931  -0.030483  5.027968
N    -2.330867  1.098449  5.979748
C    -1.620380  2.254255  5.900020
N    -1.095204  2.770892  7.020553
N    -1.451142  2.881741  4.722871
H    -4.276155  0.679476  2.226760
H    -3.618668  1.883874  3.281273
H    -3.000115  -1.134558  3.400111
H    -4.221027  -0.293635  4.334429
H    -1.166460  -0.050273  4.660347
H    -2.297431  -0.935500  5.641109
H    -2.666114  0.845700  6.905580
H    -0.868723  3.757244  7.070655
H    -1.019084  2.231496  7.875925
H    -2.255753  2.682368  4.128699
N    -3.187736  2.802508  0.193243
C    -4.079756  1.889926  -0.525279
H    -3.237273  3.787844  -0.070030
H    -4.104517  2.184182  -1.579583
H    -5.097860  1.944410  -0.118860
H    -3.719764  0.858900  -0.466009
Pb    0.046280  3.995104  3.276492
