36
Energy: -611334.279899 eV PBE+vdW (tier 2 basis)
C    0.228112  0.253149  0.334289
C    -0.322328  0.902433  1.559604
O    0.235923  1.950408  2.029868
H    -0.564586  -0.008604  -0.374780
H    0.747754  -0.679090  0.612373
H    0.949751  0.924715  -0.138932
N    -1.386582  0.381653  2.207820
C    -1.478143  -1.064388  2.575031
C    -0.111241  -1.505186  3.133385
O    0.515929  -0.570585  3.907440
H    -1.721319  1.001562  2.944211
H    -2.178910  -1.061561  3.425613
C    -2.049729  -1.992087  1.499982
C    -3.482949  -1.630739  1.094355
C    -4.091951  -2.540052  0.024009
N    -4.332113  -3.898892  0.533681
C    -4.622767  -4.967529  -0.222253
N    -4.806286  -4.835981  -1.541926
N    -4.705883  -6.182095  0.341132
H    -1.986364  -3.005830  1.917354
H    -1.393267  -2.008559  0.619055
H    -3.516771  -0.608137  0.690545
H    -4.145801  -1.617919  1.976332
H    -3.412069  -2.613934  -0.838533
H    -5.040907  -2.099514  -0.321754
H    -4.459320  -4.000741  1.535846
H    -4.879396  -5.648153  -2.143239
H    -4.989302  -3.933938  -1.962688
H    -4.370539  -6.354060  1.280709
N    0.316867  -2.672144  2.885750
C    1.566769  -3.167132  3.428252
H    -5.116605  -6.965516  -0.152551
H    1.351139  -4.047458  4.049792
H    2.127587  -2.438802  4.029825
H    2.194353  -3.522112  2.599652
Pb    1.279518  1.416650  4.045021
