36
Energy: -611335.41028 eV PBE+vdW (tier 2 basis)
C    0.279111  0.068024  0.214917
C    -0.084780  -0.617285  1.497089
O    0.667063  -1.532227  1.939777
H    0.411419  -0.689727  -0.568475
H    1.249539  0.567219  0.340943
H    -0.460054  0.803416  -0.119242
N    -1.219031  -0.224820  2.101541
C    -1.896831  -0.713720  3.323657
C    -1.059009  -0.400330  4.582829
O    -0.026987  -1.068447  4.876831
H    -1.714964  0.518261  1.618400
H    -2.813572  -0.111072  3.362518
C    -2.290540  -2.205090  3.351587
C    -2.783794  -2.842989  2.048472
C    -2.823916  -4.390450  2.143436
N    -1.642015  -4.959116  2.820459
C    -0.369096  -4.634894  2.481931
N    -0.100124  -4.383908  1.187759
N    0.625200  -4.496938  3.380145
H    -3.055686  -2.304160  4.137127
H    -1.421739  -2.760683  3.717515
H    -2.130289  -2.547044  1.216939
H    -3.792523  -2.495788  1.785007
H    -2.950133  -4.832355  1.144944
H    -3.688446  -4.726018  2.727733
H    -1.775178  -5.157946  3.806416
H    0.871654  -4.349457  0.905233
H    -0.765520  -4.645787  0.469761
H    0.376999  -4.917810  4.280208
N    -1.493522  0.580056  5.365310
C    -0.852013  1.003572  6.611378
H    -2.329359  1.082834  5.079648
H    -1.627616  1.262765  7.339041
H    -0.217201  1.881303  6.434130
H    -0.240790  0.184928  6.999154
Pb    1.639860  -2.412274  3.822333
