36
Energy: -611334.669189 eV PBE+vdW (tier 2 basis)
C    -0.420364  0.318986  0.834285
C    -0.681960  0.038992  2.214261
O    0.240661  0.353072  3.069741
H    -1.065357  -0.031164  0.032430
H    0.044231  1.292328  0.662478
H    -4.975657  2.478200  3.615631
N    -1.723883  -0.713637  2.719457
C    -2.369997  -1.816513  2.008853
C    -1.313825  -2.863798  1.554374
O    -0.074723  -2.632852  1.598352
H    -1.523076  -0.927509  3.696579
H    -2.962861  -2.335325  2.779172
C    -3.366801  -1.365263  0.910704
C    -4.755511  -0.981471  1.451120
C    -4.878199  0.359339  2.184773
N    -4.847536  1.486689  1.239704
C    -4.781735  2.780741  1.591523
N    -4.731507  3.729376  0.644595
N    -4.730621  3.130916  2.882198
H    -3.499494  -2.179163  0.187653
H    -2.934619  -0.534849  0.339400
H    -5.109859  -1.760068  2.143034
H    -5.479361  -0.995525  0.620504
H    -4.051468  0.484538  2.898679
H    -5.829609  0.368935  2.740867
H    -5.151778  1.291019  0.290361
H    -4.631152  3.495168  -0.335190
H    -4.882493  4.705883  0.868667
H    -4.563685  4.091446  3.158343
N    -1.727877  -4.073811  1.169147
C    -3.073485  -4.643784  1.160558
H    -0.967793  -4.697003  0.898480
H    -2.997198  -5.711148  1.392205
H    -3.551657  -4.535938  0.177894
H    -3.705481  -4.180851  1.925650
Pb    1.594281  -0.885467  1.578017
