36
Energy: -611332.633015 eV PBE+vdW (tier 2 basis)
C    0.757822  -0.354685  0.710623
C    0.313312  0.064078  2.068450
O    1.217211  0.612449  2.856084
H    1.355344  0.443667  0.253403
H    -0.082944  -0.600369  0.056081
H    1.408261  -1.237659  0.797853
N    -0.890614  -0.090732  2.531297
C    -2.114081  -0.590895  1.900778
C    -3.182220  -0.094604  2.941627
O    -2.746127  0.486572  3.960139
H    -1.230387  0.305859  3.472144
H    -2.278150  -0.046812  0.957884
C    -2.131309  -2.123434  1.638348
C    -2.616490  -2.466926  0.219271
C    -3.279279  -3.849290  0.055417
N    -4.301098  -4.177293  1.048439
C    -5.307205  -3.347341  1.445826
N    -5.953753  -3.665358  2.604336
N    -5.634776  -2.209873  0.860097
H    -2.776794  -2.599976  2.388384
H    -1.126402  -2.532190  1.809789
H    -1.777761  -2.435630  -0.492099
H    -3.312832  -1.688778  -0.119629
H    -2.523365  -4.640658  0.133377
H    -3.693670  -3.918646  -0.963424
H    -4.221896  -5.083577  1.496383
H    -6.868158  -3.247176  2.733990
H    -5.791361  -4.546930  3.076016
H    -5.312159  -2.181348  -0.109181
N    -4.466869  -0.295282  2.688227
C    -5.507800  0.143607  3.616376
H    -4.795691  -0.870507  1.886389
H    -6.475238  -0.005147  3.128798
H    -5.380931  1.204803  3.858497
H    -5.473138  -0.433059  4.550134
Pb    2.298999  1.767499  4.265388
