36
Energy: -611334.245598 eV PBE+vdW (tier 2 basis)
C    0.893205  2.160752  1.653328
C    0.420759  1.570202  2.933915
O    1.160304  1.705712  3.991552
H    0.470407  1.612778  0.795440
H    1.987467  2.155222  1.620513
H    0.570693  3.213048  1.607202
N    -0.751100  0.954490  2.959538
C    -1.449490  0.461706  4.150510
C    -0.894522  -0.921443  4.543152
O    0.239438  -1.005138  5.139962
H    -1.335903  0.956528  2.057350
H    -1.170753  1.110316  4.998577
C    -2.985157  0.583989  4.013453
C    -3.747961  -0.021183  2.807994
C    -3.817364  0.846467  1.542583
N    -2.525140  0.948269  0.849309
C    -1.994451  -0.105412  0.029071
N    -2.848054  -1.150121  -0.236476
N    -0.751541  0.016255  -0.264866
H    -3.208838  1.660396  4.055156
H    -3.406171  0.174715  4.943744
H    -4.782135  -0.185567  3.141194
H    -3.380339  -1.016418  2.506532
H    -4.113424  1.869059  1.813195
H    -4.622256  0.469122  0.892106
H    -2.392747  1.838889  0.372751
H    -2.493324  -1.865562  -0.863626
H    -3.833887  -0.949870  -0.378651
H    -0.423017  -0.688145  -0.929777
N    -1.576982  -2.016986  4.289307
C    -1.147679  -3.379843  4.614274
H    -2.470127  -1.904779  3.814351
H    -2.035672  -3.983972  4.822759
H    -0.498083  -3.361198  5.493059
H    -0.602939  -3.817050  3.767408
Pb    1.830556  0.489842  5.679029
