36
Energy: -611335.576877 eV PBE+vdW (tier 2 basis)
C    0.715764  -1.552923  1.201725
C    0.492101  -0.470549  2.210612
O    1.440531  0.297793  2.551848
H    1.051919  -1.085633  0.265233
H    -0.171859  -2.160567  0.996483
H    1.532695  -2.201842  1.542762
N    -0.737367  -0.347909  2.730128
C    -1.326478  0.725098  3.547429
C    -0.382685  1.430297  4.521850
O    0.493324  0.819116  5.220618
H    -1.434112  -0.985335  2.352262
H    -1.689079  1.488924  2.842455
C    -2.594131  0.181906  4.273495
C    -2.479974  -0.744371  5.499252
C    -1.755564  -2.091194  5.357053
N    -0.310558  -1.883820  5.430745
C    0.675132  -2.680339  4.995980
N    0.402053  -3.975944  4.727959
N    1.896895  -2.148372  4.809129
H    -3.203305  -0.306574  3.495095
H    -3.184572  1.056951  4.578687
H    -3.513553  -0.962473  5.801331
H    -2.047224  -0.202673  6.355430
H    -2.017578  -2.592984  4.410995
H    -2.087114  -2.748809  6.175471
H    -0.018601  -0.941171  5.681519
H    1.134525  -4.590910  4.394067
H    -0.400709  -4.431623  5.148260
H    2.631317  -2.855016  4.753787
N    -0.572733  2.729010  4.720584
C    -1.521594  3.647063  4.079021
H    0.013611  3.120923  5.457503
H    -1.439583  3.598668  2.986762
H    -1.267407  4.663141  4.393019
H    -2.553430  3.439551  4.387947
Pb    2.629030  0.036709  4.522098
