36
Energy: -611335.093141 eV PBE+vdW (tier 2 basis)
C    -0.233494  0.225559  0.250661
C    -0.024044  -0.003282  1.713398
O    1.063108  -0.561899  2.090475
H    -0.191193  -0.746290  -0.261263
H    0.593207  0.828467  -0.147229
H    -1.185409  0.712426  0.015237
N    -0.987379  0.368212  2.556642
C    -1.166534  0.126735  4.008896
C    -0.284161  0.987059  4.916027
O    1.037954  0.984952  4.743188
H    -1.779447  0.822449  2.110266
H    -2.180034  0.497571  4.193656
C    -1.131866  -1.372217  4.385645
C    -1.595834  -1.621943  5.829950
C    -3.094654  -1.339043  6.044407
N    -3.464128  -1.130907  7.442928
C    -3.669476  0.068008  8.016991
N    -4.325504  0.118480  9.189134
N    -3.250467  1.193149  7.431760
H    -0.121403  -1.784919  4.258540
H    -1.768536  -1.919707  3.674311
H    -1.009292  -1.003018  6.523245
H    -1.382799  -2.666911  6.092811
H    -3.698780  -2.173011  5.662698
H    -3.423139  -0.445845  5.497831
H    -3.629901  -1.950974  8.017085
H    -4.313290  0.953630  9.761422
H    -4.893484  -0.654959  9.513332
H    -3.595517  2.078063  7.785744
N    -0.871225  1.622277  5.866039
C    -0.050531  2.410358  6.783853
H    -2.462608  1.243896  6.743293
H    -0.664374  2.735205  7.630526
H    0.336975  3.309213  6.282943
H    0.812543  1.845764  7.165426
Pb    2.567637  -0.074516  3.681200
