36
Energy: -611333.09126 eV PBE+vdW (tier 2 basis)
C    0.191749  1.119106  0.024710
C    0.061358  0.561883  1.398210
O    1.103061  0.278220  2.073889
H    -0.735201  1.068517  -0.553564
H    0.978432  0.553725  -0.494061
H    0.547084  2.159926  0.071902
N    -1.154374  0.338304  1.950551
C    -2.242253  1.316600  1.942141
C    -1.802862  2.481443  2.861395
O    -0.822159  2.334936  3.669990
H    -1.113786  -0.212125  2.810675
H    -2.367746  1.695466  0.917386
C    -3.555404  0.657952  2.415555
C    -4.050850  -0.432032  1.459395
C    -5.351466  -1.107320  1.955754
N    -5.784920  -2.186455  1.095430
C    -6.374170  -2.053119  -0.149247
N    -7.112949  -0.905730  -0.360843
N    -6.145787  -3.015691  -0.989754
H    -4.320406  1.438737  2.526951
H    -3.397320  0.249468  3.428405
H    -3.281810  -1.208276  1.331846
H    -4.234122  -0.002219  0.462427
H    -6.149128  -0.357441  2.051590
H    -5.202276  -1.525525  2.961462
H    -5.292753  -3.073912  1.168591
H    -7.623725  -0.879849  -1.237422
H    -7.655284  -0.542889  0.418582
H    -6.641639  -2.903413  -1.878770
N    -2.445444  3.638770  2.839169
C    -3.578693  4.056011  2.011352
H    -2.100846  4.324081  3.513199
H    -3.422919  5.097347  1.709820
H    -4.515904  3.990193  2.578970
H    -3.654340  3.443276  1.108746
Pb    1.196404  1.293655  4.153955
