36
Energy: -611334.230194 eV PBE+vdW (tier 2 basis)
C    0.313075  1.006865  1.506325
C    0.523415  -0.505671  1.505280
O    1.291825  -0.919916  2.548414
H    -0.218951  1.409777  0.637036
H    1.300787  1.476925  1.564756
H    -0.235467  1.295681  2.411504
N    -0.793341  -1.276386  1.659045
C    -2.087548  -0.737356  1.233019
C    -2.831369  -0.279878  2.524065
O    -2.253439  -0.343005  3.644387
H    -0.657909  -2.202464  1.252994
H    -1.929244  0.186797  0.652598
C    -2.829065  -1.752848  0.342755
C    -2.367434  -1.846783  -1.129442
C    -0.937925  -2.352728  -1.465108
N    0.024857  -1.295739  -1.835828
C    0.787812  -0.553628  -1.024673
N    1.244426  0.633703  -1.433213
N    1.158514  -0.984890  0.223296
H    -3.900908  -1.511713  0.314027
H    -2.780943  -2.744553  0.823125
H    -2.519517  -0.876785  -1.627166
H    -3.066594  -2.535673  -1.622481
H    -0.988229  -3.009882  -2.340459
H    -0.508682  -2.974174  -0.668441
H    0.018841  -1.038132  -2.821486
H    2.054565  1.032260  -0.969229
H    0.905949  1.094268  -2.272559
H    1.344165  -1.986826  0.276276
N    -4.050746  0.225932  2.393764
C    -4.867149  0.750328  3.491922
H    -4.456749  0.261398  1.462825
H    -5.114153  1.800746  3.298134
H    -4.302495  0.671769  4.423217
H    -5.794305  0.170824  3.573417
Pb    -0.188211  -1.493100  4.098572
