36
Energy: -611334.793291 eV PBE+vdW (tier 2 basis)
C    -0.312831  0.420838  0.005140
C    -0.180630  0.152951  1.465511
O    1.001690  0.216288  1.992802
H    -1.352294  0.502745  -0.324359
H    0.193473  -0.366153  -0.571125
H    0.210898  1.360080  -0.219532
N    -1.206602  -0.113074  2.243715
C    -2.556472  -0.591193  1.940425
C    -3.188644  -0.700532  3.361036
O    -2.421186  -0.774464  4.333622
H    -1.073471  -0.212201  3.273532
H    -3.101179  0.137924  1.324151
C    -2.532134  -1.968826  1.228851
C    -1.860099  -3.131840  1.982257
C    -0.372500  -2.917056  2.289499
N    0.288180  -4.146713  2.694269
C    1.472507  -4.193916  3.325517
N    1.944011  -5.399851  3.695689
N    2.170901  -3.068624  3.594440
H    -2.060587  -1.843572  0.242665
H    -3.573351  -2.252414  1.022128
H    -1.967958  -4.021599  1.342139
H    -2.393242  -3.349508  2.918689
H    -0.270931  -2.211657  3.125094
H    0.142519  -2.499609  1.406269
H    -0.137768  -5.025412  2.415441
H    2.874673  -5.509222  4.078664
H    1.394266  -6.245925  3.598209
H    2.974562  -3.315109  4.179589
N    -4.522587  -0.755442  3.420508
C    -5.275702  -0.896641  4.666624
H    -5.051434  -0.626578  2.563070
H    -4.566828  -1.039651  5.486023
H    -5.946838  -1.761111  4.604248
H    -5.868387  0.006801  4.854541
Pb    2.478010  -0.784011  3.329561
