36
Energy: -611334.888747 eV PBE+vdW (tier 2 basis)
C    -0.125277  -1.268155  1.207801
C    -0.331914  -0.287829  2.324158
O    0.585315  0.087179  3.066315
H    0.501128  -0.789553  0.441874
H    -1.055277  -1.608509  0.738805
H    0.435047  -2.131313  1.585169
N    -1.608648  0.195006  2.505059
C    -1.882459  1.372710  3.327963
C    -1.890393  1.048009  4.843516
O    -2.895439  1.323255  5.606327
H    -2.330184  -0.128197  1.871217
H    -1.010016  2.040493  3.208128
C    -3.102851  2.150728  2.800886
C    -4.421462  1.413036  2.499062
C    -5.247937  0.829165  3.643871
N    -5.886563  1.907965  4.481450
C    -6.587117  1.410325  5.643184
N    -7.803567  0.886041  5.491522
N    -5.902140  1.559385  6.742923
H    -2.780970  2.612233  1.856292
H    -3.275969  3.021109  3.457477
H    -4.238398  0.581684  1.801440
H    -5.055671  2.100545  1.916666
H    -4.646088  0.215310  4.323353
H    -6.036831  0.188453  3.221837
H    -6.506321  2.475399  3.892989
H    -8.348976  0.567829  6.288457
H    -8.220655  0.754588  4.575884
H    -6.287809  1.192053  7.614421
N    -0.802428  0.486709  5.307153
C    -0.554354  0.092368  6.688039
H    -0.061742  0.320428  4.570600
H    -1.473538  0.159114  7.274968
H    0.214388  0.742636  7.125465
H    -0.182079  -0.938401  6.702389
Pb    -4.210701  3.053732  6.096731
