36
Energy: -611334.925754 eV PBE+vdW (tier 2 basis)
C    0.421470  0.017535  0.744249
C    -0.148580  -0.316184  2.094680
O    0.070809  -1.586920  2.452348
H    0.249751  1.067939  0.491155
H    -0.011778  -0.642071  -0.020700
H    1.503353  -0.171118  0.740430
N    -0.789174  0.600461  2.746561
C    -1.430714  0.374218  4.050300
C    -0.442836  -0.082912  5.131255
O    -0.254538  -1.313705  5.441207
H    -2.473701  1.381574  -0.989561
H    -1.747482  1.374343  4.387306
C    -2.704114  -0.501403  3.943696
C    -4.003219  0.300658  3.704052
C    -3.938021  1.468331  2.706770
N    -3.383645  1.139139  1.391432
C    -4.059094  0.971609  0.253417
N    -5.388694  0.797774  0.245669
N    -3.389896  0.957797  -0.913760
H    -2.844298  -1.082651  4.865484
H    -2.562441  -1.226798  3.129603
H    -4.343394  0.733802  4.656664
H    -4.786872  -0.409937  3.402722
H    -3.311768  2.279718  3.102408
H    -4.935842  1.908113  2.579533
H    -2.359662  1.079139  1.378884
H    -5.904527  0.619689  1.097155
H    -5.926489  0.904533  -0.606000
H    -3.844789  0.682659  -1.775735
N    0.221998  0.865301  5.769430
C    1.232559  0.653468  6.805188
H    0.027084  1.826132  5.497185
H    1.100327  1.406930  7.588508
H    2.240098  0.753624  6.380609
H    1.109589  -0.343820  7.234040
Pb    0.144814  -3.009489  4.039256
