36
Energy: -611333.188995 eV PBE+vdW (tier 2 basis)
C    0.117170  -0.134858  0.346092
C    0.349791  0.406097  1.711339
O    1.523849  0.762560  2.066407
H    0.204382  0.669195  -0.400787
H    -0.847068  -0.639452  0.238734
H    0.928322  -0.842820  0.123679
N    -0.662031  0.529332  2.599286
C    -1.953045  1.138007  2.274570
C    -1.699520  2.634018  1.989698
O    -0.594387  3.194348  2.338092
H    -0.352099  0.717774  3.554486
H    -2.346037  0.672409  1.358893
C    -2.964283  0.931103  3.416935
C    -3.595479  -0.464928  3.414440
C    -4.846413  -0.574105  4.320236
N    -5.781570  0.541181  4.206714
C    -6.267988  1.083001  3.034305
N    -6.280575  0.243245  1.935116
N    -6.626263  2.323291  2.867130
H    -3.755818  1.683092  3.307368
H    -2.474571  1.157049  4.378955
H    -2.877198  -1.231301  3.739191
H    -3.879108  -0.714114  2.382025
H    -4.551397  -0.618278  5.375824
H    -5.344046  -1.533795  4.108699
H    -5.871489  1.141709  5.017663
H    -6.830538  0.632469  1.173091
H    -6.499577  -0.733844  2.111428
H    -6.580051  2.866388  3.734348
N    -2.628842  3.360330  1.396348
C    -3.946857  2.948242  0.902910
H    -2.391344  4.347730  1.288117
H    -4.179731  3.549448  0.018379
H    -4.736501  3.103108  1.658326
H    -3.945692  1.891067  0.618996
Pb    1.640444  2.953158  2.765473
