36
Energy: -611333.916175 eV PBE+vdW (tier 2 basis)
C    -0.091137  -2.352462  0.600351
C    -0.184372  -1.356967  1.706516
O    0.845941  -0.660949  2.001732
H    -1.024707  -2.899905  0.434880
H    0.716278  -3.064129  0.818966
H    0.189304  -1.827657  -0.323856
N    -1.345236  -1.203664  2.349216
C    -1.628507  -0.171764  3.353514
C    -0.933874  -0.519258  4.685804
O    0.181271  0.073437  4.964878
H    -2.137133  -1.758892  2.029867
H    -1.096292  0.733087  3.021211
C    -3.137712  0.194401  3.451545
C    -4.144620  -0.696026  2.708771
C    -5.612817  -0.292530  3.030623
N    -6.279847  -1.096915  4.038985
C    -6.199949  -0.857545  5.391769
N    -7.250167  -1.345029  6.122285
N    -5.138309  -0.261947  5.870626
H    -3.235842  1.213855  3.056486
H    -3.448599  0.252198  4.506278
H    -4.042606  -1.761618  2.969528
H    -4.001898  -0.606880  1.620156
H    -6.206998  -0.387276  2.114615
H    -5.644812  0.766219  3.327092
H    -7.033959  -1.693103  3.720798
H    -7.225695  -1.244116  7.129111
H    -8.177143  -1.401123  5.715472
H    -5.260731  -0.033753  6.859977
N    -1.408223  -1.383485  5.557691
C    -2.634580  -2.179329  5.515782
H    -0.830552  -1.478535  6.394605
H    -2.558966  -2.942032  6.295441
H    -2.733006  -2.685306  4.549289
H    -3.526806  -1.539996  5.702004
Pb    1.824165  0.634856  3.564736
