36
Energy: -611333.518747 eV PBE+vdW (tier 2 basis)
C    -1.249952  0.252181  0.177891
C    -1.071271  0.494283  1.634474
O    -0.116594  1.278145  2.018613
H    -1.301167  1.218156  -0.342496
H    -2.145093  -0.337908  -0.050659
H    -0.360117  -0.265139  -0.209859
N    -1.882460  -0.087046  2.510576
C    -1.839260  0.204115  3.938159
C    -0.516591  -0.260092  4.589538
O    0.262557  0.666852  5.040335
H    -2.786468  -0.579224  2.199991
H    -1.768570  1.300262  4.049452
C    -3.174324  -0.134772  4.650433
C    -3.828259  -1.532593  4.673804
C    -4.107300  -2.278805  3.349089
N    -4.284722  -1.380867  2.193378
C    -4.230793  -1.861978  0.836414
N    -3.604226  -3.087101  0.682644
N    -4.543896  -1.155842  -0.181715
H    -3.889832  0.583801  4.222558
H    -3.052874  0.184033  5.695933
H    -4.783605  -1.368619  5.192613
H    -3.271087  -2.211235  5.332823
H    -4.980763  -2.932872  3.498264
H    -3.264465  -2.933986  3.103613
H    -5.082649  -0.753401  2.297792
H    -3.600087  -3.370041  -0.295921
H    -3.911698  -3.844120  1.287532
H    -4.910047  -0.229352  0.052880
N    -0.108876  -1.507608  4.706993
C    -0.687603  -2.753754  4.206943
H    0.784108  -1.596167  5.196814
H    -1.266602  -3.258062  4.989304
H    0.137177  -3.408917  3.906808
H    -1.310073  -2.558873  3.331822
Pb    0.975327  2.295476  3.663434
