36
Energy: -611334.604043 eV PBE+vdW (tier 2 basis)
C    0.465651  -1.702864  0.462069
C    0.335085  -0.379707  1.137322
O    1.416558  0.280959  1.395751
H    0.758306  -1.517131  -0.583503
H    -0.457504  -2.288257  0.463955
H    1.279909  -2.281261  0.914275
N    -0.827802  0.153146  1.475870
C    -2.212241  -0.313445  1.332468
C    -2.938311  1.021001  0.967241
O    -2.348094  2.072530  1.270085
H    -0.911665  1.198541  1.622427
H    -2.294888  -1.061531  0.535319
C    -2.794867  -0.833423  2.671086
C    -2.300501  -2.180984  3.224729
C    -0.949003  -2.250560  3.956243
N    -0.841099  -1.441227  5.182095
C    -0.046095  -0.363927  5.334270
N    0.340154  0.007266  6.566974
N    0.369316  0.338650  4.262047
H    -3.878961  -0.928477  2.519398
H    -2.686819  -0.036391  3.425029
H    -2.264770  -2.934193  2.422031
H    -3.070854  -2.546611  3.919658
H    -0.105959  -1.977134  3.311691
H    -0.777052  -3.295363  4.250833
H    -1.271907  -1.826341  6.019027
H    0.609057  0.968457  6.740131
H    0.160441  -0.570834  7.380472
H    -0.252665  0.147809  3.471987
N    -4.146644  0.991219  0.396998
C    -4.950422  -0.157065  -0.010017
H    -4.550920  1.915370  0.250467
H    -4.326327  -1.045628  -0.147895
H    -5.428925  0.063906  -0.970333
H    -5.733765  -0.378999  0.727633
Pb    2.258777  1.137019  3.291951
