36
Energy: -611333.996717 eV PBE+vdW (tier 2 basis)
C    -0.340163  -0.746935  0.027034
C    -0.326979  -0.491818  1.495708
O    0.737914  -0.021917  2.034252
H    0.483150  -1.423557  -0.237560
H    -0.146050  0.204354  -0.490271
H    -1.287085  -1.162649  -0.332472
N    -1.429664  -0.729929  2.205133
C    -1.714382  -0.355310  3.610556
C    -1.158853  -1.473379  4.511203
O    0.130688  -1.601619  4.610211
H    -2.221347  -1.110887  1.688681
H    -1.127325  0.551879  3.829147
C    -3.216149  -0.020112  3.683343
C    -3.747865  0.761948  4.898362
C    -3.795989  0.046598  6.255468
N    -4.309843  -1.316859  6.102661
C    -4.447496  -2.226888  7.206299
N    -3.933295  -1.774260  8.404743
N    -4.904858  -3.380236  6.897183
H    -3.799103  -0.941831  3.526255
H    -3.416500  0.608827  2.803402
H    -4.769414  1.068772  4.629217
H    -3.186889  1.699979  5.020103
H    -4.404691  0.665009  6.936718
H    -2.791058  -0.019557  6.700342
H    -5.154215  -1.387622  5.533610
H    -4.071571  -2.395642  9.196087
H    -4.056217  -0.796117  8.650846
H    -5.047342  -3.992159  7.703991
N    -1.959930  -2.302665  5.118754
C    -1.508408  -3.441266  5.921870
H    -2.989560  -2.027722  5.258981
H    -2.292801  -4.202884  5.887919
H    -1.368969  -3.128074  6.966123
H    -0.566925  -3.835406  5.530949
Pb    1.919437  -0.548703  3.850417
