36
Energy: -611335.258607 eV PBE+vdW (tier 2 basis)
C    -0.703084  0.853059  -1.105362
C    -0.078263  0.459060  0.196588
O    1.201090  0.470822  0.267715
H    -1.575852  1.502060  -0.983834
H    -1.025631  -0.052117  -1.643944
H    0.048552  1.352327  -1.724629
N    -0.726113  0.052323  1.318776
C    -1.951441  -0.760597  1.275855
C    -1.541824  -2.146076  0.708502
O    -0.347631  -2.553219  0.870324
H    -0.180365  3.254810  3.656785
H    -2.177137  -0.976757  2.336515
C    -3.236917  -0.151132  0.675579
C    -3.582623  1.288121  1.099917
C    -3.641828  1.589248  2.602943
N    -2.308806  1.900748  3.140122
C    -2.072978  2.673943  4.204698
N    -3.054874  2.989065  5.057968
N    -0.825792  3.132023  4.427317
H    -4.075632  -0.797769  0.981193
H    -3.208223  -0.176427  -0.422207
H    -4.574254  1.511499  0.684271
H    -2.900309  2.011714  0.631017
H    -4.092981  0.746927  3.154308
H    -4.281778  2.468743  2.758986
H    -1.506641  1.512194  2.629657
H    -3.935360  2.489463  5.063833
H    -2.937264  3.721835  5.748125
H    -0.594884  3.605436  5.293099
N    -2.435572  -2.902121  0.090389
C    -2.175758  -4.248312  -0.428461
H    -3.379823  -2.540360  -0.004618
H    -2.533255  -5.004461  0.282049
H    -1.101353  -4.374909  -0.580846
H    -2.703006  -4.369640  -1.380024
Pb    1.245329  -1.173741  1.911940
