36
Energy: -611335.151791 eV PBE+vdW (tier 2 basis)
C    0.224195  1.116428  0.471794
C    0.604374  1.108446  1.914557
O    1.682184  1.711950  2.261928
H    0.891490  0.443025  -0.085787
H    -0.812082  0.816557  0.290892
H    0.390046  2.124764  0.072958
N    -0.134915  0.514068  2.841521
C    -1.375250  -0.257792  2.754902
C    -1.880281  -0.301602  4.220453
O    -1.059699  -0.101155  5.144581
H    0.117645  0.649981  3.827234
H    -2.094441  0.289818  2.130044
C    -1.197203  -1.678429  2.152153
C    -0.599753  -2.811029  3.007443
C    0.894314  -2.765479  3.358418
N    1.163449  -1.861770  4.483172
C    2.111748  -0.937621  4.547209
N    1.951189  0.120196  5.497490
N    3.167641  -0.767374  3.778922
H    -0.622090  -1.576303  1.219824
H    -2.195628  -2.010289  1.835199
H    -0.749395  -3.738923  2.437571
H    -1.184845  -2.954410  3.930801
H    1.492135  -2.434460  2.497044
H    1.238171  -3.774072  3.626843
H    0.431970  -1.801927  5.191544
H    2.570234  0.020620  6.306907
H    0.978897  0.242675  5.809583
H    3.415862  -1.515787  3.132482
N    -3.161453  -0.589506  4.456600
C    -4.252155  -0.824845  3.510826
H    -3.394292  -0.635103  5.448036
H    -4.088771  -0.280505  2.575115
H    -5.182000  -0.453138  3.953035
H    -4.371755  -1.894747  3.295102
Pb    3.375443  1.562984  3.765223
