36
Energy: -611334.835024 eV PBE+vdW (tier 2 basis)
C    -0.149762  0.145031  -0.371299
C    0.012649  -0.306083  1.040790
O    1.131486  -0.793131  1.422545
H    0.402965  -0.543973  -1.020772
H    0.303209  1.140804  -0.490133
H    -1.193870  0.192897  -0.695990
N    -1.001395  -0.238390  1.910254
C    -2.178915  0.631866  1.823422
C    -1.700366  2.077305  1.560141
O    -0.599191  2.451132  2.018852
H    -0.820744  -0.649742  2.824399
H    -2.830670  0.275811  1.014171
C    -2.992660  0.585514  3.145095
C    -2.448355  1.401212  4.341125
C    -1.673579  0.667467  5.443205
N    -0.561342  -0.237754  5.041108
C    0.686618  0.071745  4.646096
N    0.971030  1.285452  3.954920
N    1.727777  -0.727215  4.697601
H    -3.155785  -0.470398  3.411513
H    -3.989934  0.970433  2.898560
H    -3.307393  1.838645  4.869211
H    -1.872467  2.265684  3.988912
H    -2.357015  0.012802  5.996953
H    -1.287395  1.401764  6.163595
H    -0.649580  -1.182203  5.412460
H    0.226449  1.711852  3.340023
H    1.407789  1.991675  4.552671
H    1.651535  -1.593427  5.233842
N    -2.506621  2.902095  0.884703
C    -3.796971  2.606894  0.257051
H    -2.156970  3.856222  0.812263
H    -4.105396  3.488290  -0.311794
H    -4.575700  2.396493  1.001041
H    -3.721054  1.767284  -0.445293
Pb    2.834999  -0.033587  2.746428
