36
Energy: -611335.720849 eV PBE+vdW (tier 2 basis)
C    1.536972  -0.758248  1.675826
C    0.772016  0.400788  2.238688
O    1.388014  1.279715  2.909825
H    0.917769  -1.476345  1.128506
H    2.039003  -1.276819  2.504226
H    2.326921  -0.382256  1.012307
N    -0.551898  0.429926  2.007715
C    -1.643086  1.290333  2.523116
C    -1.564270  2.755930  2.071740
O    -0.570389  3.516207  2.253631
H    -0.888052  -0.354518  1.456293
H    -2.523096  0.881344  2.008543
C    -1.960833  1.089712  4.030165
C    -0.935698  1.478904  5.103638
C    -0.929359  2.965244  5.487586
N    0.100314  3.266844  6.471315
C    1.262280  3.903572  6.238815
N    1.984914  4.273456  7.318585
N    1.691288  4.182859  4.997680
H    -2.180291  0.017695  4.133927
H    -2.918464  1.600985  4.220390
H    0.075575  1.167937  4.818725
H    -1.184311  0.899492  6.004982
H    -1.901073  3.247646  5.919434
H    -0.769562  3.624696  4.628819
H    -0.069620  2.959637  7.423662
H    1.591120  4.280500  8.252123
H    2.942136  4.587502  7.224833
H    2.451135  4.865063  5.052100
N    -2.664930  3.242285  1.506624
C    -2.816081  4.636663  1.084846
H    -3.446192  2.614505  1.342843
H    -3.858333  4.800152  0.799254
H    -2.168056  4.849762  0.225696
H    -2.552706  5.310847  1.907364
Pb    1.706897  3.549993  2.758863
