36
Energy: -611335.199346 eV PBE+vdW (tier 2 basis)
C    1.732042  0.268465  1.277526
C    1.045186  0.320267  2.608957
O    1.813710  0.795049  3.585682
H    1.057836  -0.068475  0.486031
H    2.593369  -0.411250  1.328748
H    2.127296  1.262116  1.028282
N    -0.197745  -0.046559  2.717397
C    -0.899567  0.073675  3.998401
C    -0.531084  -1.112028  4.894993
O    0.486960  -1.055167  5.673006
H    -1.348853  -0.193223  1.177130
H    -0.566528  0.971073  4.557079
C    -2.400688  0.213958  3.710712
C    -2.710389  1.501665  2.917194
C    -3.753805  1.309535  1.791897
N    -3.253685  1.540726  0.427832
C    -2.555768  0.666606  -0.313893
N    -2.601636  0.767547  -1.652779
N    -1.840985  -0.309876  0.264182
H    -2.971878  0.193741  4.648606
H    -2.725214  -0.657162  3.117187
H    -1.788064  1.890641  2.463904
H    -3.058139  2.280266  3.606842
H    -4.590105  2.005220  1.915994
H    -4.180598  0.297057  1.826347
H    -3.584821  2.373115  -0.048471
H    -1.908057  0.319534  -2.239305
H    -3.344029  1.274894  -2.120169
H    -1.503454  -1.062333  -0.325910
N    -1.250932  -2.217748  4.859327
C    -0.957618  -3.428752  5.629693
H    -2.059202  -2.228564  4.244137
H    -1.861894  -4.041587  5.670843
H    -0.652809  -3.157321  6.645145
H    -0.152282  -4.002438  5.153391
Pb    2.203924  0.410515  5.662207
