36
Energy: -611335.262207 eV PBE+vdW (tier 2 basis)
C    0.027682  -0.419961  0.354873
C    -0.125663  -0.088125  1.809786
O    0.912325  0.360527  2.419452
H    -0.800160  -0.048181  -0.256126
H    0.076825  -1.512671  0.227928
H    0.970562  -0.000496  -0.008729
N    -1.232979  -0.243853  2.564837
C    -2.173439  -1.355850  2.389611
C    -1.377520  -2.639870  2.756711
O    -0.449435  -2.555141  3.619505
H    -4.222113  2.499810  2.489786
H    -2.889204  -1.255269  3.226726
C    -3.045054  -1.419239  1.120117
C    -4.040267  -0.253717  0.945219
C    -3.452126  1.051171  0.383503
N    -4.487601  2.004405  -0.035258
C    -4.929303  3.071075  0.644791
N    -5.699733  3.977953  0.028538
N    -4.603514  3.251476  1.932365
H    -3.669137  -2.322721  1.200301
H    -2.439274  -1.545304  0.212772
H    -4.555424  -0.057803  1.899409
H    -4.822527  -0.592128  0.250157
H    -2.853481  0.839575  -0.513127
H    -2.779235  1.548386  1.093865
H    -4.929162  1.830731  -0.933222
H    -6.227661  4.666045  0.552540
H    -5.781807  4.006788  -0.980886
H    -4.773084  4.136782  2.394293
N    -1.671455  -3.807447  2.203016
C    -1.004403  -5.067547  2.545264
H    -2.432330  -3.844704  1.533061
H    -1.092770  -5.751896  1.696776
H    -1.470214  -5.521905  3.429024
H    0.051166  -4.875776  2.757801
Pb    0.162878  -0.422463  4.472016
