36
Energy: -611334.883369 eV PBE+vdW (tier 2 basis)
C    -0.510821  -1.404858  0.718897
C    -0.572273  -0.869810  2.121112
O    0.064254  -1.455016  3.081498
H    0.529161  -1.428815  0.356984
H    -1.096985  -0.812984  0.008465
H    -0.898497  -2.433521  0.710519
N    -1.303492  0.198504  2.338943
C    -1.658085  0.864064  3.592079
C    -2.750718  1.875199  3.110239
O    -2.865718  2.064482  1.891817
H    -1.827313  0.683938  1.571620
H    -2.104299  0.122570  4.272558
C    -0.493476  1.559919  4.329117
C    0.297650  2.635311  3.560984
C    1.481470  2.137001  2.716694
N    2.413138  1.351197  3.544503
C    2.831133  0.115826  3.283330
N    3.209586  -0.726248  4.365093
N    2.830552  -0.528763  2.134068
H    0.178628  0.780825  4.717109
H    -0.929817  2.027093  5.222316
H    0.681121  3.369124  4.285721
H    -0.359286  3.209964  2.891538
H    1.148306  1.492156  1.894945
H    2.014513  2.987962  2.272039
H    2.675155  1.759479  4.440030
H    4.194994  -1.001177  4.342059
H    2.946492  -0.407411  5.298574
H    2.697010  0.027629  1.289714
N    -3.472001  2.487147  4.056390
C    -4.527298  3.458055  3.762253
H    -3.349677  2.205397  5.023821
H    -4.378416  4.363000  4.361977
H    -5.512504  3.031845  3.988299
H    -4.480075  3.709928  2.699773
Pb    2.014283  -2.608346  2.859464
