36
Energy: -611334.80572 eV PBE+vdW (tier 2 basis)
C    -0.108688  -0.669536  -0.225295
C    -0.108015  -0.198056  1.190010
O    1.022002  -0.076005  1.789729
H    0.434619  -1.620007  -0.301225
H    0.453811  0.058147  -0.828123
H    -1.110165  -0.781176  -0.649380
N    -1.217998  0.123541  1.835444
C    -2.634763  0.050299  1.479794
C    -3.285817  0.966475  2.551167
O    -2.665424  1.120138  3.626566
H    -1.145187  0.574561  2.762899
H    -2.787035  0.441758  0.466265
C    -3.233661  -1.382860  1.575535
C    -3.460904  -1.929804  3.005523
C    -2.579860  -3.093838  3.478586
N    -1.115635  -2.956238  3.294141
C    -0.240368  -2.214088  3.976159
N    -0.642384  -1.057023  4.693149
N    1.070108  -2.366474  3.984938
H    -2.598498  -2.059122  0.985143
H    -4.195232  -1.353857  1.047180
H    -4.487990  -2.312787  3.080494
H    -3.426344  -1.115374  3.741316
H    -2.838407  -4.005134  2.926622
H    -2.785945  -3.300484  4.538098
H    -0.692103  -3.661880  2.696966
H    -0.533858  -1.159970  5.704578
H    -1.550889  -0.634150  4.464891
H    1.453334  -3.227805  3.593275
N    -4.489169  1.495712  2.328275
C    -5.330572  1.416584  1.135600
H    -4.855786  2.026153  3.118094
H    -5.839563  2.376427  0.998935
H    -6.089229  0.629040  1.235515
H    -4.729296  1.228361  0.240840
Pb    1.795591  -0.149873  3.927307
