36
Energy: -611333.77872 eV PBE+vdW (tier 2 basis)
C    -1.885887  0.032641  -0.183412
C    -1.299776  -0.155914  1.166460
O    -0.161698  -0.734714  1.267481
H    -2.766521  0.683654  -0.191354
H    -2.180198  -0.986369  -0.511743
H    -1.127318  0.406728  -0.880250
N    -1.999084  0.243670  2.239100
C    -1.845612  -0.115638  3.667292
C    -0.719081  0.660098  4.348259
O    0.502402  0.557693  3.975615
H    -2.875500  0.706047  2.012771
H    -2.788583  0.212941  4.120217
C    -1.723599  -1.635566  3.928991
C    -2.941937  -2.408201  3.406704
C    -2.651068  -3.896967  3.081256
N    -3.457591  -4.391747  1.986188
C    -3.353224  -3.867784  0.715148
N    -4.402845  -4.094392  -0.123682
N    -2.353587  -3.129605  0.295709
H    -1.590595  -1.778363  5.011728
H    -0.808813  -2.026329  3.456712
H    -3.284086  -1.947266  2.470394
H    -3.772323  -2.336374  4.122549
H    -2.838142  -4.538856  3.949613
H    -1.580363  -4.024466  2.840490
H    -4.237656  -4.999309  2.208331
H    -4.226336  -3.973667  -1.113778
H    -5.158397  -4.718329  0.128879
H    -1.567798  -3.195772  0.946273
N    -0.987107  1.424872  5.393224
C    -2.283145  1.709121  6.024511
H    -0.165464  1.860591  5.814904
H    -2.985078  2.149941  5.306813
H    -2.111453  2.438317  6.820846
H    -2.712551  0.805201  6.473310
Pb    1.718234  -0.521127  2.423012
