36
Energy: -611334.579865 eV PBE+vdW (tier 2 basis)
C    0.370635  -1.445609  1.594592
C    0.460565  0.034293  1.728098
O    1.474960  0.655161  1.248542
H    0.259623  -1.732961  0.539057
H    -0.433056  -1.886975  2.190166
H    1.333546  -1.862561  1.924508
N    -0.501124  0.738079  2.351635
C    -1.933238  0.564812  2.028976
C    -2.246678  1.565984  0.889439
O    -1.249946  1.831400  0.029397
H    -0.230656  1.704049  2.541767
H    -2.030037  -0.437521  1.585277
C    -2.853042  0.626658  3.248635
C    -2.946693  1.994245  3.961768
C    -4.386837  2.394155  4.293538
N    -5.167497  2.467384  3.055439
C    -6.482863  2.660518  2.992802
N    -7.187938  2.994966  4.083989
N    -7.118878  2.517069  1.814960
H    -2.520860  -0.147032  3.953256
H    -3.845827  0.306300  2.905125
H    -2.508993  2.794686  3.345420
H    -2.378106  1.981551  4.899622
H    -4.380029  3.369926  4.804881
H    -4.840031  1.655169  4.974638
H    -4.635429  2.292099  2.172339
H    -8.199053  3.042062  4.065691
H    -6.730038  3.271268  4.942522
H    -8.088527  2.781992  1.698786
N    -3.421766  2.066087  0.787947
C    -3.728719  2.938899  -0.341310
H    -6.659566  2.070221  1.032590
H    -3.869339  2.349115  -1.259415
H    -2.933561  3.672094  -0.536884
H    -4.658879  3.482336  -0.138461
Pb    0.850679  2.102747  -0.423455
