36
Energy: -611333.806631 eV PBE+vdW (tier 2 basis)
C    -1.108035  2.891105  1.829313
C    -0.952675  1.604409  2.567601
O    0.169000  0.995374  2.501470
H    -0.936291  2.706298  0.759336
H    -0.328728  3.591948  2.158147
H    -2.092341  3.351846  1.961100
N    -1.990750  1.133127  3.264806
C    -2.111947  -0.146883  3.998215
C    -1.152788  -0.141861  5.198185
O    0.024948  -0.661303  5.101246
H    -2.828404  1.711735  3.260526
H    -3.137229  -0.121152  4.403781
C    -1.995273  -1.387032  3.094636
C    -2.337092  -2.726725  3.782803
C    -3.801551  -3.185609  3.591420
N    -4.802909  -2.151664  3.830708
C    -4.906268  -1.399446  4.982164
N    -4.385572  -1.989871  6.124833
N    -5.335782  -0.174249  5.063612
H    -0.984873  -1.459883  2.642104
H    -2.651189  -1.212812  2.228878
H    -2.104652  -2.670509  4.855644
H    -1.693110  -3.518564  3.375657
H    -3.979503  -4.071835  4.220151
H    -3.951329  -3.524513  2.558636
H    -5.269534  -1.766032  3.019218
H    -4.725599  -1.532219  6.966670
H    -4.474708  -3.000837  6.185426
H    -5.692333  0.170784  4.167837
N    -1.501340  0.396988  6.346163
C    -2.743961  1.067528  6.742269
H    -0.765391  0.363807  7.055845
H    -2.971475  0.774392  7.772748
H    -3.593771  0.786189  6.103336
H    -2.593579  2.155280  6.718034
Pb    1.387853  -0.684959  3.346575
