36
Energy: -611332.864086 eV PBE+vdW (tier 2 basis)
C    -0.322747  0.359865  -0.097718
C    0.070675  0.212301  1.331550
O    1.250116  0.528270  1.697390
H    -1.334669  0.760080  -0.213774
H    -0.284774  -0.621997  -0.598695
H    0.401753  1.010218  -0.597809
N    -0.786090  -0.262235  2.268450
C    -1.648906  -1.444357  2.103204
C    -0.709609  -2.638524  1.778231
O    0.540493  -2.578112  2.023541
H    -0.433921  -0.137624  3.217734
H    -2.030987  -1.642440  3.117437
C    -2.867383  -1.260820  1.166064
C    -4.144684  -2.009485  1.596812
C    -4.950292  -1.277020  2.696121
N    -6.233455  -1.878194  2.975954
C    -7.346233  -1.703860  2.175100
N    -8.456238  -2.414127  2.529300
N    -7.425837  -0.959715  1.104296
H    -2.597204  -1.537297  0.137820
H    -3.093811  -0.185288  1.141647
H    -3.934839  -3.035793  1.943700
H    -4.789142  -2.119721  0.713921
H    -5.100360  -0.227357  2.395428
H    -4.392637  -1.241323  3.643297
H    -6.283928  -2.552235  3.731182
H    -9.295639  -2.206352  1.999044
H    -8.581293  -2.794672  3.459113
H    -6.574839  -0.424105  0.921078
N    -1.230631  -3.741425  1.271171
C    -0.466360  -4.958915  0.977220
H    -2.230302  -3.751587  1.085293
H    0.285513  -4.760546  0.204264
H    -1.160973  -5.721335  0.616208
H    0.033413  -5.321044  1.882996
Pb    2.402746  -1.282147  2.552960
