36
Energy: -611333.840151 eV PBE+vdW (tier 2 basis)
C    2.702474  -1.023110  3.150790
C    1.390049  -1.016041  3.856672
O    1.171985  -1.869373  4.780483
H    3.501529  -0.863450  3.888636
H    2.775949  -0.259710  2.369436
H    2.871315  -2.014997  2.710096
N    0.467426  -0.106856  3.519661
C    -0.806184  0.066282  4.227543
C    -1.746344  -1.127142  3.961429
O    -1.943185  -1.970750  4.922510
H    0.714509  0.574681  2.805335
H    -0.580507  0.000923  5.304343
C    -1.433420  1.447840  3.980959
C    -2.584551  1.734861  4.958895
C    -3.484325  2.905341  4.518879
N    -4.231147  2.593527  3.308631
C    -3.852497  2.947497  2.025134
N    -3.419193  4.242901  1.877258
N    -3.918525  2.029128  1.103682
H    -1.784141  1.530549  2.943715
H    -0.641018  2.200110  4.113532
H    -2.181429  1.949195  5.960831
H    -3.225155  0.842871  5.071182
H    -2.883451  3.806149  4.340410
H    -4.182113  3.143183  5.333724
H    -4.739150  1.713320  3.312555
H    -3.178011  4.542958  0.939457
H    -3.865774  4.961056  2.440048
H    -3.802646  2.410507  0.160558
N    -2.359148  -1.329769  2.813765
C    -2.286083  -0.598509  1.546429
H    -2.970789  -2.148681  2.820252
H    -2.527659  -1.307746  0.748324
H    -1.271846  -0.224634  1.376788
H    -3.009608  0.251114  1.496336
Pb    -0.314968  -2.877549  6.161352
