36
Energy: -611334.724133 eV PBE+vdW (tier 2 basis)
C    -0.125514  -0.462120  1.316640
C    -0.303922  -0.153292  2.804292
O    0.835104  -0.429616  3.499346
H    -0.907611  -0.050209  0.672058
H    -0.049117  -1.541619  1.147491
H    0.836840  -0.027973  1.022551
N    -1.436225  -0.912123  3.503013
C    -2.440631  -1.747782  2.810651
C    -1.729197  -3.047176  2.362436
O    -0.685401  -3.440131  2.963743
H    -1.893737  -0.273183  4.151901
H    -3.113045  -2.083665  3.621507
C    -3.325860  -1.066799  1.746990
C    -4.178427  0.122285  2.218402
C    -3.481319  1.386574  2.734230
N    -2.460613  1.966254  1.840885
C    -1.179929  2.193405  2.183089
N    -0.556470  3.283070  1.718044
N    -0.517645  1.343869  3.008168
H    -4.053480  -1.812102  1.390857
H    -2.731234  -0.784164  0.870603
H    -4.869522  -0.198205  3.013752
H    -4.824245  0.403934  1.373982
H    -3.006772  1.247715  3.711471
H    -4.248556  2.159106  2.887446
H    -2.814518  2.518874  1.063073
H    0.456105  3.348594  1.719079
H    -1.069925  4.093333  1.384517
H    0.325690  1.722156  3.439174
N    -2.243992  -3.776314  1.384889
C    -1.686534  -5.065678  0.960718
H    -3.083341  -3.446742  0.920469
H    -2.263327  -5.424949  0.105066
H    -1.749842  -5.795465  1.776635
H    -0.636435  -4.946916  0.670778
Pb    0.394194  -2.239624  4.668716
