36
Energy: -611335.430538 eV PBE+vdW (tier 2 basis)
C    -1.168718  -0.143900  0.251501
C    -1.544689  -0.224432  1.697515
O    -0.993166  -1.112660  2.437007
H    -0.309083  0.535045  0.136531
H    -1.981777  0.222067  -0.385711
H    -0.835080  -1.130042  -0.089522
N    -2.434198  0.587802  2.314184
C    -2.587480  1.976704  1.897539
C    -1.439856  2.769515  2.566576
O    -0.837324  2.282569  3.579363
H    -4.030037  -2.616549  1.744708
H    -2.478615  2.073062  0.804701
C    -3.958446  2.554246  2.308235
C    -5.160331  2.023601  1.493328
C    -5.969786  0.874777  2.100355
N    -5.210717  -0.378835  2.156785
C    -5.745511  -1.599034  2.252853
N    -7.060202  -1.766333  2.443076
N    -4.946964  -2.680929  2.168176
H    -3.921888  3.644851  2.190993
H    -4.108445  2.381205  3.386371
H    -4.843206  1.749104  0.475362
H    -5.874026  2.848595  1.367039
H    -6.859167  0.716178  1.473232
H    -6.315659  1.155835  3.109738
H    -4.186104  -0.280256  2.214306
H    -7.495010  -2.677037  2.353283
H    -7.662510  -0.993403  2.695945
H    -5.311890  -3.612835  2.324371
N    -1.064980  3.956281  2.110423
C    -1.597061  4.727254  0.987599
H    -0.316760  4.392887  2.650854
H    -2.303695  5.490787  1.338660
H    -2.097795  4.075283  0.266088
H    -0.764699  5.226768  0.480776
Pb    -1.344903  0.156690  4.398675
