36
Energy: -611335.655356 eV PBE+vdW (tier 2 basis)
C    -0.981741  -0.910532  -0.033269
C    -0.624089  -0.374326  1.317283
O    0.597630  -0.266391  1.636154
H    -2.060466  -0.971605  -0.210624
H    -0.544596  -1.913077  -0.138176
H    -0.521602  -0.280036  -0.805306
N    -1.633325  -0.049167  2.145193
C    -1.567563  0.338060  3.569422
C    -1.122093  1.799988  3.721147
O    0.050139  2.193751  3.446386
H    -2.566463  -0.173855  1.763471
H    -2.607830  0.286402  3.916600
C    -0.731621  -0.663828  4.400382
C    -0.130814  -0.106954  5.691007
C    0.832577  -1.094380  6.358132
N    1.785806  -1.773464  5.455692
C    2.909151  -1.229458  4.929396
N    3.997350  -2.025660  4.860202
N    2.932967  0.037562  4.482960
H    0.078279  -1.055744  3.775807
H    -1.380592  -1.524168  4.616968
H    -0.911837  0.134475  6.427089
H    0.409892  0.827967  5.497569
H    0.266759  -1.906238  6.831238
H    1.387192  -0.579686  7.154966
H    1.808771  -2.783416  5.553676
H    4.789494  -1.780280  4.278394
H    4.101985  -2.840531  5.455079
H    3.903424  0.366597  4.468400
N    -2.019600  2.662045  4.179015
C    -1.748839  4.085424  4.397710
H    -2.958368  2.325104  4.371022
H    -1.667590  4.612119  3.438639
H    -0.812005  4.205999  4.952022
H    -2.573661  4.510155  4.975525
Pb    2.017282  1.249150  2.653828
