36
Energy: -611335.119728 eV PBE+vdW (tier 2 basis)
C    0.527926  0.715084  0.965387
C    -0.111150  -0.287611  1.864609
O    0.617144  -1.145253  2.468878
H    0.723007  1.638975  1.531883
H    -0.101164  0.971056  0.105182
H    1.489075  0.324127  0.618008
N    -1.436193  -0.314625  2.043869
C    -2.429048  0.686656  1.674287
C    -2.125418  2.044634  2.371888
O    -1.466642  2.108959  3.428491
H    -1.770284  -1.085393  2.617496
H    -2.364536  0.857726  0.588956
C    -3.872570  0.151368  1.957009
C    -4.120196  -0.857043  3.097443
C    -4.081665  -0.380698  4.559375
N    -2.783968  0.142990  5.011056
C    -1.660212  -0.549026  5.155497
N    -0.430106  0.197814  5.234486
N    -1.458850  -1.847817  5.147278
H    -4.210912  -0.341842  1.036533
H    -4.531833  1.020964  2.088277
H    -3.499007  -1.760379  2.970339
H    -5.141276  -1.237253  2.944225
H    -4.388395  -1.200771  5.223572
H    -4.805067  0.427636  4.720352
H    -2.656393  1.153773  4.961107
H    -0.497134  1.030191  4.613996
H    -0.222453  0.497568  6.192689
H    -2.269579  -2.467321  5.146983
N    -2.632847  3.115382  1.750864
C    -2.523771  4.487974  2.244443
H    -3.130261  2.976049  0.875437
H    -2.078104  5.125105  1.471867
H    -1.886570  4.492023  3.132027
H    -3.515430  4.879984  2.502091
Pb    0.845713  -1.925898  4.611509
