36
Energy: -611335.752807 eV PBE+vdW (tier 2 basis)
C    0.174408  -0.166883  0.151911
C    0.003877  -0.353335  1.627446
O    0.872914  -1.003602  2.277656
H    -0.636760  0.398606  -0.318342
H    0.240466  -1.156955  -0.319812
H    1.129045  0.340582  -0.039553
N    -1.098209  0.174207  2.195138
C    -1.598178  0.002162  3.573830
C    -0.794747  0.862724  4.566714
O    0.423006  0.659026  4.847300
H    -1.712492  0.680658  1.564274
H    -2.613872  0.419597  3.550705
C    -1.705610  -1.491458  3.958280
C    -1.888959  -1.759194  5.454199
C    -1.735975  -3.241296  5.850398
N    -0.637042  -3.978993  5.202336
C    0.620692  -3.558083  4.972322
N    1.381347  -4.262102  4.087397
N    1.151927  -2.452044  5.495245
H    -0.808710  -2.002231  3.596713
H    -2.544337  -1.911520  3.385351
H    -2.891352  -1.455551  5.789022
H    -1.189289  -1.143582  6.036142
H    -2.644906  -3.789491  5.573691
H    -1.648277  -3.317678  6.944780
H    -0.846813  -4.942928  4.961122
H    2.375254  -4.329115  4.278738
H    0.984284  -5.049729  3.586568
H    0.641875  -2.113743  6.310425
N    -1.446907  1.858959  5.153666
C    -0.837682  2.772240  6.124317
H    -2.419906  2.012555  4.906834
H    -1.613358  3.443000  6.501932
H    -0.046154  3.362907  5.647460
H    -0.406939  2.206797  6.958549
Pb    2.148573  -0.770561  4.210117
