36
Energy: -611334.879133 eV PBE+vdW (tier 2 basis)
C    0.196385  -1.050647  -0.058559
C    -0.153964  -0.407515  1.243104
O    0.062408  0.864114  1.444057
H    -0.353049  -0.562408  -0.876367
H    -0.042499  -2.118674  -0.073768
H    1.273316  -0.938680  -0.251594
N    -0.689278  -1.122637  2.197983
C    -1.099272  -0.697470  3.539070
C    -1.370697  -2.074996  4.224644
O    -1.560468  -3.040265  3.474348
H    -0.922084  -2.140772  2.099189
H    -0.262326  -0.163650  4.011564
C    -2.387401  0.178848  3.466440
C    -2.580288  1.284372  4.516379
C    -1.442566  2.308392  4.674792
N    -0.897407  2.717751  3.378975
C    -0.310198  3.871642  3.050756
N    -0.345491  4.926193  3.878357
N    0.323590  3.961454  1.848018
H    -3.261319  -0.485524  3.501079
H    -2.424801  0.632355  2.465336
H    -2.772081  0.858093  5.509012
H    -3.500360  1.816974  4.238368
H    -0.624340  1.908481  5.296460
H    -1.846779  3.178453  5.208058
H    -0.737860  1.959948  2.711759
H    0.080298  5.809667  3.626388
H    -0.840306  4.896903  4.761472
H    0.627558  4.916751  1.651468
N    -1.428946  -2.169298  5.561454
C    -1.105032  -1.188674  6.588093
H    -1.671873  -3.106148  5.881149
H    -0.539039  -0.353682  6.163334
H    -0.473888  -1.659314  7.350998
H    -2.009140  -0.802387  7.077609
Pb    1.004110  2.540150  0.243708
