36
Energy: -611335.021701 eV PBE+vdW (tier 2 basis)
C    1.934996  1.704542  0.361265
C    1.427968  0.887201  1.505314
O    2.278917  0.327504  2.280717
H    1.139082  2.148108  -0.245660
H    2.555688  1.059538  -0.276893
H    2.591071  2.498830  0.740673
N    0.111982  0.752692  1.658967
C    -0.673148  -0.119969  2.567764
C    -0.763303  0.427427  3.996980
O    0.363888  0.674542  4.664500
H    -0.448935  1.270474  0.987775
H    -1.690904  -0.035480  2.170137
C    -0.278627  -1.617450  2.487561
C    -1.501613  -2.550200  2.575211
C    -2.090141  -2.733736  3.991582
N    -3.504967  -3.102164  3.987103
C    -4.525935  -2.239006  3.844020
N    -5.774671  -2.723536  3.728873
N    -4.315836  -0.920367  3.797763
H    0.461405  -1.881905  3.259786
H    0.217217  -1.793624  1.523978
H    -1.226378  -3.533911  2.172141
H    -2.284801  -2.160216  1.907928
H    -1.975537  -1.827207  4.596844
H    -1.559401  -3.528503  4.529396
H    -3.735344  -4.088137  4.035767
H    -6.580298  -2.110998  3.742266
H    -5.961465  -3.718278  3.716951
H    -5.114041  -0.306979  3.681490
N    -1.939627  0.563371  4.495012
C    -2.096696  1.049985  5.861436
H    -3.403085  -0.443834  3.990380
H    -2.986803  0.588727  6.306661
H    -2.271887  2.135754  5.841870
H    -1.224523  0.856282  6.498976
Pb    2.470382  0.289317  4.513757
