36
Energy: -611333.896475 eV PBE+vdW (tier 2 basis)
C    -2.373411  0.471453  1.257530
C    -1.513867  0.181003  2.442040
O    -0.410610  -0.453312  2.243930
H    -3.300675  0.989003  1.521718
H    -2.608094  -0.472792  0.746791
H    -1.808907  1.084440  0.541357
N    -1.923803  0.574138  3.638555
C    -1.369180  0.260992  4.969307
C    -0.064039  1.020139  5.220727
O    1.057467  0.608927  4.733409
H    -2.893532  0.957748  3.737743
H    -2.105320  0.700247  5.648896
C    -1.284862  -1.239802  5.326232
C    -2.392130  -2.175932  4.792195
C    -3.878045  -1.724490  4.849560
N    -4.264795  -0.925520  6.003833
C    -4.302684  0.451330  6.043596
N    -4.512558  1.086684  4.780942
N    -4.118206  1.222551  7.057276
H    -1.256871  -1.278947  6.424827
H    -0.319640  -1.677685  5.015034
H    -2.283287  -3.111326  5.358855
H    -2.181945  -2.446081  3.746096
H    -4.502431  -2.627420  4.813147
H    -4.128732  -1.157936  3.946850
H    -4.227182  -1.378694  6.911506
H    -4.732904  2.065461  4.976487
H    -5.296616  0.676804  4.268574
H    -3.911000  0.706683  7.917638
N    -0.042648  2.109340  5.961809
C    -1.111633  2.839016  6.653433
H    0.891012  2.518912  6.051245
H    -0.796194  3.008084  7.689734
H    -1.250060  3.812879  6.166601
H    -2.064330  2.295250  6.660255
Pb    1.599880  -0.790520  3.095132
