36
Energy: -611335.06253 eV PBE+vdW (tier 2 basis)
C    -0.440645  1.692715  -0.989028
C    0.034975  0.878379  0.165478
O    1.303566  0.693633  0.294860
H    -0.272545  1.137941  -1.923110
H    0.167635  2.603996  -1.050613
H    -1.497555  1.964361  -0.916102
N    -0.781162  0.358927  1.062443
C    -2.234888  0.224424  1.148658
C    -2.412229  -0.455036  2.536503
O    -1.463999  -1.139200  2.977283
H    -0.372821  -0.180483  1.842248
H    -2.702239  1.219352  1.134063
C    -2.870100  -0.657125  0.040059
C    -2.723070  -2.187222  0.144030
C    -1.415586  -2.842834  -0.308939
N    -0.274010  -2.576613  0.577807
C    0.975397  -2.986069  0.336834
N    1.214271  -3.842608  -0.668800
N    1.997336  -2.508691  1.102196
H    -2.516993  -0.304566  -0.940327
H    -3.946274  -0.433495  0.056791
H    -3.495965  -2.618842  -0.507307
H    -2.978837  -2.538694  1.154973
H    -1.599634  -3.929345  -0.355898
H    -1.150020  -2.506955  -1.324062
H    -0.481403  -2.223773  1.519136
H    2.162591  -4.052372  -0.956660
H    0.473036  -4.381727  -1.103133
H    2.747582  -3.199977  1.188744
N    -3.592021  -0.312220  3.136588
C    -3.951087  -0.943221  4.407411
H    -4.275453  0.307866  2.710921
H    -3.131481  -1.595623  4.718049
H    -4.867280  -1.532434  4.285079
H    -4.116463  -0.176229  5.173492
Pb    2.777338  -0.436646  1.564226
