36
Energy: -611333.196275 eV PBE+vdW (tier 2 basis)
C    -0.603138  -0.356954  -0.270418
C    -0.244951  -0.064187  1.136147
O    0.987674  -0.040269  1.504207
H    -0.101074  0.347158  -0.949205
H    -1.686902  -0.397016  -0.458719
H    -0.171587  -1.344704  -0.505911
N    -1.188152  0.175061  2.071051
C    -2.311690  1.093974  1.876269
C    -1.679996  2.482865  1.660956
O    -0.516754  2.748534  2.154572
H    -0.857979  0.110859  3.036536
H    -2.856741  0.784453  0.968786
C    -3.207198  1.039336  3.148519
C    -4.683897  1.464938  3.051754
C    -5.675357  0.418616  2.497199
N    -5.533104  0.098772  1.079371
C    -4.534617  -0.683155  0.540364
N    -4.034122  -1.676886  1.365264
N    -3.966429  -0.509591  -0.619851
H    -2.716902  1.643308  3.928741
H    -3.168435  -0.007120  3.484531
H    -4.797295  2.412693  2.506865
H    -5.011576  1.688702  4.077994
H    -6.695237  0.796383  2.643633
H    -5.614393  -0.500823  3.095565
H    -5.973152  0.739395  0.427955
H    -3.491967  -2.358229  0.841001
H    -4.702267  -2.120098  1.989802
H    -4.404373  0.241676  -1.160542
N    -2.292493  3.436927  0.986433
C    -3.557228  3.404340  0.250761
H    -1.780043  4.320666  0.953692
H    -3.944261  2.384692  0.201154
H    -3.378911  3.772452  -0.766526
H    -4.292130  4.055838  0.738828
Pb    1.550767  1.885634  2.567153
