36
Energy: -611333.268253 eV PBE+vdW (tier 2 basis)
C    -0.196009  1.115977  -0.058066
C    -0.327805  0.530377  1.302024
O    0.713886  0.134891  1.930484
H    0.294926  2.099605  -0.002941
H    -1.149284  1.203876  -0.586401
H    0.483370  0.471969  -0.635187
N    -1.531595  0.406559  1.899152
C    -2.519598  1.489767  1.964142
C    -1.874376  2.649967  2.746064
O    -0.866747  2.435203  3.523285
H    -1.523295  -0.184434  2.732865
H    -2.762797  1.826051  0.946449
C    -3.788918  0.999803  2.690703
C    -4.589878  -0.092274  1.968084
C    -5.266178  0.337122  0.647043
N    -5.907476  1.647296  0.687665
C    -6.749143  2.086567  1.700968
N    -7.681469  1.175932  2.125383
N    -6.537323  3.282952  2.166709
H    -4.434454  1.869682  2.873428
H    -3.489803  0.637362  3.688155
H    -5.364049  -0.421386  2.675094
H    -3.971190  -0.980712  1.766482
H    -5.982694  -0.446063  0.358734
H    -4.541966  0.376171  -0.178282
H    -5.387618  2.421022  0.291179
H    -8.342944  1.478591  2.831478
H    -8.059203  0.518064  1.450339
H    -7.272124  3.595244  2.807333
N    -2.365259  3.869823  2.659633
C    -3.469224  4.357364  1.822408
H    -1.906726  4.554552  3.262183
H    -3.451765  5.449988  1.857653
H    -4.461584  4.005984  2.167799
H    -3.316413  4.050663  0.779432
Pb    0.988594  1.190923  3.949562
