36
Energy: -611335.0737 eV PBE+vdW (tier 2 basis)
C    -0.252543  -0.562288  -0.404226
C    -0.439138  0.053913  0.941234
O    0.598377  0.411652  1.604528
H    -1.167961  -0.579821  -1.002940
H    0.117983  -1.591580  -0.289640
H    0.525943  -0.005049  -0.939650
N    -1.643152  0.255654  1.461610
C    -2.974717  -0.161553  1.034156
C    -3.925706  0.607672  1.983706
O    -3.497571  1.009367  3.089855
H    -1.704812  0.774196  2.344428
H    -3.155391  0.181741  0.006123
C    -3.209178  -1.713563  1.074227
C    -2.352048  -2.586144  2.008363
C    -2.663929  -2.606044  3.513434
N    -2.380060  -1.350845  4.224541
C    -1.175976  -0.836870  4.442579
N    -1.093982  0.550769  4.797880
N    0.010795  -1.387414  4.303002
H    -3.040522  -2.085946  0.055329
H    -4.274287  -1.893863  1.278164
H    -1.282454  -2.383375  1.851541
H    -2.491411  -3.623554  1.670031
H    -2.104497  -3.419943  3.995477
H    -3.724203  -2.823444  3.691536
H    -3.158447  -0.701958  4.340291
H    -0.948962  0.683603  5.803360
H    -1.919598  1.085903  4.495169
H    0.055971  -2.387563  4.109555
N    -5.187517  0.799820  1.593103
C    -5.796178  0.491131  0.295838
H    -5.758833  1.302410  2.270181
H    -5.296640  1.029788  -0.519950
H    -6.838173  0.820543  0.327079
H    -5.791426  -0.585149  0.085916
Pb    1.336668  0.469427  3.757179
