36
Energy: -611333.879136 eV PBE+vdW (tier 2 basis)
C    -2.474349  -0.606792  0.261115
C    -1.797040  -0.535454  1.579643
O    -0.761867  -1.262715  1.777522
H    -3.232739  0.170044  0.117191
H    -2.962200  -1.602635  0.242909
H    -1.735973  -0.574172  -0.548043
N    -2.310577  0.257033  2.531739
C    -2.047213  0.283670  3.989639
C    -0.729971  0.992525  4.325391
O    0.408924  0.488386  4.038033
H    -3.118879  0.796688  2.234155
H    -2.857922  0.907612  4.391311
C    -2.161535  -1.096317  4.672537
C    -3.557710  -1.709882  4.501588
C    -3.582902  -3.258617  4.603269
N    -4.567354  -3.856778  3.728014
C    -4.491112  -3.731211  2.357399
N    -5.638213  -3.965902  1.660973
N    -3.419352  -3.347907  1.705283
H    -1.905005  -0.967643  5.734333
H    -1.409526  -1.788274  4.259850
H    -3.939841  -1.456639  3.503724
H    -4.252805  -1.275292  5.232985
H    -3.803489  -3.586552  5.625286
H    -2.581741  -3.664586  4.369370
H    -5.411450  -4.230252  4.146204
H    -5.538654  -4.158844  0.671711
H    -6.470318  -4.323434  2.112162
H    -2.601922  -3.390014  2.317704
N    -0.801754  2.138581  4.979293
C    0.338772  2.936167  5.436447
H    -1.728269  2.508556  5.179803
H    0.151545  3.264527  6.464541
H    0.457739  3.817673  4.793571
H    1.245806  2.329220  5.399897
Pb    1.184109  -1.251213  2.835965
