36
Energy: -611334.334129 eV PBE+vdW (tier 2 basis)
C    0.041975  -2.035242  0.967822
C    -0.147241  -0.758636  1.714252
O    0.878826  -0.020976  1.940704
H    -0.885268  -2.604198  0.844492
H    0.789413  -2.654965  1.480339
H    0.452891  -1.799045  -0.024759
N    -1.370946  -0.404374  2.099163
C    -1.814324  0.897669  2.640362
C    -1.573267  0.954724  4.158961
O    -0.352213  1.025480  4.594493
H    -2.121522  -1.054225  1.871160
H    -1.137117  1.661548  2.222108
C    -3.229678  1.221018  2.157206
C    -4.314887  0.138012  2.387906
C    -5.582070  0.695742  3.048456
N    -5.363564  1.091975  4.461731
C    -5.432200  2.473773  4.797928
N    -6.079052  2.720787  5.986574
N    -4.786461  3.293579  4.047323
H    -3.157382  1.449529  1.085779
H    -3.538266  2.163856  2.646388
H    -3.950199  -0.696648  3.012994
H    -4.607950  -0.311244  1.428811
H    -6.371776  -0.065627  3.022169
H    -5.940360  1.570588  2.491218
H    -5.884453  0.505454  5.109859
H    -6.144696  3.690217  6.279235
H    -6.897095  2.169169  6.228523
H    -4.928986  4.270692  4.309903
N    -2.563308  0.973755  5.006421
C    -2.393097  1.091576  6.454790
H    -3.569550  0.949929  4.679968
H    -3.363998  1.354476  6.884466
H    -1.661671  1.871873  6.690824
H    -2.050631  0.140628  6.883053
Pb    1.636545  1.202314  3.637737
