36
Energy: -611335.058579 eV PBE+vdW (tier 2 basis)
C    0.961992  0.963137  1.177233
C    0.460331  0.872496  2.578523
O    1.293433  0.832139  3.544096
H    1.107641  2.021819  0.912845
H    0.279747  0.516231  0.446259
H    1.938157  0.469966  1.120606
N    -0.851121  0.819706  2.843193
C    -1.974081  1.104120  1.944124
C    -1.824424  2.532359  1.366252
O    -1.222377  3.415511  2.009059
H    -1.090551  0.634321  3.813880
H    -1.952113  0.372493  1.122416
C    -3.312317  0.911799  2.713622
C    -4.035855  2.109450  3.365976
C    -3.308723  3.038468  4.357136
N    -2.443877  2.339530  5.320322
C    -1.132849  2.519798  5.506318
N    -0.379454  3.379130  4.637212
N    -0.366220  1.915336  6.387379
H    -3.147158  0.113189  3.454209
H    -4.032326  0.478278  2.007639
H    -4.920544  1.683963  3.861627
H    -4.439858  2.770175  2.584859
H    -4.059669  3.605719  4.924378
H    -2.692934  3.766682  3.824782
H    -2.904111  1.690389  5.957714
H    -0.701521  3.377290  3.628167
H    -0.373517  4.344740  4.981725
H    -0.801986  1.311717  7.086509
N    -2.402241  2.738139  0.179348
C    -2.441256  4.028351  -0.509216
H    -2.836617  1.946639  -0.287292
H    -1.937340  4.772479  0.112186
H    -3.480971  4.332666  -0.678718
H    -1.929432  3.952930  -1.475966
Pb    1.740067  2.153211  5.367302
