36
Energy: -611335.456425 eV PBE+vdW (tier 2 basis)
C    0.002439  -0.177204  1.846982
C    0.140584  1.126462  1.127919
O    1.309111  1.531514  0.795447
H    -0.044792  -0.995876  1.112022
H    -0.890090  -0.230434  2.480360
H    0.901732  -0.349350  2.449100
N    -0.887432  1.938969  0.784315
C    -2.177278  1.381608  0.392102
C    -2.042822  0.944118  -1.091142
O    -1.110779  1.408628  -1.819355
H    -0.831381  3.338794  2.257631
H    -2.409237  0.472412  0.973992
C    -3.325830  2.404047  0.577275
C    -4.067818  2.301180  1.918187
C    -3.299310  2.669119  3.191776
N    -3.047373  4.111454  3.337617
C    -1.851326  4.709523  3.425363
N    -1.752277  5.909913  4.015354
N    -0.757599  4.129536  2.909945
H    -4.070203  2.266903  -0.219163
H    -2.916388  3.415605  0.426199
H    -4.435860  1.272085  2.052580
H    -4.973171  2.924135  1.863617
H    -2.337735  2.146942  3.266656
H    -3.888210  2.355785  4.065336
H    -3.854022  4.685903  3.566863
H    -0.933628  6.493353  3.889076
H    -2.477137  6.259664  4.631293
H    0.161913  4.405559  3.233251
N    -2.921800  0.078524  -1.572726
C    -2.960360  -0.410792  -2.953677
H    -3.642009  -0.262311  -0.940791
H    -3.821748  0.017851  -3.480788
H    -3.048415  -1.502646  -2.946965
H    -2.039309  -0.117979  -3.462294
Pb    0.484430  2.875396  -0.945437
