36
Energy: -611333.443752 eV PBE+vdW (tier 2 basis)
C    -2.642601  1.375482  1.036548
C    -2.044965  0.466798  2.031883
O    -1.076794  0.790326  2.741207
H    -3.713644  1.176751  0.856851
H    -2.134551  1.203564  0.069638
H    -2.448984  2.418403  1.312372
N    -2.573330  -0.862594  2.304215
C    -2.137011  -1.999596  1.412582
C    -0.700788  -2.432394  1.747762
O    -0.236251  -2.276918  2.929787
H    -3.634727  -0.908225  2.288278
H    -2.752199  -2.836584  1.787577
C    -2.463102  -1.802328  -0.087702
C    -3.275556  -2.947186  -0.711113
C    -4.722467  -3.036043  -0.172575
N    -5.445375  -1.777652  -0.237206
C    -5.610107  -0.836792  0.746268
N    -5.452207  -1.317157  2.089905
N    -5.812509  0.392609  0.428095
H    -1.548210  -1.602384  -0.664338
H    -3.063706  -0.891691  -0.198849
H    -2.789087  -3.926615  -0.573280
H    -3.311770  -2.778602  -1.796815
H    -4.732010  -3.407425  0.861593
H    -5.267930  -3.790810  -0.754910
H    -5.648409  -1.400774  -1.160322
H    -5.944943  -0.694494  2.731597
H    -5.819250  -2.262057  2.231164
H    -6.138263  0.969096  1.208147
N    0.008251  -3.053254  0.827558
C    1.340077  -3.634783  1.023452
H    -0.410909  -3.162703  -0.093224
H    1.286486  -4.720998  0.880795
H    1.689683  -3.411627  2.033075
H    2.029987  -3.208779  0.285794
Pb    -1.178400  -0.901308  4.431554
