36
Energy: -611333.29367 eV PBE+vdW (tier 2 basis)
C    -0.787561  0.821391  -0.250153
C    -0.839492  0.256123  1.124324
O    0.009679  -0.630347  1.481904
H    0.078147  1.494284  -0.350484
H    -1.701562  1.349690  -0.535398
H    -0.609295  -0.008382  -0.948450
N    -1.771123  0.660629  2.013851
C    -2.085569  2.070047  2.268720
C    -0.838689  2.711542  2.916870
O    0.131596  1.980773  3.345952
H    -1.828728  0.072877  2.847824
H    -2.288406  2.569906  1.309801
C    -3.307715  2.213856  3.187241
C    -4.639833  1.747661  2.581067
C    -5.861441  2.391518  3.280084
N    -6.105731  3.771689  2.890474
C    -5.422687  4.870288  3.356973
N    -5.542754  6.011728  2.607100
N    -4.620481  4.906213  4.393683
H    -3.387303  3.275037  3.455910
H    -3.108872  1.687114  4.135921
H    -4.734158  0.653515  2.643524
H    -4.683364  2.004079  1.511169
H    -5.767098  2.318743  4.374469
H    -6.762395  1.822960  3.021020
H    -6.771258  3.911764  2.137897
H    -5.343145  6.872575  3.105741
H    -6.258543  6.083401  1.893223
H    -4.728566  4.075091  4.980139
N    -0.765804  4.020340  3.071767
C    -1.731901  5.054819  2.685728
H    0.070401  4.340643  3.562455
H    -2.226570  4.793453  1.743814
H    -1.180429  5.988267  2.539510
H    -2.500244  5.198078  3.468379
Pb    1.263680  0.002483  3.295319
