36
Energy: -611335.478557 eV PBE+vdW (tier 2 basis)
C    1.240996  -0.005108  0.917584
C    -0.095368  -0.295907  1.528748
O    -0.162764  -0.606847  2.748800
H    1.193157  0.249872  -0.146254
H    1.885612  -0.884847  1.047059
H    1.712526  0.820226  1.467060
N    -1.173421  -0.220453  0.719252
C    -2.574183  -0.566104  1.038234
C    -3.164760  0.532101  1.934240
O    -2.943521  0.564377  3.177218
H    -0.981461  0.032167  -0.245199
H    -3.100033  -0.527348  0.077009
C    -2.675538  -2.011740  1.567778
C    -4.037607  -2.539491  2.045726
C    -4.624098  -2.061649  3.379253
N    -3.695120  -2.116339  4.559994
C    -2.874602  -3.294109  4.730569
N    -3.471998  -4.477157  4.924550
N    -1.602258  -3.033612  4.676082
H    -1.913490  -2.183514  2.333286
H    -2.362751  -2.643705  0.724351
H    -3.946063  -3.635162  2.076298
H    -4.813127  -2.348648  1.287737
H    -5.524867  -2.662707  3.580765
H    -4.952146  -1.016809  3.331742
H    -4.257128  -1.966692  5.404665
H    -4.481070  -4.559321  4.978329
H    -2.936455  -5.324307  5.089616
H    -0.953784  -3.813017  4.807147
N    -3.917785  1.480626  1.379747
C    -4.281980  1.667397  -0.029071
H    -4.235115  2.193690  2.036073
H    -3.399813  1.868792  -0.649530
H    -4.941747  2.537258  -0.090652
H    -4.830282  0.802860  -0.422113
Pb    -1.503161  -0.582530  4.676201
