36
Energy: -611333.020376 eV PBE+vdW (tier 2 basis)
C    0.133316  1.903379  -0.798198
C    0.612605  1.640769  0.586750
O    1.916749  1.668779  0.789453
H    -0.934433  2.139502  -0.830148
H    0.313477  1.014663  -1.421448
H    0.704335  2.730102  -1.237213
N    -0.154310  1.372901  1.600712
C    -1.617462  1.362858  1.736852
C    -1.750273  1.448310  3.294927
O    -0.688257  1.511422  3.954308
H    0.200572  1.343624  2.612932
H    -2.017569  2.301508  1.322304
C    -2.320058  0.176887  1.046143
C    -2.153514  -1.212605  1.689563
C    -3.294082  -1.646427  2.634617
N    -4.597628  -1.731460  1.992804
C    -5.580375  -0.782563  2.075117
N    -6.803291  -1.151835  1.602854
N    -5.290960  0.411367  2.549267
H    -1.971492  0.145804  0.004773
H    -3.386376  0.435650  0.982037
H    -1.209936  -1.282797  2.253517
H    -2.074992  -1.961014  0.888661
H    -3.385065  -0.974134  3.492869
H    -3.055660  -2.642127  3.033343
H    -4.822301  -2.594794  1.510788
H    -7.566322  -0.488154  1.626967
H    -7.063305  -2.125736  1.502196
H    -6.127243  0.997457  2.602892
N    -2.968620  1.482238  3.812484
C    -3.180281  1.596459  5.254139
H    -3.797124  1.212103  3.232589
H    -2.751386  0.738998  5.790036
H    -4.257412  1.635847  5.438169
H    -2.712098  2.509995  5.638423
Pb    3.898143  2.005498  1.446422
