36
Energy: -611333.033674 eV PBE+vdW (tier 2 basis)
C    0.143517  0.212292  -0.039817
C    -0.080982  -0.010783  1.414765
O    0.888049  -0.361727  2.162844
H    -0.777719  0.197890  -0.629489
H    0.827919  -0.566865  -0.401310
H    0.663251  1.170658  -0.195468
N    -1.307651  0.148017  1.964789
C    -2.171110  1.298005  1.697447
C    -1.490821  2.529351  2.363324
O    -0.477222  2.399063  3.125117
H    -1.371061  -0.195561  2.925164
H    -2.197445  1.472089  0.610923
C    -3.605396  1.068021  2.215125
C    -4.461536  0.064145  1.426106
C    -4.128890  -1.430631  1.632100
N    -5.165312  -2.321230  1.155295
C    -6.334619  -2.564279  1.849249
N    -7.270258  -3.318546  1.206428
N    -6.636428  -2.125978  3.044177
H    -4.124056  2.036776  2.203230
H    -3.556023  0.783130  3.280582
H    -4.435543  0.306051  0.352178
H    -5.502793  0.220772  1.742262
H    -3.957130  -1.634355  2.702402
H    -3.200678  -1.708914  1.115752
H    -5.121142  -2.604733  0.182652
H    -8.087490  -3.570075  1.751515
H    -7.051128  -3.892198  0.401892
H    -5.879020  -1.593090  3.476636
N    -1.991999  3.728012  2.122516
C    -1.466964  4.976557  2.688345
H    -2.798772  3.795492  1.507206
H    -2.110966  5.797650  2.364063
H    -0.445359  5.156581  2.332980
H    -1.467304  4.925116  3.783018
Pb    1.274057  1.092283  3.924189
