36
Energy: -611334.932811 eV PBE+vdW (tier 2 basis)
C    -1.242723  2.482765  -0.024207
C    -0.502439  1.964532  1.171181
O    0.607025  2.413542  1.509409
H    -1.578419  3.505970  0.198067
H    -2.115645  1.880186  -0.298399
H    -0.555354  2.549088  -0.875145
N    -1.097489  0.961711  1.891722
C    -0.708757  0.594809  3.256834
C    0.643819  -0.161720  3.336718
O    0.727110  -1.220678  4.078609
H    -2.006113  0.641829  1.573712
H    -0.508261  1.534829  3.805268
C    -1.855702  -0.125834  3.978514
C    -2.442969  -1.374851  3.273777
C    -2.678202  -2.563940  4.213016
N    -1.378319  -3.103616  4.623995
C    -0.996695  -3.561670  5.817936
N    -1.913683  -3.959187  6.713622
N    0.333201  -3.604416  6.099087
H    -2.651535  0.612791  4.141285
H    -1.491704  -0.391537  4.979665
H    -1.793117  -1.717275  2.451095
H    -3.405807  -1.134729  2.804086
H    -3.264247  -3.340898  3.700938
H    -3.237254  -2.250376  5.106874
H    -0.621508  -2.935773  3.970039
H    -1.652463  -4.187708  7.665257
H    -2.872122  -4.149746  6.442983
H    0.547738  -4.256701  6.856356
N    1.654098  0.355982  2.690418
C    3.010799  -0.167034  2.689793
H    1.407294  1.274207  2.179099
H    3.015259  -1.252231  2.513208
H    3.525054  0.062899  3.635898
H    3.570795  0.313392  1.882048
Pb    2.086431  -2.312155  5.500440
