36
Energy: -611333.590894 eV PBE+vdW (tier 2 basis)
C    -0.032195  0.061687  0.575812
C    -0.283238  0.021767  2.031502
O    0.682198  -0.206756  2.855658
H    0.908585  0.580583  0.357684
H    -0.877966  0.464889  -0.007651
H    0.117187  -0.986393  0.258232
N    -1.519610  0.196551  2.542953
C    -2.413271  1.287509  2.149075
C    -1.762794  2.586303  2.645640
O    -0.802859  2.568926  3.515182
H    -1.615155  -0.099776  3.517327
H    -2.463419  1.330161  1.031334
C    -3.816274  1.087844  2.777117
C    -4.522210  -0.247073  2.471384
C    -5.156599  -0.393957  1.079910
N    -4.173905  -0.336444  -0.001485
C    -3.966850  0.758532  -0.813589
N    -5.097285  1.309351  -1.356590
N    -2.742274  1.201848  -0.945276
H    -4.456238  1.923387  2.462594
H    -3.715222  1.187914  3.870864
H    -5.322403  -0.367071  3.216503
H    -3.836502  -1.092483  2.646725
H    -5.895085  0.400737  0.911621
H    -5.701500  -1.347963  1.043462
H    -3.322929  -0.868616  0.148614
H    -4.985494  2.087893  -1.995653
H    -5.875343  0.693776  -1.573236
H    -2.641990  1.854372  -1.727556
N    -2.170174  3.760271  2.207005
C    -3.209375  4.058418  1.217210
H    -1.700934  4.561051  2.633032
H    -2.875208  4.914524  0.621729
H    -4.148849  4.323114  1.719026
H    -3.356577  3.202899  0.550811
Pb    0.899388  1.400293  4.423989
