36
Energy: -611333.904514 eV PBE+vdW (tier 2 basis)
C    -2.144560  -1.915973  0.568572
C    -1.504914  -1.442866  1.831307
O    -0.425540  -0.748722  1.737142
H    -1.396517  -2.459103  -0.025367
H    -2.452500  -1.048343  -0.031516
H    -3.012888  -2.558122  0.746343
N    -2.068246  -1.771259  2.986856
C    -1.558076  -1.662228  4.371157
C    -1.597165  -0.241405  4.922336
O    -0.978534  0.735370  4.343815
H    -2.859658  -2.434635  2.915237
H    -2.294213  -2.235155  4.945908
C    -0.174897  -2.313590  4.626602
C    0.160543  -3.618021  3.871768
C    -0.941008  -4.702112  3.700738
N    -1.935766  -4.763281  4.758774
C    -3.226760  -4.297956  4.695364
N    -3.795722  -4.269808  3.398448
N    -3.776472  -3.824955  5.765229
H    -0.138123  -2.488488  5.711581
H    0.643181  -1.601473  4.425460
H    1.013238  -4.056509  4.408137
H    0.542446  -3.380791  2.867934
H    -0.442757  -5.676613  3.603971
H    -1.469690  -4.542487  2.754952
H    -1.618189  -4.907177  5.713022
H    -4.801734  -4.112356  3.435948
H    -3.603586  -5.101343  2.836847
H    -4.787350  -3.698770  5.667854
N    -2.222798  0.028593  6.049298
C    -2.979477  -0.826744  6.970202
H    -2.131960  1.006895  6.335821
H    -3.968067  -0.378302  7.125746
H    -2.452924  -0.854666  7.932807
H    -3.102935  -1.850914  6.591987
Pb    0.521246  0.975988  2.733091
