36
Energy: -611333.243571 eV PBE+vdW (tier 2 basis)
C    -0.804253  1.643902  -0.552125
C    -0.427332  0.817209  0.622185
O    0.808936  0.638443  0.911603
H    -0.227288  2.576729  -0.569297
H    -1.877263  1.849499  -0.615788
H    -0.503171  1.082155  -1.452696
N    -1.362696  0.235769  1.401937
C    -2.535442  0.955195  1.913407
C    -1.989440  2.143757  2.722275
O    -0.814251  2.082552  3.259155
H    -0.989374  -0.468129  2.042966
H    -3.147099  1.323578  1.068314
C    -3.372345  0.025164  2.829951
C    -3.815512  -1.325685  2.223847
C    -5.134055  -1.350373  1.424932
N    -5.123354  -0.549562  0.204776
C    -5.329726  0.813499  0.176281
N    -6.237148  1.308367  1.093493
N    -4.687159  1.661615  -0.580569
H    -4.247218  0.594428  3.171485
H    -2.770466  -0.177580  3.730958
H    -3.936447  -2.030063  3.060010
H    -3.013833  -1.750369  1.597940
H    -5.963854  -1.028544  2.065711
H    -5.351204  -2.390333  1.147439
H    -4.515440  -0.891494  -0.533384
H    -6.553392  2.242203  0.845876
H    -7.011343  0.696112  1.334536
H    -4.085309  1.180137  -1.255332
N    -2.707500  3.231867  2.904456
C    -4.035077  3.550061  2.364106
H    -2.274839  3.932240  3.508752
H    -4.128671  4.639608  2.334451
H    -4.142476  3.156544  1.345436
H    -4.822071  3.141024  3.008453
Pb    1.312629  1.336155  3.027383
