36
Energy: -611335.358277 eV PBE+vdW (tier 2 basis)
C    -0.057696  0.214257  -0.131468
C    0.001248  0.198452  1.365749
O    1.114423  0.015792  1.930995
H    0.568408  1.038674  -0.499155
H    -1.070728  0.330887  -0.530271
H    0.379017  -0.715687  -0.517234
N    -1.154525  0.368584  2.031557
C    -1.410424  0.483279  3.483497
C    -0.651100  1.705903  4.053198
O    0.550675  1.599202  4.404289
H    -1.972035  0.492650  1.442334
H    -2.486200  0.689361  3.536067
C    -1.114915  -0.764115  4.358516
C    -0.819215  -2.104572  3.677417
C    -0.070907  -3.033546  4.633224
N    1.348696  -2.588155  4.904960
C    2.326330  -3.172634  4.023707
N    2.730021  -4.427319  4.274408
N    2.721999  -2.378889  3.073531
H    -1.968025  -0.889234  5.039160
H    -0.272575  -0.510173  5.018529
H    -0.225732  -1.986204  2.761282
H    -1.748484  -2.604812  3.372791
H    -0.063329  -4.058323  4.234682
H    -0.575511  -3.070464  5.607262
H    1.580797  -2.804319  5.877629
H    3.453759  -4.872180  3.718142
H    2.291616  -4.998178  4.988513
H    3.375512  -2.768665  2.390735
N    -1.327457  2.847012  4.151536
C    -0.769830  4.104411  4.650741
H    -2.301648  2.851876  3.862759
H    0.182180  3.899108  5.146028
H    -1.469379  4.550873  5.365603
H    -0.607308  4.804108  3.821133
Pb    2.275345  -0.119960  3.916149
