36
Energy: -611335.627424 eV PBE+vdW (tier 2 basis)
C    0.072478  1.341910  3.301740
C    -0.871832  0.338659  3.880484
O    -0.729374  -0.034173  5.081524
H    0.105632  2.221379  3.957835
H    -0.194098  1.655370  2.287011
H    1.084837  0.914884  3.293142
N    -1.859729  -0.133053  3.099330
C    -2.913053  -1.042987  3.553253
C    -2.445763  -2.502042  3.456159
O    -1.841040  -3.002701  4.454119
H    -1.900470  0.205756  2.141201
H    -3.006917  -0.875372  4.632466
C    -4.276050  -0.706140  2.944026
C    -4.927207  0.506666  3.627368
C    -5.095453  0.358998  5.151141
N    -4.011468  0.989113  5.942624
C    -3.528799  0.476731  7.110223
N    -3.398516  1.331306  8.144707
N    -3.172578  -0.815933  7.199461
H    -4.934415  -1.577702  3.075985
H    -4.201188  -0.535233  1.857639
H    -5.920407  0.648956  3.182603
H    -4.369482  1.428799  3.404674
H    -5.155118  -0.693523  5.456141
H    -6.042260  0.827312  5.456053
H    -4.032745  2.006548  5.917256
H    -2.846259  1.086659  8.958790
H    -3.933812  2.191751  8.199693
H    -3.227736  -1.121524  8.175749
N    -2.666250  -3.195528  2.351252
C    -2.253090  -4.582840  2.124538
H    -3.182477  -2.739159  1.603062
H    -3.138141  -5.206731  1.952306
H    -1.714184  -4.943071  3.003292
H    -1.601228  -4.631807  1.244341
Pb    -1.184461  -1.879942  6.407703
