36
Energy: -611335.59765 eV PBE+vdW (tier 2 basis)
C    0.647101  0.788158  -0.053717
C    0.049973  0.509532  1.293946
O    0.763294  -0.054344  2.168299
H    -0.066504  1.191815  -0.779643
H    1.088006  -0.134674  -0.451330
H    1.471582  1.504245  0.070583
N    -1.226435  0.892541  1.484612
C    -2.125456  0.837065  2.662076
C    -1.464578  1.389172  3.942704
O    -0.743695  0.661949  4.684732
H    -1.642163  1.345676  0.676473
H    -2.929271  1.532791  2.385152
C    -2.789248  -0.518883  2.981272
C    -3.305183  -1.355815  1.795927
C    -2.401884  -2.539009  1.404898
N    -2.170039  -3.477228  2.508056
C    -1.160795  -3.405937  3.404168
N    -1.290308  -4.063572  4.578351
N    -0.054310  -2.688156  3.186814
H    -3.627395  -0.273509  3.648873
H    -2.107339  -1.116317  3.594585
H    -3.467324  -0.740870  0.898089
H    -4.295556  -1.754172  2.054611
H    -1.436234  -2.193735  1.012689
H    -2.866032  -3.106481  0.588934
H    -2.872240  -4.198385  2.645980
H    -0.449892  -4.378157  5.049498
H    -2.147189  -4.550227  4.816060
H    0.042298  -2.457139  2.197617
N    -1.741356  2.646689  4.264945
C    -1.249974  3.338707  5.457378
H    -2.349488  3.172962  3.642957
H    -2.079746  3.880232  5.924179
H    -0.464534  4.054146  5.182296
H    -0.849313  2.604056  6.159350
Pb    0.963655  -0.914864  4.306065
