36
Energy: -611335.715948 eV PBE+vdW (tier 2 basis)
C    0.526296  -1.764692  0.239014
C    -0.140788  -2.049702  1.547435
O    -0.774351  -3.135770  1.708535
H    -0.240730  -1.772033  -0.548392
H    1.228884  -2.574526  0.003225
H    1.053995  -0.805775  0.211442
N    -0.056097  -1.111990  2.508644
C    -0.799675  -1.029195  3.781859
C    -0.177522  -1.932401  4.858755
O    0.038495  -3.168855  4.705545
H    0.485117  -0.286904  2.266121
H    -0.641222  0.005716  4.116180
C    -2.323291  -1.192266  3.553627
C    -3.231301  -1.033705  4.785323
C    -3.620114  -2.342068  5.495901
N    -4.301165  -3.287613  4.607457
C    -3.703747  -4.285459  3.919328
N    -4.306740  -4.756367  2.806123
N    -2.531171  -4.814773  4.284929
H    -2.521155  -2.146428  3.053164
H    -2.579596  -0.416642  2.819364
H    -4.156004  -0.535954  4.461602
H    -2.790693  -0.355861  5.532788
H    -4.295350  -2.123628  6.332512
H    -2.744097  -2.833889  5.936746
H    -5.281252  -3.102286  4.412244
H    -5.143061  -4.320573  2.434518
H    -4.138002  -5.718050  2.534027
H    -2.328284  -4.610221  5.264775
N    0.132494  -1.346887  6.011893
C    0.722254  -2.054091  7.151397
H    -0.001083  -0.343912  6.096564
H    0.864043  -1.339863  7.966279
H    1.691213  -2.484996  6.872453
H    0.059197  -2.860046  7.487677
Pb    -0.484504  -4.885297  3.195948
