36
Energy: -611333.110844 eV PBE+vdW (tier 2 basis)
C    0.449920  0.436855  2.180758
C    -0.062152  -0.636265  3.074239
O    0.784497  -1.432239  3.617039
H    -0.210136  1.303760  2.121321
H    0.614841  0.034139  1.168605
H    1.435359  0.739531  2.557506
N    -1.368486  -0.805829  3.377680
C    -2.502944  -0.871211  2.439526
C    -2.399432  -2.233286  1.713781
O    -1.323258  -2.938145  1.782774
H    -1.486042  -1.436218  4.173256
H    -3.402466  -0.901490  3.074781
C    -2.684217  0.295932  1.454105
C    -3.031665  1.646872  2.097336
C    -3.743832  2.604802  1.113409
N    -5.139447  2.275565  0.873191
C    -5.598342  1.316228  0.001123
N    -6.905209  0.934455  0.167899
N    -4.893958  0.685841  -0.906547
H    -3.513480  0.004528  0.798399
H    -1.817384  0.381517  0.784755
H    -2.132261  2.148963  2.484245
H    -3.690298  1.494971  2.966362
H    -3.199617  2.659492  0.157941
H    -3.720810  3.620420  1.526474
H    -5.819480  2.757693  1.450952
H    -7.330321  0.507085  -0.648415
H    -7.532513  1.490762  0.737404
H    -3.990349  1.138005  -1.064489
N    -3.415582  -2.700580  1.011512
C    -4.754767  -2.138610  0.808079
H    -3.221116  -3.583357  0.536793
H    -5.434109  -2.970521  0.599213
H    -4.773072  -1.428072  -0.040135
H    -5.102877  -1.624895  1.711123
Pb    0.527978  -3.594919  2.935776
