36
Energy: -611334.754709 eV PBE+vdW (tier 2 basis)
C    -0.897471  2.277211  1.778660
C    -0.532918  0.896999  1.857991
O    0.609962  0.593970  2.393248
H    -1.888965  2.610649  1.474485
H    -0.032030  1.783432  -1.176135
H    -0.078165  2.959880  1.544362
N    -1.390475  -0.146447  1.607939
C    -2.827307  -0.005445  1.788086
C    -3.134493  0.185643  3.307432
O    -2.244801  0.574784  4.115607
H    -0.999944  -1.020568  1.964044
H    -3.134685  0.936429  1.306200
C    -3.594604  -1.170818  1.132260
C    -3.189275  -1.532278  -0.307278
C    -3.341137  -0.437202  -1.378193
N    -2.200064  0.483885  -1.492022
C    -1.011700  0.197940  -2.042466
N    -0.836867  -0.921226  -2.755523
N    0.020344  1.034260  -1.855498
H    -4.669762  -0.932680  1.134636
H    -3.478053  -2.074776  1.749456
H    -3.829203  -2.372760  -0.611011
H    -2.161366  -1.920732  -0.326979
H    -4.222514  0.189825  -1.190723
H    -3.530131  -0.895789  -2.359757
H    -2.306356  1.421851  -1.123989
H    0.078938  -1.181063  -3.102470
H    -1.625457  -1.450495  -3.106170
H    0.849105  0.991027  -2.436852
N    -4.363830  -0.064455  3.742865
C    -4.779280  0.107889  5.138319
H    -5.050187  -0.421217  3.086736
H    -5.829104  -0.183267  5.224149
H    -4.667817  1.154956  5.443446
H    -4.171115  -0.522807  5.797113
Pb    -0.235106  1.894349  4.169947
