36
Energy: -611333.6757 eV PBE+vdW (tier 2 basis)
C    0.526361  0.375424  0.568167
C    0.081701  0.367058  1.994458
O    0.942883  0.179409  2.905951
H    -0.284186  0.565546  -0.142947
H    0.985293  -0.596512  0.338473
H    1.309605  1.134515  0.440734
N    -1.227522  0.550819  2.247026
C    -1.926029  0.455065  3.545058
C    -1.557120  1.655490  4.434244
O    -0.507406  1.665017  5.158239
H    -1.816733  0.682014  1.429553
H    -2.989101  0.560270  3.298532
C    -1.733642  -0.924926  4.210112
C    -2.156799  -1.025134  5.686000
C    -1.062688  -1.677307  6.543494
N    -1.303270  -1.639368  7.915890
C    -1.164852  -2.683581  8.851826
N    -0.460697  -3.787839  8.406880
N    -1.787050  -2.484209  9.953663
H    -0.682824  -1.235192  4.105237
H    -2.292162  -1.646311  3.600279
H    -3.067656  -1.629010  5.787574
H    -2.399253  -0.038866  6.110201
H    -0.060916  -1.118779  6.246443
H    -0.862848  -2.710967  6.224065
H    -1.807803  -0.854673  8.324161
H    -0.381361  -4.539152  9.085530
H    0.411853  -3.631625  7.910592
H    -1.682701  -3.240490  10.634168
N    -2.355935  2.711301  4.464384
C    -3.612493  2.942020  3.739313
H    -2.028144  3.466358  5.068596
H    -4.367214  2.189825  3.998878
H    -3.994903  3.921172  4.040145
H    -3.448466  2.960102  2.655119
Pb    1.390350  0.416884  5.139752
