36
Energy: -611334.959731 eV PBE+vdW (tier 2 basis)
C    0.691332  -1.379577  0.728681
C    0.327282  -0.382329  1.787996
O    1.031837  -0.205775  2.794992
H    0.078386  -1.310769  -0.176771
H    0.580605  -2.387905  1.152638
H    1.749195  -1.257184  0.469057
N    -0.828194  0.335888  1.591318
C    -1.521029  1.133138  2.614239
C    -0.738115  2.392132  3.036034
O    -1.344617  3.544989  3.019461
H    -1.361772  0.120004  0.756278
H    -2.423795  1.516349  2.120676
C    -1.943313  0.240544  3.818760
C    -2.617194  0.883020  5.041135
C    -4.012052  1.488505  4.847102
N    -3.905239  2.791839  4.184635
C    -4.826087  3.440661  3.468875
N    -6.104148  3.032199  3.486206
N    -4.427798  4.495967  2.710450
H    -1.044632  -0.280921  4.172941
H    -2.602487  -0.535136  3.400995
H    -1.959545  1.634389  5.510719
H    -2.715243  0.091827  5.796817
H    -4.497323  1.606837  5.828229
H    -4.642605  0.824256  4.235826
H    -2.999172  3.247525  4.243601
H    -6.795977  3.443366  2.870983
H    -6.444397  2.385713  4.189376
H    -5.210957  5.083529  2.417614
N    0.481823  2.252486  3.473540
C    1.367452  3.311464  3.940177
H    0.843518  1.248203  3.387686
H    2.233748  3.381949  3.270206
H    1.730850  3.055812  4.942862
H    0.842900  4.269254  3.973720
Pb    -2.440763  5.066507  1.798383
