36
Energy: -611334.444072 eV PBE+vdW (tier 2 basis)
C    -0.813712  -1.077481  -0.101183
C    -0.113699  -0.912212  1.204382
O    1.002593  -1.504285  1.411757
H    -0.112077  -1.479308  -0.838144
H    -1.241705  -0.134647  -0.457058
H    -1.639764  -1.799254  0.013304
N    -0.653478  -0.180353  2.197618
C    -2.076688  -0.304215  2.619016
C    -2.367948  -1.810076  2.776384
O    -1.354050  -2.548272  3.263525
H    -0.006509  -0.011578  2.966738
H    -2.066479  0.102265  3.642801
C    -3.061887  0.552313  1.796174
C    -4.129435  1.276772  2.640646
C    -5.420371  0.515452  2.970129
N    -6.366434  0.472015  1.848626
C    -6.691160  -0.593402  1.102431
N    -7.762148  -0.516644  0.291790
N    -5.961459  -1.709706  1.143658
H    -3.520939  -0.042581  0.994920
H    -2.457641  1.323676  1.301302
H    -4.406832  2.207006  2.124071
H    -3.681620  1.602906  3.591894
H    -5.934369  1.020720  3.798796
H    -5.221698  -0.510903  3.300903
H    -6.867276  1.332229  1.648831
H    -7.944935  -1.226776  -0.405724
H    -8.457034  0.211870  0.398566
H    -6.331145  -2.555038  0.726923
N    -3.522307  -2.294204  2.507914
C    -3.758461  -3.714306  2.770446
H    -5.047490  -1.772175  1.645219
H    -3.285514  -4.341443  1.998754
H    -4.836307  -3.910745  2.749297
H    -3.365426  -4.027897  3.746420
Pb    0.743672  -3.059301  3.099022
