36
Energy: -611334.343955 eV PBE+vdW (tier 2 basis)
C    -0.448203  0.680124  -0.556558
C    -0.184576  0.617213  0.907628
O    0.968319  0.932364  1.362442
H    -1.287184  0.049838  -0.865929
H    0.463298  0.376040  -1.085982
H    -0.652093  1.721661  -0.852003
N    -1.152026  0.253051  1.772156
C    -2.509759  0.820082  1.724208
C    -2.422393  2.348571  1.970016
O    -1.304291  2.820518  2.546668
H    -0.811406  0.106120  2.723839
H    -2.890180  0.694028  0.702702
C    -3.423225  0.081120  2.722907
C    -4.074280  -1.197673  2.151768
C    -5.557035  -1.025986  1.780856
N    -5.767778  0.175578  0.962970
C    -6.599456  1.198486  1.239370
N    -7.774162  0.966124  1.840216
N    -6.206903  2.431353  0.902660
H    -4.193393  0.787407  3.058584
H    -2.837363  -0.157602  3.622905
H    -4.021134  -2.017101  2.880165
H    -3.509270  -1.552579  1.275572
H    -6.157857  -0.909795  2.692566
H    -5.921322  -1.918696  1.254147
H    -5.097823  0.365652  0.225560
H    -8.322490  1.725932  2.226089
H    -8.215928  0.055196  1.787539
H    -6.878502  3.189533  0.853171
N    -3.422669  3.059013  1.608224
C    -3.422130  4.503863  1.805587
H    -5.191530  2.655801  0.977665
H    -3.493074  4.999448  0.827032
H    -2.539587  4.880180  2.335446
H    -4.318771  4.786890  2.374584
Pb    0.842847  2.751053  2.782501
