36
Energy: -611334.688012 eV PBE+vdW (tier 2 basis)
C    0.152707  1.583537  0.599615
C    -0.062426  0.736725  1.807742
O    0.975793  0.227710  2.387669
H    0.858930  1.097090  -0.084021
H    0.632817  2.518644  0.928236
H    -0.770078  1.834185  0.070171
N    -1.257651  0.488492  2.318151
C    -2.613341  0.889956  1.924173
C    -3.267912  1.141541  3.322503
O    -2.738406  0.584951  4.297301
H    -1.347960  0.181335  3.325023
H    -2.596143  1.802594  1.314721
C    -3.381248  -0.256391  1.218847
C    -2.984895  -0.648418  -0.215084
C    -1.753149  -1.540594  -0.445083
N    -1.812623  -2.883512  0.157030
C    -1.037510  -3.314825  1.170997
N    -0.827812  -4.632520  1.332925
N    -0.465714  -2.436531  2.018568
H    -4.433982  0.058257  1.186381
H    -3.373562  -1.136550  1.882815
H    -2.842076  0.252633  -0.832019
H    -3.850658  -1.160320  -0.660568
H    -0.823398  -1.072545  -0.102354
H    -1.636853  -1.684690  -1.528426
H    -2.363057  -3.579510  -0.339962
H    -0.577847  -4.991952  2.246447
H    -1.128436  -5.310669  0.641517
H    -0.970809  -1.547742  1.973721
N    -4.365584  1.900001  3.362057
C    -5.117678  2.176759  4.587141
H    -4.688743  2.333761  2.502623
H    -5.153174  3.257364  4.767763
H    -4.613036  1.684472  5.422155
H    -6.140109  1.790606  4.498403
Pb    1.552278  -1.880841  2.894699
