36
Energy: -611334.460514 eV PBE+vdW (tier 2 basis)
C    -0.149969  -0.994093  1.827847
C    -1.104467  -1.316189  2.926480
O    -1.152991  -2.505936  3.400216
H    0.361397  -0.040625  1.996661
H    -0.696829  -0.913301  0.873523
H    0.579606  -1.803760  1.735978
N    -1.956361  -0.394110  3.412442
C    -2.756968  0.514277  2.551068
C    -3.456932  -0.364548  1.485349
O    -3.771212  -1.616575  1.865353
H    -2.440686  -0.704726  4.253584
H    -3.551673  0.866059  3.228156
C    -1.981621  1.746620  2.034646
C    -2.720345  3.091014  2.158362
C    -4.016489  3.228402  1.347869
N    -3.840005  2.937268  -0.072326
C    -3.679683  3.820250  -1.055384
N    -3.513601  5.130538  -0.813725
N    -3.679612  3.394228  -2.332004
H    -1.668410  1.576761  0.996063
H    -1.065338  1.832504  2.632406
H    -2.014553  3.879584  1.857160
H    -2.960909  3.289833  3.214042
H    -4.450647  4.228570  1.477356
H    -4.782155  2.527433  1.710422
H    -3.744120  1.916873  -0.246953
H    -3.365779  5.481217  0.122637
H    -3.620349  5.816727  -1.550675
H    -3.405718  4.003279  -3.092516
N    -3.749305  0.115922  0.335318
C    -4.466463  -0.730262  -0.615907
H    -4.021152  2.473313  -2.572225
H    -3.790657  -1.474806  -1.063939
H    -4.860741  -0.110208  -1.429092
H    -5.302420  -1.270135  -0.150714
Pb    -3.189035  -3.443305  2.869292
