36
Energy: -611333.414474 eV PBE+vdW (tier 2 basis)
C    -0.116875  -0.118542  -0.095235
C    -0.122365  -0.006137  1.392692
O    0.935254  0.354514  1.997771
H    0.182257  0.848979  -0.521857
H    -1.085672  -0.413329  -0.511728
H    0.646522  -0.847497  -0.399736
N    -1.257494  -0.274278  2.057290
C    -1.455123  -0.086965  3.500783
C    -0.734464  -1.205481  4.288339
O    0.417143  -0.945310  4.785844
H    -2.067735  -0.541716  1.503680
H    -0.902917  0.823030  3.782395
C    -2.934293  0.143816  3.865098
C    -3.446278  1.579871  3.666926
C    -3.614894  2.045478  2.203160
N    -4.417911  3.238273  2.058800
C    -5.801909  3.223849  2.147832
N    -6.402540  4.450738  2.148589
N    -6.566419  2.173225  2.250856
H    -3.054320  -0.113933  4.927324
H    -3.575524  -0.560170  3.312125
H    -2.802745  2.288779  4.210876
H    -4.430086  1.635540  4.154141
H    -4.081359  1.244153  1.604262
H    -2.640861  2.252000  1.735713
H    -3.950057  4.127664  2.197182
H    -7.416327  4.437758  2.115654
H    -5.944736  5.267680  1.763358
H    -6.047349  1.293369  2.239985
N    -1.236117  -2.413747  4.480811
C    -2.503438  -3.004805  4.041543
H    -0.631873  -3.017534  5.041049
H    -2.376142  -4.091409  4.028929
H    -2.759935  -2.682203  3.028382
H    -3.317472  -2.755489  4.733157
Pb    2.132579  0.284101  3.938753
