36
Energy: -611333.403731 eV PBE+vdW (tier 2 basis)
C    -1.225633  -1.367635  1.845878
C    -1.007484  -0.822442  3.203718
O    0.118170  -1.010915  3.802064
H    -0.307400  -1.309035  1.251903
H    -2.087343  -0.930212  1.321659
H    -1.453418  -2.440030  1.982525
N    -1.970023  -0.144126  3.863020
C    -2.766577  0.907513  3.243498
C    -1.820012  2.094384  3.007055
O    -0.609484  2.101366  3.448892
H    -1.801269  -0.039073  4.866521
H    -3.130178  0.524447  2.252814
C    -4.018969  1.263113  4.087851
C    -5.231872  1.721127  3.250692
C    -6.321362  0.649816  2.982328
N    -5.859163  -0.719673  2.788591
C    -4.946823  -1.125775  1.854726
N    -4.529810  -2.434927  1.953085
N    -4.346944  -0.359571  0.972333
H    -3.760452  2.032093  4.829093
H    -4.289729  0.357723  4.648845
H    -4.900142  2.135371  2.285922
H    -5.735698  2.552723  3.759482
H    -6.936831  0.987197  2.132835
H    -6.991819  0.610272  3.849204
H    -6.408646  -1.434333  3.253790
H    -4.225771  -2.840406  1.073745
H    -5.043401  -3.074233  2.550101
H    -4.870314  0.505535  0.822152
N    -2.257168  3.138259  2.329226
C    -1.468600  4.340369  2.036986
H    -3.212246  3.103957  1.981155
H    -2.121027  5.065892  1.544911
H    -0.633771  4.096729  1.368860
H    -1.078750  4.774094  2.964566
Pb    1.086919  0.937786  4.402085
