36
Energy: -611333.990635 eV PBE+vdW (tier 2 basis)
C    -1.529559  -0.122436  -0.021762
C    -1.093811  -0.344073  1.388092
O    0.076222  -0.816954  1.596496
H    -1.480509  -1.079664  -0.560103
H    -0.820547  0.554227  -0.517698
H    -2.541932  0.285897  -0.105248
N    -1.943767  -0.057838  2.376655
C    -1.833521  -0.313242  3.828497
C    -0.890828  0.708103  4.466942
O    0.390846  0.579360  4.354994
H    -2.835711  0.336177  2.084281
H    -2.862816  -0.127178  4.209260
C    -1.496774  -1.757866  4.235410
C    -2.270681  -2.891457  3.540224
C    -3.815212  -2.853814  3.624639
N    -4.346124  -2.618732  4.953096
C    -4.644784  -1.364717  5.439898
N    -4.697345  -1.254226  6.801307
N    -4.782348  -0.277593  4.718603
H    -1.654909  -1.805038  5.323393
H    -0.417358  -1.991047  4.108815
H    -1.915654  -3.827783  3.994501
H    -1.992845  -2.953833  2.476618
H    -4.198369  -3.814061  3.256540
H    -4.220271  -2.100036  2.935434
H    -4.518969  -3.426327  5.541492
H    -5.265608  -0.498025  7.165900
H    -4.615775  -2.073590  7.391050
H    -5.002513  -0.516212  3.748377
N    -1.342241  1.738862  5.148501
C    -2.712210  2.170904  5.449394
H    -0.598767  2.341702  5.510963
H    -2.918927  3.100873  4.903999
H    -2.773154  2.377404  6.524311
H    -3.457461  1.405643  5.187193
Pb    1.672058  -0.788536  3.161186
