36
Energy: -611334.318695 eV PBE+vdW (tier 2 basis)
C    -2.404485  -0.195390  -1.777252
C    -2.779076  -0.166528  -0.334407
O    -3.455346  -1.144639  0.146964
H    -1.838359  0.686496  -2.094070
H    -3.310220  -0.290583  -2.390621
H    -1.801126  -1.096173  -1.961480
N    -2.381071  0.853598  0.422332
C    -2.472732  0.981462  1.887737
C    -3.868262  1.499321  2.310871
O    -4.898369  0.711987  2.185481
H    -1.849348  1.585293  -0.046069
H    -2.350882  -0.026819  2.318647
C    -1.439030  1.959465  2.404345
C    0.067973  1.841462  2.278371
C    0.603851  3.096220  3.011414
N    0.097178  4.369586  2.482968
C    -0.941534  5.127864  2.994487
N    -0.725270  6.473319  2.911204
N    -2.059604  4.596423  3.446681
H    -1.655072  2.079508  3.473926
H    -1.688165  2.925925  1.946286
H    0.413072  1.836935  1.233421
H    0.471583  0.943121  2.766557
H    1.698088  3.127082  2.950446
H    0.339581  3.025698  4.076660
H    0.774157  4.907963  1.954605
H    0.212448  6.852805  2.970715
H    -1.478801  7.115187  3.122678
H    -2.598052  5.312434  3.939351
N    -3.990470  2.701863  2.808202
C    -5.263972  3.275184  3.237863
H    -3.130671  3.366445  2.987750
H    -5.180561  3.565081  4.292807
H    -6.080794  2.562088  3.112770
H    -5.465485  4.177237  2.646135
Pb    -5.175578  -1.377903  1.547808
