36
Energy: -611333.784205 eV PBE+vdW (tier 2 basis)
C    0.629062  -1.042121  0.820706
C    -0.052720  0.069018  1.541336
O    0.650112  0.795539  2.353378
H    -0.032198  -1.520270  0.090548
H    0.975592  -1.788156  1.550193
H    1.525195  -0.652674  0.319605
N    -1.342605  0.288509  1.328754
C    -2.019567  1.427872  1.946933
C    -2.071952  1.282566  3.482842
O    -1.448563  2.176867  4.177036
H    -1.834095  -0.300950  0.522482
H    -1.344193  2.293455  1.822991
C    -3.312358  1.908549  1.241294
C    -4.624357  1.081572  1.225082
C    -5.295457  0.988855  -0.168086
N    -4.791261  -0.132414  -0.996942
C    -3.407181  -0.195969  -1.156405
N    -2.866253  0.823178  -1.879710
N    -2.612420  -1.078900  -0.595188
H    -2.990375  2.112965  0.210079
H    -3.524731  2.895926  1.675212
H    -4.466622  0.054273  1.572563
H    -5.337814  1.531517  1.928400
H    -5.191086  1.933527  -0.718713
H    -6.371894  0.820190  -0.051783
H    -5.156437  -1.021121  -0.658006
H    -3.472918  1.294762  -2.542144
H    -1.906387  0.701589  -2.182731
H    -3.157251  -1.788005  -0.098127
N    -2.671979  0.310553  4.142525
C    -3.369565  -0.888097  3.677168
H    -2.599502  0.410464  5.157349
H    -4.455262  -0.754697  3.751215
H    -3.073192  -1.722222  4.323244
H    -3.086068  -1.121593  2.649059
Pb    0.748664  2.474577  3.796906
