36
Energy: -611334.98076 eV PBE+vdW (tier 2 basis)
C    1.871355  0.817110  2.679698
C    0.916071  1.445224  1.722878
O    1.243778  2.523064  1.123473
H    2.465654  1.606810  3.151887
H    2.563611  0.166668  2.123639
H    1.377675  0.216206  3.450742
N    -0.288274  0.908434  1.490407
C    -0.775376  -0.427390  1.848264
C    0.156042  -1.495738  1.232011
O    0.852776  -1.221694  0.232002
H    -0.910017  1.472270  0.916698
H    -0.763918  -0.516008  2.943591
C    -2.249556  -0.581432  1.377537
C    -2.580072  -1.247123  0.024333
C    -1.918276  -0.763928  -1.280938
N    -1.844617  0.699360  -1.415567
C    -0.747393  1.441202  -1.599249
N    0.558297  0.846256  -1.554979
N    -0.689105  2.746668  -1.744119
H    -2.710864  0.416771  1.436659
H    -2.778613  -1.166786  2.140103
H    -3.672293  -1.176417  -0.083100
H    -2.370889  -2.325933  0.077779
H    -2.491872  -1.156174  -2.132229
H    -0.903253  -1.157628  -1.371695
H    -2.733136  1.199059  -1.433150
H    0.849821  0.514956  -2.480331
H    0.662151  0.055083  -0.857162
H    -1.561100  3.271475  -1.829667
N    0.172462  -2.711123  1.790338
C    -0.588036  -3.204775  2.939210
H    0.773398  -3.377881  1.307811
H    -1.621781  -3.454916  2.665578
H    -0.101943  -4.112988  3.306910
H    -0.593414  -2.477391  3.759387
Pb    1.528648  3.154362  -1.065294
