36
Energy: -611334.924527 eV PBE+vdW (tier 2 basis)
C    -0.216842  1.721097  1.267239
C    -0.432568  0.541081  2.163496
O    0.326700  0.328682  3.191437
H    -0.240046  2.651116  1.852870
H    -0.969630  1.793476  0.476026
H    0.771680  1.641237  0.792050
N    -1.410584  -0.289969  1.896041
C    -1.798270  -1.524720  2.576099
C    -2.965759  -2.029740  1.662453
O    -3.371825  -1.278517  0.769267
H    -2.076094  -0.151158  1.095757
H    -0.964433  -2.242456  2.510860
C    -2.204880  -1.324654  4.063573
C    -1.193769  -1.924720  5.052688
C    -1.293613  -1.374127  6.481098
N    -1.028890  0.079327  6.559511
C    0.127203  0.663631  6.255613
N    0.152340  2.069708  6.012235
N    1.297471  0.107593  6.030942
H    -3.198123  -1.762632  4.232709
H    -2.323887  -0.245596  4.233185
H    -0.176633  -1.774046  4.665871
H    -1.329409  -3.013771  5.125613
H    -0.606700  -1.905598  7.155409
H    -2.299903  -1.516884  6.892837
H    -1.786540  0.672576  6.885760
H    0.657455  2.585870  6.737780
H    -0.755350  2.505339  5.841540
H    1.403954  -0.880790  6.258154
N    -3.445681  -3.253277  1.920055
C    -4.534149  -3.868120  1.158800
H    -3.000788  -3.812381  2.640545
H    -5.356851  -4.142435  1.829436
H    -4.174421  -4.764580  0.639722
H    -4.891307  -3.143597  0.422580
Pb    2.031687  1.392855  4.225570
