36
Energy: -611334.717 eV PBE+vdW (tier 2 basis)
C    -0.711058  2.163420  -0.244769
C    -1.003556  2.098192  1.226221
O    -0.979305  3.301052  1.834073
H    -1.370863  2.906849  -0.711058
H    -0.859307  1.200227  -0.738449
H    0.320239  2.500809  -0.422799
N    -1.270953  0.970572  1.792096
C    -1.712100  0.857816  3.177429
C    -0.882793  1.553150  4.252319
O    0.323056  1.955615  4.049438
H    -1.188337  -0.731079  0.779375
H    -2.729089  1.287824  3.249602
C    -1.799124  -0.658343  3.500665
C    -2.899867  -1.327867  2.667452
C    -2.684221  -2.815802  2.394164
N    -1.376481  -3.194511  1.807256
C    -0.848516  -2.796893  0.633586
N    -0.106290  -3.673180  -0.065417
N    -1.025076  -1.556354  0.166483
H    -1.972455  -0.835324  4.569663
H    -0.812366  -1.087890  3.272409
H    -3.029709  -0.794018  1.717349
H    -3.867977  -1.241696  3.182564
H    -3.490730  -3.186698  1.744401
H    -2.738069  -3.383525  3.331362
H    -0.996463  -4.066074  2.162773
H    0.529901  -3.365304  -0.791305
H    -0.198512  -4.672570  0.074092
H    -0.767428  -1.367792  -0.795217
N    -1.394784  1.729561  5.466371
C    -2.714793  1.369749  5.985627
H    -0.738428  2.123879  6.140848
H    -3.013172  2.123704  6.721410
H    -2.688492  0.389619  6.479295
H    -3.458390  1.354307  5.183768
Pb    0.699670  3.927095  3.006698
