36
Energy: -611332.495661 eV PBE+vdW (tier 2 basis)
C    0.256144  0.616933  0.681938
C    -0.078360  0.463286  2.126253
O    0.756126  0.940080  3.005569
H    0.403702  1.681683  0.455865
H    -0.514090  0.215483  0.018375
H    1.206687  0.105915  0.475072
N    -1.162451  -0.127935  2.562010
C    -2.291301  -0.733011  1.845008
C    -3.414790  -0.660972  2.926172
O    -3.068272  -0.632595  4.112709
H    -1.372614  -0.185253  3.583796
H    -2.549194  -0.127074  0.964813
C    -1.954474  -2.188815  1.441324
C    -3.063566  -2.928298  0.682605
C    -2.577434  -4.303123  0.203937
N    -3.629337  -5.019216  -0.496630
C    -3.391449  -5.994581  -1.442280
N    -4.488757  -6.605445  -1.968765
N    -2.224821  -6.406233  -1.875022
H    -1.687567  -2.741114  2.355154
H    -1.046933  -2.156852  0.817761
H    -3.393624  -2.345365  -0.191911
H    -3.939435  -3.060838  1.335789
H    -2.198362  -4.887837  1.061074
H    -1.737533  -4.165993  -0.491715
H    -4.534545  -5.047765  -0.035459
H    -4.314537  -7.316250  -2.670549
H    -5.421686  -6.219479  -1.901021
H    -1.438323  -5.922058  -1.435905
N    -4.681055  -0.651702  2.487028
C    -5.841188  -0.617469  3.376842
H    -4.847349  -0.614174  1.486741
H    -6.508609  -1.460131  3.161055
H    -6.393354  0.321325  3.247707
H    -5.486733  -0.689874  4.408249
Pb    2.067873  1.928740  4.395409
