36
Energy: -611335.493971 eV PBE+vdW (tier 2 basis)
C    -0.366685  0.122633  -0.555782
C    -0.182627  0.025671  0.930037
O    0.906861  -0.422117  1.381307
H    -0.189924  -0.867239  -0.996663
H    0.397584  0.796265  -0.965876
H    -1.356947  0.478101  -0.858862
N    -1.219809  0.415054  1.694476
C    -1.453272  0.409720  3.158799
C    -0.464768  1.305484  3.920248
O    0.768295  1.066456  4.006711
H    -2.021642  0.736777  1.160550
H    -2.431115  0.902629  3.242327
C    -1.686667  -0.992943  3.776367
C    -0.525959  -1.991064  3.916623
C    0.348888  -1.808086  5.170889
N    1.819810  -1.799654  4.868699
C    2.326390  -2.922270  4.108061
N    2.350920  -4.129940  4.686245
N    2.703890  -2.586597  2.912830
H    -2.466139  -1.455484  3.154441
H    -2.159431  -0.831800  4.758012
H    0.087847  -1.981669  3.008325
H    -0.969462  -2.994528  3.947171
H    0.122014  -2.589589  5.911929
H    0.159718  -0.845939  5.660524
H    2.335164  -1.710946  5.750906
H    2.731285  -4.940604  4.207151
H    2.025388  -4.274007  5.635433
H    3.062483  -3.323686  2.302349
N    -0.990771  2.359598  4.542501
C    -0.205274  3.299924  5.343584
H    -1.986298  2.534763  4.450375
H    -0.886484  4.030960  5.786233
H    0.526393  3.821140  4.714435
H    0.326313  2.769585  6.142232
Pb    2.566033  -0.150600  2.969411
