36
Energy: -611333.51348 eV PBE+vdW (tier 2 basis)
C    -1.127159  0.271013  -0.432106
C    -0.695716  -0.003425  0.960595
O    0.545305  -0.205277  1.227067
H    -2.087649  -0.210118  -0.671445
H    -0.339786  -0.056742  -1.118702
H    -1.259659  1.356359  -0.579235
N    -1.578893  -0.021343  1.980477
C    -2.617692  0.990829  2.140333
C    -1.892755  2.325794  2.360847
O    -0.659799  2.349653  2.757200
H    -1.211204  -0.409822  2.852446
H    -3.250101  1.048623  1.216161
C    -3.538158  0.648542  3.334123
C    -4.209696  -0.740685  3.326185
C    -5.408663  -0.994126  2.387839
N    -5.079290  -1.330917  1.009210
C    -4.819751  -0.409897  0.034091
N    -4.298066  -0.899803  -1.146681
N    -4.908484  0.889865  0.173926
H    -4.305764  1.432197  3.402954
H    -2.946828  0.734477  4.261238
H    -4.577336  -0.894144  4.351507
H    -3.463536  -1.533090  3.161207
H    -6.113149  -0.147496  2.418095
H    -5.968261  -1.848098  2.788265
H    -5.167983  -2.306231  0.746170
H    -4.489701  -0.309299  -1.951381
H    -4.384975  -1.892558  -1.340841
H    -5.469615  1.106896  1.002713
N    -2.501147  3.479336  2.169925
C    -3.859549  3.731148  1.673879
H    -1.941035  4.298649  2.409877
H    -3.850363  4.689461  1.145413
H    -4.567212  3.801502  2.510135
H    -4.165028  2.947292  0.971740
Pb    1.323442  1.268714  2.775132
