36
Energy: -611333.379639 eV PBE+vdW (tier 2 basis)
C    1.331313  1.291659  0.125114
C    1.279125  1.162275  1.603665
O    2.379658  1.256555  2.264637
H    2.109776  2.032622  -0.103268
H    0.380461  1.571615  -0.340844
H    1.679271  0.344785  -0.318175
N    0.144236  0.995031  2.319882
C    -0.928809  0.011027  2.101197
C    -0.408971  -1.321345  2.692865
O    0.817008  -1.483520  3.030205
H    0.292832  1.193388  3.310734
H    -1.777366  0.348357  2.716729
C    -1.402238  -0.099329  0.640823
C    -2.786976  -0.713858  0.417089
C    -3.301301  -0.405656  -1.009432
N    -3.722955  0.968662  -1.213338
C    -2.944094  1.940921  -1.802024
N    -3.641142  2.999327  -2.315418
N    -1.641575  1.812668  -1.786885
H    -0.663677  -0.644775  0.036477
H    -1.431517  0.920818  0.230543
H    -3.515418  -0.322013  1.145515
H    -2.768885  -1.811506  0.518661
H    -4.161001  -1.055458  -1.218831
H    -2.521633  -0.642826  -1.745940
H    -4.710179  1.169743  -1.106195
H    -3.126844  3.774691  -2.713240
H    -4.591296  2.885455  -2.649738
H    -1.202685  2.547559  -2.347303
N    -1.263454  -2.316424  2.842155
C    -0.915712  -3.644727  3.358550
H    -2.228827  -2.154259  2.565375
H    -0.544582  -3.567347  4.387351
H    -0.148092  -4.110212  2.729689
H    -1.816527  -4.263186  3.347572
Pb    2.839961  -0.542884  3.569261
