36
Energy: -611335.102315 eV PBE+vdW (tier 2 basis)
C    3.615387  0.378258  1.355904
C    2.514841  1.117058  2.045033
O    2.591742  2.390273  2.134537
H    3.692180  0.751071  0.324758
H    3.462399  -0.705743  1.334156
H    4.571354  0.603093  1.846376
N    1.477861  0.429206  2.521686
C    0.214512  0.960890  3.073161
C    0.355414  1.259470  4.577040
O    1.138494  2.302876  4.877652
H    1.531229  -0.581394  2.423219
H    0.052491  1.932712  2.578476
C    -0.956773  0.046757  2.682883
C    -0.799575  -1.436132  3.046641
C    -2.102822  -2.241381  2.963415
N    -3.274106  -1.683331  3.672639
C    -3.439256  -1.604955  5.009300
N    -4.669372  -1.773899  5.520168
N    -2.400667  -1.350913  5.809019
H    -1.126798  0.150237  1.600918
H    -1.848752  0.459649  3.173344
H    -0.358693  -1.544958  4.045146
H    -0.112734  -1.944968  2.350412
H    -1.917083  -3.263632  3.323319
H    -2.423976  -2.320650  1.917663
H    -4.132436  -1.658911  3.132153
H    -4.895124  -1.472352  6.460939
H    -5.395097  -2.257770  5.004194
H    -2.522108  -1.465820  6.809142
N    -0.263485  0.554922  5.449748
C    -0.097902  0.857851  6.868742
H    -1.598161  -0.754731  5.500824
H    0.154757  -0.069123  7.402091
H    -1.055004  1.219220  7.273355
H    0.673670  1.607051  7.076459
Pb    2.225481  3.831669  3.830312
