36
Energy: -611334.767848 eV PBE+vdW (tier 2 basis)
C    -0.370869  0.102386  -0.330540
C    -0.234557  -0.965258  0.486945
O    0.401836  -2.093496  0.216028
H    -0.878638  1.005927  0.001038
H    0.193849  0.129776  -1.260668
H    -2.058286  0.010302  -1.973567
N    -0.696244  -0.933996  1.880490
C    -1.922631  -1.713755  2.255994
C    -1.561138  -2.867220  3.197374
O    -0.426707  -3.432438  3.140188
H    -0.777319  0.025684  2.216138
H    -2.580630  -1.023377  2.802079
C    -2.692584  -2.288712  1.042792
C    -3.542863  -1.250103  0.295648
C    -3.856157  -1.736741  -1.126995
N    -4.550152  -0.749601  -1.955429
C    -3.958702  0.108170  -2.800867
N    -4.705307  0.773023  -3.695641
N    -2.635103  0.300921  -2.765221
H    -3.332184  -3.114761  1.384342
H    -1.955419  -2.747793  0.367572
H    -3.006276  -0.294236  0.234802
H    -4.478015  -1.054691  0.841384
H    -4.485965  -2.636158  -1.102426
H    -2.929043  -2.023436  -1.643690
H    -5.563098  -0.718209  -1.904173
H    -4.333606  1.563659  -4.208092
H    -5.646005  0.476170  -3.925917
H    -2.168062  0.783758  -3.523404
N    -2.463798  -3.318484  4.061143
C    -3.815862  -2.815362  4.309977
H    -2.157343  -4.125183  4.604208
H    -4.490470  -3.036801  3.472999
H    -3.808482  -1.736011  4.503843
H    -4.202444  -3.314757  5.202425
Pb    1.411816  -2.464487  2.161972
