36
Energy: -611335.746803 eV PBE+vdW (tier 2 basis)
C    0.861823  -0.512756  1.160779
C    0.081796  -0.614041  2.434016
O    0.444218  -1.442950  3.319197
H    0.473127  0.236377  0.463235
H    0.854836  -1.495861  0.669590
H    1.909213  -0.282806  1.395922
N    -0.996584  0.182121  2.566263
C    -2.040074  0.168704  3.613989
C    -1.516750  0.778444  4.928820
O    -0.713852  0.170106  5.693564
H    -1.173425  0.802447  1.781514
H    -2.820043  0.842896  3.233396
C    -2.653377  -1.232210  3.788415
C    -3.694366  -1.360313  4.915907
C    -3.830131  -2.798007  5.469119
N    -3.074619  -3.039700  6.709405
C    -1.736405  -3.073346  6.843538
N    -1.205763  -2.899045  8.089468
N    -0.876989  -3.205395  5.832365
H    -1.836388  -1.938113  3.945689
H    -3.107345  -1.505912  2.825853
H    -4.675781  -1.034773  4.546000
H    -3.456455  -0.698063  5.761179
H    -3.559245  -3.546093  4.708383
H    -4.874685  -3.004559  5.724602
H    -3.627418  -3.176496  7.550047
H    -0.384979  -3.450040  8.320893
H    -1.815627  -2.691528  8.873702
H    -1.302706  -3.583528  4.986271
N    -1.975591  1.985954  5.241566
C    -1.603814  2.747143  6.434185
H    -2.622353  2.429450  4.594920
H    -2.508038  3.155996  6.898113
H    -0.937034  3.574543  6.159980
H    -1.092838  2.085718  7.137259
Pb    0.807818  -1.609551  5.596526
