36
Energy: -611335.024951 eV PBE+vdW (tier 2 basis)
C    0.439103  0.916687  0.615925
C    0.481747  0.402941  2.015357
O    1.633340  0.389915  2.607953
H    1.004754  0.241367  -0.041787
H    0.952266  1.886578  0.582190
H    -0.576346  1.028688  0.226458
N    -0.583542  -0.030173  2.652192
C    -1.965544  -0.224767  2.223198
C    -2.707098  -0.392353  3.583488
O    -2.034261  -0.711418  4.579115
H    -0.532611  -0.325554  3.649344
H    -2.326461  0.670094  1.697003
C    -2.161060  -1.466971  1.319004
C    -1.955671  -2.855271  1.957000
C    -0.541356  -3.457704  1.933687
N    0.467459  -2.825820  2.798515
C    0.565290  -2.929833  4.133449
N    -0.243913  -3.763493  4.799389
N    1.490852  -2.185734  4.787259
H    -1.529097  -1.356363  0.424263
H    -3.194603  -1.416547  0.948287
H    -2.570972  -3.567127  1.388241
H    -2.363805  -2.870934  2.978268
H    -0.130310  -3.412806  0.917216
H    -0.598067  -4.531905  2.171419
H    1.260056  -2.392042  2.341642
H    -0.317259  -3.725057  5.808618
H    -0.838474  -4.429510  4.321266
H    1.665239  -2.561972  5.722222
N    -4.031853  -0.222775  3.568728
C    -4.890136  -0.375477  4.743207
H    -4.470898  0.078073  2.703569
H    -5.638041  -1.157778  4.566958
H    -5.403014  0.569434  4.958097
H    -4.265554  -0.650138  5.596771
Pb    2.611547  -0.222330  4.520585
