36
Energy: -611335.436075 eV PBE+vdW (tier 2 basis)
C    -0.376543  -0.384157  2.280560
C    -1.055006  0.228785  3.467409
O    -0.483509  0.130049  4.613355
H    0.412366  0.292693  1.919775
H    -1.058270  -0.596317  1.449574
H    0.125221  -1.305478  2.598377
N    -2.220827  0.894438  3.439218
C    -2.611590  1.702731  2.300756
C    -1.950593  3.092442  2.504961
O    -1.549727  3.436173  3.660293
H    -4.151256  -2.411274  1.219428
H    -2.226565  1.277486  1.358030
C    -4.142619  1.855472  2.197401
C    -4.920568  0.599162  1.767062
C    -5.080961  -0.482078  2.850302
N    -6.153855  -1.439800  2.546668
C    -6.022285  -2.670049  2.032825
N    -7.060586  -3.516914  2.063944
N    -4.860934  -3.074289  1.498421
H    -4.372986  2.649219  1.474185
H    -4.522839  2.217484  3.166636
H    -4.470190  0.168567  0.857839
H    -5.927702  0.927218  1.470240
H    -5.347074  -0.014287  3.808241
H    -4.153859  -1.038648  3.034010
H    -7.103224  -1.135145  2.740065
H    -7.077844  -4.352386  1.490700
H    -7.863615  -3.350392  2.658859
H    -4.699303  -4.050080  1.279536
N    -1.794723  3.938264  1.492447
C    -2.176790  3.783031  0.091105
H    -1.369640  4.827769  1.756351
H    -2.246643  2.725479  -0.180128
H    -1.407819  4.246698  -0.535786
H    -3.137730  4.274182  -0.112221
Pb    -1.677884  1.939526  5.488417
