36
Energy: -611334.0352 eV PBE+vdW (tier 2 basis)
C    -0.064095  -0.230456  0.233192
C    -0.257565  0.002907  1.693237
O    0.699982  0.520131  2.366785
H    -0.936458  -0.679707  -0.252543
H    0.813575  -0.871768  0.077209
H    0.158819  0.733436  -0.246910
N    -1.429150  -0.309875  2.249810
C    -1.883590  0.008042  3.612357
C    -1.335909  -1.011966  4.631539
O    -0.097055  -0.883685  5.009567
H    -2.132002  -0.703164  1.627808
H    -1.378978  0.946522  3.893420
C    -3.404101  0.308406  3.642623
C    -4.366853  -0.422198  2.684821
C    -4.480172  -1.951069  2.749688
N    -4.620781  -2.409721  4.132746
C    -4.759714  -3.810760  4.456091
N    -4.958228  -4.648182  3.386364
N    -4.579772  -4.095688  5.691112
H    -3.508480  1.379467  3.422894
H    -3.735906  0.197512  4.683562
H    -4.165920  -0.137209  1.639072
H    -5.358555  0.011674  2.883905
H    -3.587840  -2.446658  2.332012
H    -5.324183  -2.239299  2.099840
H    -5.310721  -1.882749  4.670296
H    -5.516692  -4.333758  2.599342
H    -5.076432  -5.633294  3.600119
H    -4.784801  -5.073849  5.910585
N    -2.079864  -1.944951  5.148646
C    -1.606479  -2.876748  6.178057
H    -3.099417  -2.065327  4.821922
H    -2.493566  -3.363541  6.594250
H    -1.047826  -2.334424  6.948816
H    -0.950643  -3.635063  5.729750
Pb    1.629163  0.334983  4.395095
