36
Energy: -611334.543904 eV PBE+vdW (tier 2 basis)
C    0.997455  -0.899620  1.306652
C    0.796519  0.021468  2.459437
O    1.807494  0.610958  2.983093
H    1.238579  -0.326508  0.398883
H    0.136978  -1.546958  1.115855
H    1.878924  -1.518225  1.524341
N    -0.425230  0.249968  2.969170
C    -1.601304  0.548871  2.139183
C    -1.532101  2.058870  1.765936
O    -0.362080  2.688860  1.950395
H    -0.406755  0.755298  3.856814
H    -1.467160  -0.007558  1.199723
C    -2.916609  0.112534  2.827876
C    -3.834739  -0.791964  1.989136
C    -4.346384  -0.177017  0.677779
N    -4.977346  1.127325  0.856337
C    -6.280870  1.375388  0.956843
N    -7.188282  0.389592  1.046629
N    -6.709541  2.651154  0.971644
H    -3.464980  1.005987  3.153857
H    -2.652335  -0.439932  3.739410
H    -4.687618  -1.075907  2.623474
H    -3.318247  -1.731961  1.740801
H    -5.033846  -0.864048  0.166673
H    -3.516833  -0.016848  -0.026628
H    -4.275430  1.881707  1.017818
H    -6.911803  -0.572988  1.182669
H    -8.173345  0.568624  0.895345
H    -7.666395  2.885147  1.203825
N    -2.572196  2.615668  1.269972
C    -2.514152  4.003180  0.824316
H    -6.100999  3.405846  0.684146
H    -3.205008  4.138591  -0.017211
H    -1.511270  4.318169  0.510026
H    -2.843206  4.669155  1.636829
Pb    1.630850  2.891538  2.767399
