36
Energy: -611333.625605 eV PBE+vdW (tier 2 basis)
C    -1.481087  -2.592789  0.740343
C    -1.045072  -1.805388  1.926062
O    0.190905  -1.872565  2.285156
H    -0.939561  -2.240571  -0.148814
H    -2.557543  -2.520987  0.566719
H    -1.205776  -3.645873  0.886061
N    -1.922065  -1.054968  2.586890
C    -1.490534  -0.220053  3.701967
C    -0.917152  -1.067702  4.859824
O    0.314714  -0.833849  5.188264
H    -2.882813  -0.912353  2.168591
H    -0.593208  0.316189  3.345237
C    -2.431783  0.941168  4.111088
C    -3.730535  0.780073  4.924709
C    -5.052602  0.522098  4.172861
N    -5.342916  -0.856684  3.827243
C    -5.044531  -1.556057  2.689032
N    -4.602396  -0.762496  1.589567
N    -5.059079  -2.842418  2.723040
H    -2.639230  1.496473  3.182006
H    -1.774583  1.605109  4.691837
H    -3.614821  0.052816  5.739993
H    -3.862845  1.746480  5.433455
H    -5.102477  1.164215  3.280915
H    -5.873192  0.867517  4.815572
H    -5.756905  -1.444333  4.543890
H    -4.750530  -1.252469  0.707667
H    -5.045822  0.155881  1.524173
H    -4.968028  -3.279997  1.803903
N    -1.557147  -2.010245  5.517813
C    -2.890089  -2.593202  5.345864
H    -0.991448  -2.426694  6.261535
H    -2.788792  -3.682310  5.416176
H    -3.322301  -2.352757  4.373296
H    -3.553545  -2.256122  6.151024
Pb    1.865335  -1.203153  3.614466
