36
Energy: -611335.331595 eV PBE+vdW (tier 2 basis)
C    -0.792153  0.265325  1.146481
C    -0.934690  -0.089989  2.598852
O    -0.017492  0.332668  3.394114
H    -0.083307  1.094439  1.055654
H    -1.746739  0.540238  0.685403
H    -0.371771  -0.590487  0.596862
N    -1.918661  -0.809220  3.160983
C    -2.580778  -1.959220  2.555210
C    -1.552097  -3.123405  2.623463
O    -0.653486  -3.102048  3.516138
H    -4.441332  2.674701  -3.001887
H    -3.359683  -2.258444  3.281319
C    -3.325460  -1.763481  1.216714
C    -4.406036  -0.675668  1.322617
C    -5.314226  -0.547544  0.091055
N    -4.690838  0.071445  -1.089281
C    -4.846457  1.345496  -1.483375
N    -5.321780  2.273273  -0.643293
N    -4.505837  1.700213  -2.731107
H    -3.832664  -2.710900  0.968829
H    -2.623424  -1.553821  0.397834
H    -3.945693  0.295878  1.558048
H    -5.062244  -0.909434  2.175201
H    -6.212941  0.032356  0.340389
H    -5.678673  -1.535048  -0.224949
H    -4.201388  -0.539031  -1.734850
H    -5.643596  3.171468  -0.984995
H    -5.429520  2.091685  0.345816
H    -4.409437  1.013106  -3.469295
N    -1.635135  -4.151198  1.788370
C    -0.749571  -5.318709  1.855747
H    -2.377374  -4.156264  1.098152
H    -0.927976  -5.940607  0.974848
H    -0.952036  -5.903008  2.761712
H    0.296532  -4.994938  1.870273
Pb    -0.547998  -1.243754  5.022686
