36
Energy: -611335.90979 eV PBE+vdW (tier 2 basis)
C    1.737873  0.201039  0.977450
C    0.936916  0.177987  2.238196
O    1.516852  0.187451  3.360535
H    2.407917  -0.668713  0.960123
H    2.376848  1.094589  0.981447
H    1.122265  0.203267  0.071871
N    -0.409061  0.161801  2.145616
C    -1.266005  0.285155  3.322388
C    -1.419446  -1.073118  4.037473
O    -0.738070  -1.308683  5.084606
H    -0.827673  0.166645  1.218957
H    -0.702622  0.904939  4.026363
C    -2.589330  1.007282  3.029172
C    -3.453435  1.266143  4.278700
C    -2.874072  2.229377  5.326225
N    -1.714229  1.664890  6.027433
C    -0.548715  2.285917  6.311171
N    -0.521367  3.634257  6.324642
N    0.543657  1.541684  6.530540
H    -3.188434  0.444973  2.293815
H    -2.342725  1.963050  2.542332
H    -3.728579  0.316721  4.766831
H    -4.405681  1.698821  3.942638
H    -3.663430  2.487445  6.047539
H    -2.553895  3.161504  4.840449
H    -1.770307  0.697497  6.330123
H    0.360591  4.125396  6.410217
H    -1.358566  4.174243  6.514127
H    1.273196  2.068435  7.015292
N    -2.264990  -1.966169  3.548124
C    -2.494245  -3.308713  4.087278
H    -2.814040  -1.696528  2.735266
H    -2.353271  -4.049194  3.291569
H    -3.519040  -3.385954  4.470635
H    -1.786315  -3.495216  4.897372
Pb    1.378427  -0.452220  5.631483
