36
Energy: -611334.323443 eV PBE+vdW (tier 2 basis)
C    -0.336446  -0.819432  -1.149857
C    -0.478290  0.395645  -0.231909
O    0.723733  0.964527  0.040780
H    -1.272657  -1.288984  -1.467565
H    0.286046  -1.576165  -0.663443
H    0.212904  -0.487052  -2.037478
N    -1.055355  0.050784  1.184009
C    -1.897697  -1.117605  1.488267
C    -0.937823  -2.336172  1.536396
O    0.294557  -2.153963  1.756374
H    -1.498630  0.896203  1.545652
H    -2.195648  -0.981417  2.544489
C    -3.202975  -1.269394  0.673906
C    -4.285690  -0.189446  0.882440
C    -4.051150  1.242670  0.361617
N    -3.722512  1.323505  -1.069810
C    -2.497533  1.177941  -1.586737
N    -2.333550  0.813833  -2.860191
N    -1.379586  1.431493  -0.833115
H    -3.686970  -2.208837  0.979864
H    -2.981369  -1.395920  -0.394331
H    -4.520368  -0.096757  1.954716
H    -5.206672  -0.568600  0.416546
H    -3.278106  1.772935  0.930320
H    -4.968530  1.825449  0.507523
H    -4.509194  1.379576  -1.714721
H    -1.447464  1.007399  -3.315866
H    -3.097438  0.473490  -3.436547
H    -1.467836  2.243580  -0.222984
N    -1.421283  -3.562626  1.406289
C    -0.599183  -4.770693  1.541343
H    -2.416284  -3.682574  1.250970
H    0.237941  -4.738500  0.835118
H    -1.225579  -5.639734  1.325738
H    -0.201615  -4.850099  2.560192
Pb    1.325556  0.008542  1.947102
