36
Energy: -611333.204794 eV PBE+vdW (tier 2 basis)
C    0.598729  -2.077163  -0.203611
C    0.796829  -0.726783  0.384785
O    1.493042  0.146472  -0.240868
H    1.571343  -2.420733  -0.584753
H    0.210096  -2.808691  0.510396
H    -0.065128  -2.018127  -1.079677
N    0.262583  -0.391742  1.577252
C    -1.129066  -0.656529  1.946387
C    -2.012186  0.267723  1.076572
O    -1.491116  1.229053  0.390878
H    0.633599  0.475921  1.968382
H    -1.369486  -1.698657  1.689674
C    -1.373970  -0.463212  3.454806
C    -0.995808  0.910142  4.037512
C    -1.708125  1.218433  5.383413
N    -3.006493  1.854036  5.234614
C    -4.161924  1.223457  4.832744
N    -5.150746  2.043217  4.345668
N    -4.374781  -0.066772  4.806854
H    -0.829868  -1.259805  3.981582
H    -2.440309  -0.649939  3.628292
H    -1.253181  1.726420  3.342333
H    0.090762  0.961861  4.211863
H    -1.088625  1.905508  5.970683
H    -1.793057  0.302697  5.988794
H    -3.032718  2.859212  5.364957
H    -6.086813  1.654442  4.402853
H    -5.096328  3.044650  4.492717
H    -3.668598  -0.577048  5.342824
N    -3.318671  0.094384  1.033591
C    -4.143262  -0.924338  1.691689
H    -3.815336  0.782126  0.465378
H    -5.055490  -1.046990  1.100472
H    -4.409721  -0.618767  2.725137
H    -3.619042  -1.886089  1.722840
Pb    0.341968  2.081526  -0.655210
