36
Energy: -611335.62165 eV PBE+vdW (tier 2 basis)
C    -0.168929  -0.090037  -0.037709
C    -0.240332  -0.168927  1.452601
O    0.798439  0.022929  2.146718
H    0.519845  -0.864154  -0.403022
H    0.263029  0.877869  -0.324291
H    -1.140820  -0.212924  -0.527053
N    -1.432754  -0.439695  2.025159
C    -1.610338  -0.461425  3.475262
C    -1.096449  -1.771977  4.102277
O    0.012172  -1.731757  4.728873
H    -2.234059  -0.578415  1.415560
H    -0.886211  0.267640  3.850882
C    -2.986479  0.009986  3.965490
C    -3.234865  1.522969  3.814380
C    -2.098998  2.461768  4.265563
N    -1.566224  2.177295  5.601523
C    -0.345364  1.666614  5.880071
N    -0.144119  1.124237  7.104730
N    0.659648  1.613804  4.998291
H    -3.050568  -0.267281  5.028293
H    -3.802829  -0.531733  3.468978
H    -4.153911  1.762685  4.367536
H    -3.450722  1.779032  2.766407
H    -2.461396  3.497908  4.246952
H    -1.267983  2.425187  3.550780
H    -2.168766  2.402013  6.389014
H    0.791615  1.159055  7.493473
H    -0.901279  1.049816  7.774995
H    0.557250  2.299569  4.248781
N    -1.747807  -2.923732  4.023129
C    -3.033791  -3.232021  3.395577
H    -1.276844  -3.695534  4.497223
H    -3.866100  -3.060840  4.089789
H    -3.028007  -4.288856  3.111543
H    -3.181994  -2.642978  2.486079
Pb    1.808093  -0.300397  4.264765
