36
Energy: -611335.125777 eV PBE+vdW (tier 2 basis)
C    -0.667364  0.258461  0.934597
C    -0.420202  -0.048513  2.382834
O    0.426347  -1.061914  2.563968
H    0.280043  0.527822  0.448449
H    -1.377018  1.079812  0.806949
H    -1.039253  -0.638924  0.421642
N    -1.037127  0.640028  3.293231
C    -0.921787  0.394824  4.737267
C    0.510982  0.521228  5.273368
O    1.314742  -0.471802  5.381092
H    -3.677212  2.613913  2.243250
H    -1.460761  1.236063  5.204963
C    -1.648785  -0.876688  5.228859
C    -3.178982  -0.750553  5.108467
C    -3.751458  -0.985263  3.688582
N    -4.913031  -0.153508  3.379474
C    -4.854998  1.103151  2.909242
N    -6.002519  1.752578  2.646468
N    -3.682499  1.712344  2.705119
H    -1.394692  -1.033954  6.286728
H    -1.300364  -1.770239  4.687268
H    -3.476919  0.251275  5.453164
H    -3.650185  -1.455610  5.805254
H    -4.068322  -2.027824  3.567385
H    -2.996567  -0.803656  2.915793
H    -5.828598  -0.513135  3.626574
H    -6.005323  2.718312  2.344275
H    -6.897393  1.279776  2.667548
H    -2.746871  1.298242  2.916021
N    0.898159  1.722883  5.667551
C    2.218708  2.066574  6.194732
H    0.218989  2.475419  5.584723
H    2.096220  2.762834  7.030835
H    2.826130  2.546275  5.416172
H    2.716902  1.159659  6.545094
Pb    1.755192  -2.079432  3.889747
