36
Energy: -611333.294952 eV PBE+vdW (tier 2 basis)
C    -1.288086  -0.848235  -0.096765
C    -0.954126  -1.069034  1.320485
O    0.255270  -1.341007  1.681080
H    -1.661107  0.174815  -0.263723
H    -2.137236  -1.519469  -0.389986
H    -0.405822  -1.009790  -0.721155
N    -1.895221  -1.012645  2.290867
C    -2.910686  0.028637  2.365544
C    -2.174036  1.344736  2.712115
O    -0.935563  1.355008  3.051108
H    -1.600163  -1.398168  3.189700
H    -3.374022  0.147658  1.368486
C    -4.028034  -0.319648  3.391076
C    -5.446602  0.071684  2.930428
C    -6.242090  -1.063685  2.234322
N    -5.465579  -1.950714  1.376183
C    -4.785620  -1.630427  0.227801
N    -4.915943  -0.305006  -0.204098
N    -3.964744  -2.395205  -0.422354
H    -3.801170  0.155960  4.355148
H    -3.987431  -1.405167  3.558469
H    -5.402868  0.948906  2.265711
H    -6.038858  0.391773  3.797390
H    -7.099082  -0.626002  1.696689
H    -6.679273  -1.708281  3.006228
H    -5.455707  -2.932399  1.623585
H    -4.594881  -0.220629  -1.167189
H    -5.845939  0.096534  -0.099487
H    -3.897126  -3.334748  -0.021851
N    -2.863213  2.468441  2.660191
C    -2.368700  3.810081  2.979581
H    -3.839133  2.395463  2.377255
H    -2.334035  4.419395  2.067980
H    -1.369582  3.736755  3.412679
H    -3.048216  4.280621  3.699311
Pb    1.026377  0.176189  3.157828
