36
Energy: -611334.486705 eV PBE+vdW (tier 2 basis)
C    -0.582904  0.217577  2.560263
C    -1.241710  -0.260926  3.808107
O    -0.564933  -0.359528  4.890542
H    -1.231180  0.888027  1.987142
H    -0.337457  -0.646524  1.920220
H    0.353609  0.720915  2.819005
N    -2.536963  -0.631922  3.819652
C    -3.142987  -1.536246  2.808295
C    -2.204867  -2.754759  2.649734
O    -1.586458  -3.164860  3.773452
H    -2.904893  -0.762047  4.761170
H    -4.049367  -1.905622  3.313869
C    -3.581681  -0.865563  1.500046
C    -4.781055  -1.591384  0.841318
C    -4.650419  -1.760600  -0.669871
N    -3.550073  -2.683709  -0.964487
C    -3.269471  -3.160601  -2.175231
N    -3.920499  -2.717219  -3.260919
N    -2.313761  -4.098146  -2.320652
H    -2.729972  -0.821534  0.808477
H    -3.860841  0.170923  1.727937
H    -5.705976  -1.036138  1.041076
H    -4.923211  -2.588281  1.284066
H    -4.468480  -0.781633  -1.146281
H    -5.591144  -2.165694  -1.073383
H    -2.963711  -2.960955  -0.148273
H    -3.793744  -3.149260  -4.167556
H    -4.560898  -1.936236  -3.209588
H    -2.038237  -4.433978  -3.234530
N    -2.089418  -3.326006  1.509098
C    -1.257468  -4.514257  1.366214
H    -1.950646  -4.592616  -1.517270
H    -1.873749  -5.333883  0.967176
H    -0.800556  -4.860451  2.300646
H    -0.457032  -4.310326  0.639302
Pb    -0.474756  -2.575467  5.534504
