36
Energy: -611335.820855 eV PBE+vdW (tier 2 basis)
C    0.282659  -0.559885  0.409305
C    -0.386968  -0.838957  1.718020
O    -0.417594  -2.027622  2.165444
H    -0.160943  -1.206796  -0.359925
H    1.342913  -0.838499  0.481152
H    0.206399  0.483772  0.087291
N    -0.963601  0.189234  2.355966
C    -1.786569  0.213438  3.586605
C    -0.900576  0.058418  4.837145
O    -0.310029  -1.028055  5.098785
H    -0.875061  1.086690  1.887559
H    -2.217619  1.223177  3.585304
C    -2.939709  -0.812487  3.664670
C    -3.694609  -1.132168  2.365281
C    -4.207273  -2.584193  2.358881
N    -3.088033  -3.514581  2.554825
C    -2.861733  -4.263689  3.655289
N    -3.917715  -4.802956  4.295804
N    -1.600558  -4.439437  4.079229
H    -3.637548  -0.430539  4.423360
H    -2.530970  -1.738991  4.082066
H    -3.050506  -0.990350  1.485244
H    -4.547705  -0.456154  2.220893
H    -4.716454  -2.803116  1.411502
H    -4.932997  -2.739656  3.167021
H    -2.248846  -3.309717  2.017978
H    -3.796956  -5.272058  5.185213
H    -4.792255  -4.966530  3.809125
H    -1.507927  -5.248975  4.696652
N    -0.814762  1.104422  5.649884
C    -0.058801  1.130634  6.903217
H    -1.299429  1.956727  5.382089
H    -0.619741  1.709550  7.643817
H    0.921438  1.599150  6.747139
H    0.080840  0.107944  7.261961
Pb    0.299903  -3.095703  4.090262
