36
Energy: -611333.252763 eV PBE+vdW (tier 2 basis)
C    -0.515667  -0.017684  -0.256782
C    -0.383765  -0.280351  1.192966
O    0.775144  -0.388854  1.741605
H    -0.840640  1.022167  -0.427988
H    -1.289729  -0.674312  -0.700187
H    0.456011  -0.151926  -0.741301
N    -1.467061  -0.432999  1.984810
C    -2.639592  0.434846  1.976293
C    -2.222446  1.732990  2.703095
O    -1.083165  1.851364  3.283670
H    -1.268267  -0.863911  2.889873
H    -2.877430  0.706005  0.931195
C    -3.826791  -0.327596  2.619846
C    -5.255986  0.198378  2.423543
C    -5.724844  0.411380  0.961200
N    -5.277397  -0.615857  0.029332
C    -4.155882  -0.515514  -0.771347
N    -3.807226  0.793791  -1.141092
N    -3.374703  -1.471780  -1.152475
H    -3.640450  -0.437410  3.700027
H    -3.766429  -1.337201  2.190245
H    -5.436081  1.125472  2.991307
H    -5.912544  -0.543025  2.901689
H    -5.377892  1.380560  0.582431
H    -6.822203  0.462339  0.951334
H    -5.593978  -1.564207  0.207813
H    -3.137906  0.759094  -1.908130
H    -4.597758  1.382937  -1.398520
H    -3.652850  -2.388007  -0.790863
N    -3.065114  2.747225  2.715565
C    -2.813429  4.039535  3.364459
H    -3.954198  2.624159  2.238286
H    -3.723924  4.640096  3.297394
H    -1.995140  4.567371  2.859906
H    -2.554345  3.889140  4.418283
Pb    1.029299  0.987446  3.527803
