36
Energy: -611333.473418 eV PBE+vdW (tier 2 basis)
C    -1.789182  1.596182  -1.676608
C    -0.956520  0.902998  -0.658723
O    0.304684  1.122214  -0.608282
H    -1.909604  2.657374  -1.408592
H    -2.771590  1.136643  -1.817294
H    -1.237588  1.584156  -2.627191
N    -1.496692  0.041202  0.224534
C    -2.725472  0.300476  0.979707
C    -2.425925  1.481486  1.931161
O    -1.217709  1.882835  2.137198
H    -0.811795  -0.519194  0.735901
H    -3.514105  0.613818  0.279757
C    -3.196142  -0.966511  1.716580
C    -2.219433  -1.517845  2.781801
C    -2.881635  -1.747906  4.157584
N    -4.004546  -2.660939  4.128912
C    -5.315833  -2.249260  4.204736
N    -6.219461  -3.241713  4.459752
N    -5.600226  -0.989148  3.992688
H    -3.401899  -1.718173  0.943424
H    -4.164759  -0.752046  2.191429
H    -1.374715  -0.827867  2.964853
H    -1.770198  -2.458246  2.433046
H    -3.250498  -0.795726  4.560090
H    -2.125842  -2.136563  4.854962
H    -3.814591  -3.653754  4.197054
H    -7.200788  -3.001929  4.518600
H    -5.945600  -4.082876  4.954607
H    -6.594585  -0.812370  4.153722
N    -3.410798  2.094458  2.555397
C    -4.851271  1.823228  2.477558
H    -3.114831  2.840815  3.185683
H    -5.375246  2.703974  2.858730
H    -5.111810  0.936494  3.083970
H    -5.156759  1.663014  1.436766
Pb    0.951159  1.905193  1.443029
