36
Energy: -611335.099209 eV PBE+vdW (tier 2 basis)
C    0.595797  0.595150  1.099731
C    -0.352852  -0.229333  1.897587
O    0.075479  -1.087490  2.731477
H    1.003097  1.401167  1.729924
H    0.141644  1.030371  0.204290
H    1.449010  -0.034009  0.815907
N    -1.690279  -0.100161  1.756653
C    -2.427896  1.148516  1.667088
C    -2.243505  1.872904  3.018407
O    -1.901574  1.214595  4.052331
H    -2.226123  -0.812321  2.264545
H    -2.024070  1.752913  0.844833
C    -3.947950  0.870887  1.437337
C    -4.291140  -0.441123  0.695861
C    -4.776806  -1.582075  1.608787
N    -3.773159  -2.007665  2.604328
C    -3.950172  -2.067911  3.961983
N    -5.199118  -2.051204  4.458908
N    -2.863409  -2.106787  4.735266
H    -4.354795  1.723801  0.882161
H    -4.458277  0.880732  2.412726
H    -3.450482  -0.778118  0.072737
H    -5.111954  -0.244860  -0.007066
H    -5.076314  -2.445599  0.999712
H    -5.667649  -1.238535  2.148221
H    -3.039109  -2.628351  2.269351
H    -5.353720  -1.947961  5.455551
H    -5.992387  -2.362597  3.908540
H    -3.082196  -2.459063  5.671073
N    -2.482044  3.173580  3.116267
C    -2.925709  4.106986  2.078575
H    -2.383599  3.551347  4.059158
H    -2.607986  3.772107  1.086681
H    -2.469346  5.083213  2.270961
H    -4.017516  4.217214  2.093758
Pb    -0.888733  -0.799985  4.864622
