36
Energy: -611334.693715 eV PBE+vdW (tier 2 basis)
C    -1.805672  -0.425672  -0.981026
C    -1.161253  0.282156  0.163764
O    -0.317553  1.221137  -0.120632
H    -2.414509  0.309834  -1.528000
H    -2.449271  -1.254409  -0.675377
H    -1.042086  -0.784267  -1.681870
N    -1.444657  0.033965  1.424676
C    -2.190548  -1.039748  2.068577
C    -2.600198  -0.377518  3.417985
O    -1.908420  0.572748  3.816023
H    -1.152692  0.686626  2.188058
H    -3.064807  -1.313528  1.465942
C    -1.298293  -2.293640  2.365057
C    -0.098404  -2.499427  1.427898
C    1.128969  -1.666785  1.826991
N    2.135659  -1.670147  0.757617
C    3.077228  -0.736326  0.533356
N    4.211524  -1.125217  -0.078034
N    2.910409  0.558861  0.896148
H    -1.948687  -3.176008  2.323531
H    -0.937346  -2.232978  3.402318
H    -0.369670  -2.287241  0.383996
H    0.175292  -3.564509  1.451817
H    1.574237  -2.072376  2.749586
H    0.862274  -0.628419  2.039681
H    2.312726  -2.578758  0.335042
H    4.840346  -0.449221  -0.495747
H    4.477448  -2.101561  -0.151756
H    3.829530  0.999751  0.992318
N    -3.628998  -0.920781  4.073493
C    -4.087910  -0.467324  5.386777
H    -4.141453  -1.676379  3.629004
H    -3.431783  0.339047  5.723703
H    -4.050159  -1.295080  6.104662
H    -5.116860  -0.094863  5.318249
Pb    1.433421  2.299008  0.705895
