36
Energy: -611334.812727 eV PBE+vdW (tier 2 basis)
C    -1.290401  1.448590  -1.880574
C    -0.696169  0.701260  -0.740720
O    0.553042  0.455925  -0.706932
H    -1.002285  2.509342  -1.816388
H    -2.379831  1.361486  -1.931102
H    -0.845863  1.070569  -2.811187
N    -1.451390  0.274980  0.300204
C    -2.455244  1.078882  0.993377
C    -1.821623  2.445809  1.297071
O    -0.578002  2.506476  1.570149
H    -0.958118  -0.399091  0.912266
H    -3.372882  1.169307  0.397845
C    -2.735919  0.440501  2.379505
C    -2.870577  -1.088908  2.389766
C    -2.344324  -1.713938  3.678930
N    -0.923256  -1.438245  4.055895
C    0.187435  -1.748842  3.324621
N    1.115713  -2.521254  3.920825
N    0.365355  -1.250072  2.084573
H    -3.632887  0.911828  2.800944
H    -1.902598  0.721294  3.042149
H    -2.375909  -1.554604  1.528164
H    -3.925158  -1.384298  2.302147
H    -2.492514  -2.803422  3.631971
H    -2.926489  -1.346497  4.533928
H    -0.788836  -1.596892  5.052601
H    2.053487  -2.608878  3.544289
H    0.888889  -3.111576  4.715115
H    1.010361  -1.850490  1.558479
N    -2.562694  3.541381  1.331643
C    -4.000959  3.662215  1.062703
H    -2.064155  4.388022  1.605833
H    -4.256716  4.724938  1.076645
H    -4.595361  3.154467  1.831900
H    -4.252839  3.265158  0.072277
Pb    1.240432  0.986657  1.478246
