36
Energy: -611335.744512 eV PBE+vdW (tier 2 basis)
C    0.123016  1.152824  0.515609
C    0.007745  0.789708  1.960278
O    0.976477  1.007574  2.744183
H    0.930999  0.561450  0.063069
H    0.420144  2.206785  0.435401
H    -0.801072  0.991809  -0.049315
N    -1.147920  0.245261  2.393665
C    -1.397942  -0.086977  3.796462
C    -0.792656  -1.454617  4.157742
O    0.371787  -1.490548  4.664362
H    -1.879634  0.078780  1.707277
H    -0.777971  0.613721  4.363028
C    -2.846523  0.134542  4.246742
C    -3.254421  1.614473  4.375687
C    -2.253095  2.538326  5.099952
N    -1.757782  2.022701  6.380781
C    -0.505933  1.573033  6.631059
N    -0.313857  0.799220  7.726738
N    0.540739  1.798255  5.829603
H    -2.950772  -0.355121  5.225998
H    -3.561495  -0.372937  3.579307
H    -4.226284  1.647909  4.887490
H    -3.428897  2.060744  3.385581
H    -2.727484  3.512439  5.276298
H    -1.389558  2.741692  4.455117
H    -2.416795  2.020909  7.154947
H    0.594618  0.829758  8.176071
H    -1.091983  0.531918  8.319380
H    0.396480  2.611015  5.228161
N    -1.485533  -2.559613  3.929383
C    -1.020724  -3.923502  4.193921
H    -2.425901  -2.457179  3.555766
H    -1.093488  -4.517956  3.275847
H    -1.643657  -4.384112  4.970184
H    0.017594  -3.888252  4.530013
Pb    1.952026  0.246594  4.748054
