36
Energy: -611334.405317 eV PBE+vdW (tier 2 basis)
C    0.112592  1.580069  0.691979
C    0.091776  0.673428  1.876240
O    1.190834  0.413104  2.477490
H    -0.885868  1.771588  0.285498
H    0.740392  1.131987  -0.090905
H    0.579100  2.533635  0.971748
N    -1.065029  0.147297  2.282152
C    -1.175892  -0.847315  3.352814
C    -2.430418  -1.753586  3.245289
O    -2.287451  -2.944514  3.485852
H    -1.878854  0.312098  1.693164
H    -0.366447  -1.581340  3.189401
C    -1.032588  -0.223985  4.762853
C    -0.510817  -1.238952  5.789324
C    -0.067105  -0.643880  7.136327
N    1.391470  -0.437262  7.349610
C    2.124681  0.596084  6.840455
N    2.915035  1.288433  7.674141
N    2.064520  0.843081  5.524537
H    -2.006690  0.160554  5.098245
H    -0.368110  0.649587  4.709972
H    0.329838  -1.846178  5.376981
H    -1.275157  -2.009629  5.963503
H    -0.360001  -1.327916  7.939511
H    -0.594325  0.304442  7.319057
H    1.693494  -0.740408  8.272520
H    3.656970  1.886658  7.325750
H    2.775263  1.273372  8.679525
H    2.409274  1.768009  5.259538
N    -3.600361  -1.157386  2.903485
C    -4.847536  -1.922364  2.810044
H    -3.685345  -0.146761  2.954332
H    -4.615009  -2.925921  2.442348
H    -5.522037  -1.421539  2.108808
H    -5.336732  -2.011372  3.789010
Pb    2.245378  -0.868493  3.999979
