36
Energy: -611333.745087 eV PBE+vdW (tier 2 basis)
C    -0.201027  -1.715913  0.041670
C    -0.204574  -0.765588  1.189520
O    0.878315  -0.168662  1.509236
H    0.105254  -1.173805  -0.864367
H    -1.174700  -2.185622  -0.131900
H    0.554561  -2.493700  0.216225
N    -1.343006  -0.542938  1.855379
C    -1.486121  0.452933  2.923508
C    -0.738294  -0.008334  4.189034
O    0.363475  0.591447  4.497587
H    -2.180006  -1.023034  1.532684
H    -0.946234  1.354292  2.589455
C    -2.943877  0.846585  3.192548
C    -3.711418  1.404653  1.987749
C    -5.188912  1.694467  2.350958
N    -5.850671  0.550864  2.970067
C    -5.922305  0.375376  4.350079
N    -6.468810  1.433412  5.028223
N    -5.453440  -0.728822  4.857864
H    -2.921364  1.595745  3.998839
H    -3.498107  -0.008502  3.601552
H    -3.698446  0.687727  1.149412
H    -3.250717  2.329871  1.608055
H    -5.725138  1.993524  1.439958
H    -5.244944  2.538934  3.049225
H    -5.718284  -0.341010  2.499739
H    -7.194603  1.975913  4.570397
H    -6.560293  1.358218  6.034518
H    -5.734978  -0.844821  5.836577
N    -1.168415  -0.974665  4.976091
C    -2.327221  -1.869420  4.845593
H    -0.567484  -1.133267  5.786794
H    -2.195575  -2.677259  5.570613
H    -2.358728  -2.312645  3.843795
H    -3.289100  -1.361713  5.040625
Pb    2.003926  1.056993  3.042874
