36
Energy: -611332.938819 eV PBE+vdW (tier 2 basis)
C    -1.220718  -2.080096  0.354294
C    -0.781726  -0.867246  1.095364
O    0.514460  -0.603852  1.147384
H    -2.301350  -2.074884  0.166976
H    -0.957025  -2.978018  0.933038
H    -0.683668  -2.139764  -0.600681
N    -1.588198  -0.048340  1.700242
C    -3.045938  -0.073430  1.813832
C    -3.336472  1.404461  2.184948
O    -2.382265  2.112155  2.554494
H    -1.277336  0.861689  2.145714
H    -3.500766  -0.347954  0.837824
C    -3.472520  -1.094290  2.900489
C    -4.976730  -1.285380  3.146248
C    -5.803901  -1.823155  1.970663
N    -6.272343  -0.800936  1.016914
C    -5.858883  -0.792894  -0.304142
N    -6.737571  -0.240035  -1.191183
N    -4.658254  -1.230012  -0.589039
H    -2.991804  -0.807011  3.847671
H    -3.047583  -2.068952  2.615033
H    -5.433788  -0.366418  3.541017
H    -5.058193  -2.017829  3.962717
H    -6.695397  -2.324383  2.371206
H    -5.236764  -2.571953  1.403036
H    -7.229542  -0.496073  1.168353
H    -6.470010  -0.162843  -2.164532
H    -7.735106  -0.228315  -1.009136
H    -4.486769  -1.199782  -1.597171
N    -4.603220  1.811696  2.073132
C    -5.052503  3.161565  2.399618
H    -5.283389  1.134719  1.724994
H    -5.515981  3.628445  1.522037
H    -4.186819  3.752814  2.709016
H    -5.781703  3.134078  3.219018
Pb    2.546637  -0.095353  1.279129
