36
Energy: -611335.645255 eV PBE+vdW (tier 2 basis)
C    -0.388229  1.097672  -1.376621
C    -1.204846  1.560716  -0.214764
O    -2.117245  2.420477  -0.386508
H    0.156656  1.954714  -1.795469
H    -1.062547  0.735589  -2.163878
H    0.324914  0.307820  -1.118529
N    -0.952295  1.030434  0.999985
C    -1.763235  1.361679  2.167555
C    -1.224922  2.643147  2.838522
O    -1.680847  3.771304  2.471734
H    -0.198782  0.352642  1.081742
H    -2.723916  1.671771  1.752132
C    -2.074888  0.194711  3.109359
C    -3.224638  0.590142  4.060229
C    -4.664217  0.240446  3.619599
N    -5.045590  0.424706  2.205584
C    -5.095973  1.567134  1.485321
N    -5.434650  1.464916  0.168227
N    -4.739639  2.769407  1.933538
H    -1.192129  -0.115308  3.688956
H    -2.351315  -0.677335  2.499581
H    -3.148417  1.661847  4.301389
H    -3.094271  0.081423  5.024470
H    -5.372853  0.776354  4.269741
H    -4.832861  -0.827007  3.803404
H    -5.554090  -0.361687  1.812395
H    -5.946037  2.241422  -0.237079
H    -5.651344  0.559164  -0.233595
H    -4.689125  2.826503  2.951134
N    -0.278541  2.547907  3.758954
C    0.364444  3.676180  4.437112
H    0.024289  1.614583  4.026154
H    0.158382  3.627389  5.513057
H    -0.028392  4.609643  4.029011
H    1.447955  3.629237  4.276878
Pb    -3.217923  4.168018  0.750903
