36
Energy: -611332.94586 eV PBE+vdW (tier 2 basis)
C    -1.804203  -0.107634  -0.647763
C    -1.254766  0.266665  0.693946
O    0.062129  0.641038  0.637422
H    -1.646692  0.717461  -1.354830
H    -2.872605  -0.340142  -0.602275
H    -1.270937  -0.983389  -1.041831
N    -1.812241  0.299684  1.838948
C    -3.202258  -0.077550  2.067040
C    -3.720260  0.919445  3.106244
O    -2.816861  1.596066  3.783652
H    -1.949218  1.327893  3.369556
H    -3.825440  0.023025  1.168553
C    -3.277535  -1.535980  2.626556
C    -3.422954  -2.655904  1.581703
C    -4.841146  -2.973437  1.070915
N    -5.460856  -1.947726  0.232192
C    -6.148280  -0.868909  0.726476
N    -6.431619  0.125366  -0.171138
N    -6.438846  -0.670649  1.989317
H    -4.099179  -1.598766  3.352311
H    -2.356131  -1.693699  3.204996
H    -3.058902  -3.582300  2.050742
H    -2.755603  -2.482179  0.724319
H    -5.499046  -3.225425  1.918064
H    -4.791230  -3.885552  0.463830
H    -5.603211  -2.187280  -0.743117
H    -7.212134  0.727202  0.068232
H    -6.294172  -0.034117  -1.161975
H    -6.343608  -1.526971  2.536906
N    -4.981759  1.087122  3.328537
C    -5.513206  2.002315  4.340232
H    -5.684568  0.444440  2.752509
H    -6.603501  1.993581  4.262409
H    -5.141480  3.020353  4.173237
H    -5.218528  1.680882  5.347146
Pb    2.029417  1.161897  0.840400
