36
Energy: -611333.686837 eV PBE+vdW (tier 2 basis)
C    0.066665  -0.353604  -0.850274
C    0.086252  -0.589407  0.615003
O    1.203512  -0.670261  1.243057
H    0.600885  0.573752  -1.099548
H    -0.945976  -0.347010  -1.262653
H    0.642301  -1.168235  -1.318258
N    -1.057696  -0.708875  1.314856
C    -2.196450  0.201372  1.156825
C    -1.652806  1.599130  1.452823
O    -0.663942  1.752610  2.281163
H    -0.950882  -1.110543  2.250456
H    -2.631244  0.106772  0.120822
C    -3.288969  -0.258697  2.151904
C    -4.654455  0.430952  2.119556
C    -5.487166  0.267027  0.828332
N    -5.419841  -1.042841  0.201629
C    -4.729273  -1.257847  -0.965082
N    -5.095177  -2.377765  -1.658145
N    -3.764252  -0.434886  -1.308829
H    -2.886752  -0.188565  3.176837
H    -3.433501  -1.327778  1.933347
H    -4.569462  1.505479  2.344899
H    -5.217994  0.007308  2.963602
H    -5.179764  0.990232  0.067047
H    -6.535513  0.489314  1.069220
H    -6.112151  -1.732836  0.467787
H    -4.611956  -2.595397  -2.520298
H    -6.040740  -2.737832  -1.590769
H    -3.433420  -0.642472  -2.252996
N    -2.155892  2.682983  0.898593
C    -3.182771  2.803773  -0.139532
H    -1.739038  3.555912  1.227976
H    -3.380878  1.831745  -0.607207
H    -2.817250  3.504033  -0.899425
H    -4.105133  3.210054  0.293655
Pb    1.260370  0.813181  2.976880
