36
Energy: -611335.490626 eV PBE+vdW (tier 2 basis)
C    -0.238034  -0.890506  0.132323
C    -0.188403  -0.542327  1.584036
O    0.919799  -0.272040  2.131363
H    -1.251127  -1.095528  -0.229286
H    0.397246  -1.767911  -0.048163
H    0.191392  -0.062208  -0.447050
N    -1.343829  -0.521990  2.281315
C    -1.369040  -0.102790  3.678808
C    -0.865639  -1.217034  4.609357
O    0.262413  -1.049229  5.183177
H    -2.207227  -0.742392  1.792899
H    -0.577388  0.654506  3.735088
C    -2.648716  0.633974  4.149350
C    -2.278661  2.058061  4.599752
C    -1.287027  2.063992  5.788458
N    -0.350546  3.185624  5.779137
C    0.630348  3.379353  4.872850
N    1.119700  4.633220  4.756488
N    1.081358  2.381643  4.092246
H    -3.138584  0.089280  4.967863
H    -3.380834  0.686142  3.331246
H    -3.186954  2.614260  4.863880
H    -1.827258  2.586364  3.747425
H    -0.710322  1.131435  5.838775
H    -1.828495  2.119032  6.739881
H    -0.526027  3.939936  6.433823
H    0.649840  5.433664  5.163885
H    2.011157  4.805970  4.308903
H    1.591041  2.787191  3.302649
N    -1.549337  -2.326805  4.837727
C    -2.841904  -2.748601  4.300872
H    -1.082012  -2.984612  5.464237
H    -2.704525  -3.596676  3.618137
H    -3.332263  -1.931221  3.767993
H    -3.492550  -3.061019  5.125987
Pb    1.985466  0.177197  4.194633
