36
Energy: -611333.608381 eV PBE+vdW (tier 2 basis)
C    0.487353  1.326895  0.642406
C    -0.073493  0.956102  1.972385
O    -0.470174  1.905170  2.766498
H    1.126220  2.212833  0.733375
H    -0.355802  1.608657  -0.008684
H    1.031718  0.512003  0.149946
N    -0.172985  -0.322763  2.292871
C    -0.871976  -0.979623  3.405870
C    -0.617382  -0.385250  4.784195
O    0.399151  0.360486  5.042816
H    0.141473  -1.028358  1.562105
H    -1.957001  -0.909103  3.213790
C    -0.443205  -2.479919  3.410160
C    -1.145215  -3.394937  2.386391
C    -1.182046  -2.929707  0.924954
N    0.133126  -2.435350  0.481725
C    0.325271  -1.798833  -0.786356
N    -0.826148  -1.309395  -1.371983
N    1.472049  -1.516751  -1.283664
H    -0.621512  -2.904099  4.405852
H    0.648811  -2.497549  3.280867
H    -2.183762  -3.575570  2.700013
H    -0.644936  -4.372868  2.450613
H    -1.899382  -2.102916  0.811782
H    -1.550940  -3.760977  0.302250
H    0.883135  -3.106790  0.647626
H    -0.637391  -0.911522  -2.289688
H    -1.653113  -1.898715  -1.367673
H    2.258450  -1.860239  -0.726144
N    -1.440914  -0.691765  5.775689
C    -2.627259  -1.552376  5.777598
H    -1.148570  -0.332591  6.685581
H    -3.102064  -1.571339  4.792560
H    -3.342534  -1.149540  6.501862
H    -2.361907  -2.575285  6.075437
Pb    0.612182  2.547842  4.570964
