36
Energy: -611333.832216 eV PBE+vdW (tier 2 basis)
C    -1.550863  0.133200  -1.743305
C    -1.230042  -0.633085  -0.508857
O    -0.228507  -1.468651  -0.541934
H    -0.732045  0.848718  -1.918797
H    -2.503792  0.684389  -1.676776
H    -1.559935  -0.542432  -2.608236
N    -1.954324  -0.424040  0.574072
C    -1.855834  -0.939325  1.946237
C    -1.090837  -2.236921  2.143797
O    -1.282697  -3.273026  1.408860
H    -2.786756  0.255201  0.491422
H    -1.354510  -0.163009  2.549455
C    -3.303247  -1.155105  2.494568
C    -4.008627  0.082819  3.089200
C    -3.937259  1.410484  2.321440
N    -4.144381  1.227607  0.879192
C    -4.114084  2.332539  -0.039750
N    -3.904654  3.565001  0.518539
N    -4.185834  2.003982  -1.278860
H    -3.270384  -1.919331  3.283476
H    -3.890471  -1.599822  1.678897
H    -3.620400  0.276047  4.099327
H    -5.061137  -0.204351  3.230723
H    -2.951392  1.881541  2.455163
H    -4.675155  2.090679  2.780085
H    -4.952813  0.648306  0.649639
H    -4.261314  3.776102  1.444349
H    -3.892355  4.359014  -0.112512
H    -4.250515  2.810790  -1.904164
N    -0.310081  -2.303828  3.209151
C    0.359339  -3.509273  3.700918
H    -0.187432  -1.452983  3.754321
H    0.347031  -3.495034  4.795645
H    1.404519  -3.532534  3.364221
H    -0.171451  -4.395740  3.343950
Pb    -0.275398  -3.653908  -0.556277
