36
Energy: -611335.634043 eV PBE+vdW (tier 2 basis)
C    -1.713258  -2.192711  0.966636
C    -1.700145  -1.711863  2.386010
O    -1.585673  -2.551425  3.323182
H    -1.895914  -1.400720  0.232963
H    -2.484262  -2.966764  0.860383
H    -0.749741  -2.671605  0.744740
N    -1.832971  -0.389689  2.589145
C    -1.927310  0.377963  3.849164
C    -0.558505  0.424631  4.562820
O    -0.104959  -0.578249  5.188179
H    -1.918115  0.166719  1.743758
H    -2.183101  1.393116  3.517882
C    -2.981312  -0.097746  4.865639
C    -4.347151  -0.575920  4.351378
C    -5.062101  -1.479233  5.378751
N    -4.734403  -2.912741  5.269384
C    -3.590080  -3.530521  5.618240
N    -3.355379  -4.777012  5.115181
N    -2.621533  -3.005070  6.374235
H    -3.125273  0.736054  5.569219
H    -2.527606  -0.897557  5.449678
H    -4.253671  -1.132892  3.408982
H    -4.994491  0.285405  4.136796
H    -6.146127  -1.420478  5.232421
H    -4.883844  -1.131009  6.407545
H    -5.472521  -3.502470  4.897015
H    -2.891846  -5.439412  5.728994
H    -3.995844  -5.185676  4.442631
H    -2.934927  -2.222963  6.949797
N    0.110432  1.569195  4.518996
C    1.407808  1.809152  5.153759
H    -0.302185  2.340601  4.001350
H    1.408314  2.812035  5.592968
H    2.212439  1.741106  4.410418
H    1.570173  1.063266  5.935441
Pb    -0.504191  -2.909650  5.340712
