36
Energy: -611333.672697 eV PBE+vdW (tier 2 basis)
C    -0.711142  -1.322508  0.067515
C    -0.778052  -0.752793  1.440435
O    0.274746  -0.185264  1.916589
H    0.152002  -1.997854  -0.002684
H    -0.549685  -0.502304  -0.646077
H    -1.622488  -1.863202  -0.203264
N    -1.907680  -0.845255  2.139457
C    -2.094750  -0.200611  3.438320
C    -1.148799  -0.815447  4.490742
O    -0.167810  -0.098532  4.924043
H    -2.789608  -1.025345  1.588968
H    -1.745351  0.840584  3.341232
C    -3.581173  -0.120321  3.919093
C    -4.676706  -0.945708  3.213248
C    -5.260105  -0.373699  1.913804
N    -4.317430  -0.398039  0.772896
C    -3.684727  0.761812  0.240099
N    -3.548548  1.824492  1.138698
N    -3.102421  0.822223  -0.896037
H    -3.859084  0.939630  3.876899
H    -3.593535  -0.372811  4.988335
H    -5.509512  -1.025125  3.927456
H    -4.359176  -1.982969  3.030549
H    -5.657265  0.637656  2.081529
H    -6.128899  -0.983176  1.635068
H    -4.647083  -0.992295  0.015280
H    -3.180030  2.633643  0.639926
H    -4.396355  2.081111  1.639836
H    -3.216763  -0.023300  -1.461003
N    -1.294833  -2.026911  4.990265
C    -2.311473  -3.040801  4.703580
H    -0.601993  -2.267822  5.701364
H    -1.895648  -4.017418  4.968526
H    -2.559824  -3.045265  3.638764
H    -3.215519  -2.870104  5.301391
Pb    1.264807  0.936920  3.550881
