36
Energy: -611333.359763 eV PBE+vdW (tier 2 basis)
C    -0.336223  1.387331  -0.231680
C    -0.137414  0.843360  1.135888
O    1.023913  0.862114  1.684570
H    -0.961325  2.294864  -0.203134
H    -0.874222  0.661620  -0.859742
H    0.632061  1.640140  -0.671980
N    -1.166591  0.322031  1.833487
C    -2.469431  0.974432  1.947003
C    -2.259888  2.226092  2.819451
O    -1.174089  2.376500  3.514494
H    -0.890518  -0.225240  2.651093
H    -2.812533  1.317908  0.947711
C    -3.518206  0.018091  2.553718
C    -3.651174  -1.367808  1.887335
C    -3.728067  -1.429241  0.345680
N    -4.467404  -0.312562  -0.243595
C    -3.883061  0.614844  -1.083947
N    -3.160089  0.074990  -2.127354
N    -3.987405  1.880281  -0.786777
H    -4.482245  0.541006  2.524754
H    -3.301244  -0.133590  3.623456
H    -4.557428  -1.818043  2.317317
H    -2.829168  -2.027528  2.202693
H    -4.175901  -2.394300  0.066960
H    -2.719772  -1.418418  -0.089076
H    -5.203775  0.096616  0.321929
H    -2.824811  0.725725  -2.830281
H    -3.495466  -0.802336  -2.517493
H    -3.723157  2.486304  -1.569289
N    -3.175103  3.167359  2.894038
C    -4.464076  3.264239  2.194335
H    -2.948527  3.924880  3.541122
H    -4.656611  4.324840  2.001899
H    -5.267314  2.876486  2.834442
H    -4.428493  2.734837  1.229395
Pb    1.015385  1.897892  3.713253
