36
Energy: -611334.684585 eV PBE+vdW (tier 2 basis)
C    0.250465  0.762419  -0.242783
C    0.098746  0.433150  1.208177
O    1.112568  0.032050  1.913078
H    0.976995  1.578598  -0.368582
H    -0.692450  1.071535  -0.704506
H    0.632348  -0.117283  -0.779160
N    -1.080987  0.544270  1.768338
C    -1.522680  0.234381  3.128770
C    -3.048222  -0.018443  2.898793
O    -3.537084  0.357901  1.827281
H    -1.946048  0.739243  1.204311
H    -1.024043  -0.680506  3.478223
C    -1.312423  1.416551  4.129957
C    -0.239175  1.227385  5.212835
C    1.165518  1.093137  4.632891
N    2.203285  0.995380  5.646461
C    3.451727  0.577609  5.390307
N    4.328684  0.522153  6.410467
N    3.831492  0.221122  4.139602
H    -2.264882  1.615551  4.637329
H    -1.106447  2.323381  3.543146
H    -0.468740  0.342663  5.826224
H    -0.288889  2.099977  5.882405
H    1.372712  1.953562  3.969068
H    1.207246  0.182238  4.030832
H    2.007491  1.371518  6.569407
H    5.297215  0.266511  6.265034
H    4.056740  0.729372  7.364711
H    4.802659  -0.101157  4.168056
N    -3.761001  -0.604506  3.873156
C    -3.305384  -1.088389  5.170119
H    -4.753979  -0.683372  3.662289
H    -2.299580  -1.519606  5.100046
H    -3.978474  -1.885339  5.501448
H    -3.309466  -0.296162  5.932627
Pb    3.341593  0.165165  1.893267
