36
Energy: -611334.13388 eV PBE+vdW (tier 2 basis)
C    -0.080557  0.233196  0.601219
C    -0.628945  1.063433  1.762948
O    0.369090  1.480165  2.587016
H    -0.792863  -0.017314  -0.189692
H    0.346620  -0.698632  0.982485
H    0.741926  0.810783  0.164748
N    -1.589829  0.274246  2.735311
C    -2.440517  -0.875914  2.368352
C    -1.543602  -2.137237  2.492554
O    -0.332778  -2.014586  2.845129
H    -2.162898  0.979272  3.201448
H    -3.169317  -0.971319  3.194149
C    -3.260481  -0.723010  1.061417
C    -4.484611  0.209748  1.132473
C    -4.268204  1.728502  1.274682
N    -3.472087  2.324701  0.189845
C    -2.136031  2.327861  0.132324
N    -1.501383  2.438251  -1.036154
N    -1.387388  2.256629  1.278650
H    -3.641222  -1.708235  0.771215
H    -2.600267  -0.435695  0.235069
H    -5.138791  -0.091976  1.966117
H    -5.077065  0.038178  0.221887
H    -3.813201  1.995779  2.236253
H    -5.242082  2.232075  1.261697
H    -3.985817  2.634938  -0.633314
H    -0.533661  2.744392  -1.043750
H    -1.975596  2.344656  -1.929373
H    -1.763630  2.804007  2.051753
N    -2.032685  -3.359171  2.298826
C    -3.407307  -3.812915  2.077767
H    -1.332979  -4.091145  2.423107
H    -4.130190  -3.124632  2.527289
H    -3.523389  -4.785003  2.568308
H    -3.623698  -3.939677  1.009099
Pb    0.468772  -0.120694  4.101392
