36
Energy: -611333.995761 eV PBE+vdW (tier 2 basis)
C    -1.320221  0.646527  -0.154449
C    -1.055134  0.321952  1.276704
O    0.164900  0.202944  1.656619
H    -2.385532  0.741299  -0.387953
H    -0.882969  -0.146564  -0.778325
H    -0.802304  1.578154  -0.419288
N    -2.088493  0.153700  2.098944
C    -2.152441  -0.331966  3.496052
C    -1.625061  0.678435  4.513108
O    -0.378986  1.010471  4.585624
H    -3.006759  0.268386  1.670700
H    -3.231326  -0.381567  3.661294
C    -1.609930  -1.763178  3.677513
C    -1.766380  -2.383702  5.080680
C    -3.168234  -2.346136  5.755113
N    -4.311150  -2.470753  4.857047
C    -4.994609  -1.401866  4.308548
N    -5.072103  -0.249357  5.154401
N    -5.518808  -1.298654  3.140035
H    -0.548464  -1.828863  3.389453
H    -2.143750  -2.376209  2.937228
H    -1.052573  -1.930436  5.786791
H    -1.448958  -3.431029  4.979751
H    -3.285994  -1.416375  6.321378
H    -3.205821  -3.152496  6.499639
H    -4.373667  -3.330015  4.319133
H    -5.778477  0.366624  4.744854
H    -5.365220  -0.493770  6.103451
H    -5.369513  -2.131754  2.563020
N    -2.507373  1.155313  5.356737
C    -2.229563  2.094030  6.440072
H    -3.485322  0.763921  5.277329
H    -2.683807  1.716127  7.363438
H    -2.676734  3.068626  6.204690
H    -1.151939  2.209405  6.576529
Pb    1.449549  0.565029  3.420939
