36
Energy: -611333.331717 eV PBE+vdW (tier 2 basis)
C    -0.226555  -0.828007  0.421143
C    -0.397763  -0.286958  1.799622
O    0.539023  0.389695  2.332526
H    -0.074236  0.011385  -0.272152
H    -1.080895  -1.423095  0.082218
H    0.684434  -1.440090  0.382297
N    -1.544987  -0.516811  2.459175
C    -1.832602  0.088247  3.759802
C    -0.905623  -0.481290  4.857495
O    -0.086627  0.343042  5.406494
H    -2.285028  -1.016054  1.971577
H    -1.491136  1.133074  3.688639
C    -3.336215  0.225501  4.080810
C    -4.236108  -1.008449  4.201678
C    -5.733497  -0.624631  4.328873
N    -6.054320  0.147917  5.515241
C    -5.927854  1.523650  5.654266
N    -6.032242  2.258874  4.482946
N    -5.665228  2.145279  6.757718
H    -3.738356  0.896858  3.305961
H    -3.389203  0.808709  5.012068
H    -3.960207  -1.608221  5.080333
H    -4.153402  -1.668993  3.321482
H    -6.328034  -1.547747  4.351066
H    -6.049565  -0.074941  3.433668
H    -6.095882  -0.361204  6.391997
H    -6.042439  3.256820  4.682053
H    -6.779162  1.987853  3.848091
H    -5.573971  1.523763  7.566220
N    -0.873280  -1.741773  5.252462
C    -1.585181  -2.928270  4.779811
H    -0.188194  -1.909237  5.992847
H    -0.847632  -3.711386  4.566431
H    -2.148627  -2.713760  3.872007
H    -2.268960  -3.293926  5.555157
Pb    1.356459  1.556700  4.130504
