36
Energy: -611335.066259 eV PBE+vdW (tier 2 basis)
C    0.352467  0.363282  0.224531
C    0.255713  0.434110  1.707770
O    1.298527  0.531184  2.421308
H    0.517966  1.374215  -0.180886
H    -0.534001  -0.075048  -0.243881
H    1.243712  -0.220378  -0.038435
N    -0.951986  0.411408  2.336977
C    -2.097625  1.221180  1.926203
C    -1.636556  2.692849  1.882535
O    -0.760251  3.106035  2.706764
H    -0.857133  0.268297  3.350076
H    -2.451450  0.891847  0.938159
C    -3.245743  1.148353  2.958919
C    -3.665728  -0.241113  3.452774
C    -2.792847  -0.856353  4.558127
N    -2.548979  0.041128  5.700257
C    -1.328971  0.316628  6.215978
N    -1.244930  0.472877  7.551861
N    -0.244590  0.417624  5.414656
H    -4.112674  1.640640  2.499188
H    -2.975484  1.770329  3.827548
H    -3.721325  -0.962344  2.624436
H    -4.693294  -0.150522  3.833495
H    -1.816410  -1.191981  4.194333
H    -3.296420  -1.756257  4.940138
H    -3.335592  0.169678  6.332441
H    -0.427692  0.893617  7.977587
H    -1.954309  0.112849  8.182248
H    0.576566  0.108341  5.945914
N    -2.213699  3.503574  1.011272
C    -1.972036  4.943334  0.891557
H    -2.902554  3.097143  0.381667
H    -2.890869  5.493082  1.128917
H    -1.668285  5.178687  -0.134951
H    -1.181540  5.232879  1.586896
Pb    0.876577  2.136672  4.108774
