36
Energy: -611335.575188 eV PBE+vdW (tier 2 basis)
C    -0.350006  0.287419  1.135545
C    -0.984863  0.533289  2.464697
O    -0.781287  1.622906  3.070821
H    -0.621218  1.105687  0.455190
H    -0.638779  -0.668853  0.686913
H    0.742084  0.319160  1.249662
N    -1.780670  -0.423777  2.986514
C    -2.536992  -0.220921  4.217631
C    -1.705207  -0.538920  5.470731
O    -1.198175  0.448409  6.095728
H    -1.927228  -1.269700  2.442469
H    -2.642532  0.864986  4.297829
C    -3.972466  -0.748943  4.161260
C    -4.866532  0.143330  3.279441
C    -4.745583  1.654414  3.522439
N    -4.905290  2.018733  4.939564
C    -4.290548  3.063155  5.552498
N    -4.997110  3.707013  6.505202
N    -3.037354  3.430343  5.244464
H    -4.356886  -0.763838  5.191344
H    -4.019835  -1.786060  3.803268
H    -5.909474  -0.173617  3.423028
H    -4.656252  -0.027928  2.213678
H    -5.513557  2.169250  2.924992
H    -3.782127  2.056552  3.187498
H    -5.792880  1.744655  5.353920
H    -4.541512  4.331990  7.159459
H    -6.009608  3.664082  6.544838
H    -2.892676  4.397792  5.546026
N    -1.495506  -1.767312  5.918578
C    -1.977954  -3.043599  5.387600
H    -0.929840  -1.809336  6.767186
H    -2.978121  -3.281213  5.770925
H    -1.285206  -3.827614  5.707899
H    -1.991639  -3.037347  4.293693
Pb    -0.819534  2.588245  5.218838
