36
Energy: -611335.311093 eV PBE+vdW (tier 2 basis)
C    0.211349  -0.886076  0.917440
C    -0.421883  0.014753  1.927786
O    0.181315  1.059724  2.305311
H    0.485155  -0.295262  0.033466
H    -0.431357  -1.718693  0.612745
H    1.146839  -1.286052  1.332307
N    -1.641902  -0.314563  2.400990
C    -2.381297  0.519863  3.346393
C    -1.883267  0.297262  4.790863
O    -0.989516  1.070930  5.255142
H    -2.056660  -1.184623  2.077091
H    -2.060020  1.540972  3.137380
C    -3.906986  0.483690  3.181114
C    -4.504098  1.044405  1.866573
C    -3.869339  2.303164  1.225499
N    -3.342875  3.272719  2.201730
C    -2.042092  3.654468  2.252077
N    -1.327028  3.641765  1.103825
N    -1.396633  3.954000  3.390260
H    -4.311714  1.051563  4.032454
H    -4.297439  -0.538961  3.309566
H    -5.566206  1.236973  2.069108
H    -4.495996  0.272081  1.084989
H    -4.609812  2.777885  0.567972
H    -3.026220  1.995951  0.595516
H    -3.878327  3.404810  3.054088
H    -0.436679  4.126022  1.115978
H    -1.808317  3.663264  0.212062
H    -2.040290  4.045191  4.180859
N    -2.387510  -0.691664  5.511965
C    -1.991287  -1.030495  6.881568
H    -3.131980  -1.246708  5.097280
H    -2.807162  -0.793248  7.575499
H    -1.103656  -0.454216  7.150649
H    -1.770830  -2.102306  6.939072
Pb    0.412395  2.569055  4.094189
