36
Energy: -611333.617699 eV PBE+vdW (tier 2 basis)
C    -0.954378  -0.790805  -0.979897
C    -0.949510  -0.672764  0.506579
O    -0.019936  -0.017729  1.078837
H    -0.998988  0.218753  -1.412542
H    -1.790864  -1.383594  -1.364043
H    -0.006800  -1.236436  -1.311244
N    -1.936298  -1.249151  1.207697
C    -2.151757  -1.084454  2.651611
C    -1.099436  -1.886374  3.449717
O    -0.106122  -1.247025  3.948388
H    -2.672178  -1.713488  0.678857
H    -1.920822  -0.035831  2.896887
C    -3.629675  -1.317581  2.998588
C    -3.961822  -1.116492  4.481663
C    -5.469032  -1.247600  4.798029
N    -6.309728  -0.272107  4.136069
C    -6.911440  -0.460837  2.906905
N    -7.586039  0.620765  2.406506
N    -6.835207  -1.528624  2.158750
H    -3.950119  -2.313803  2.664053
H    -4.202889  -0.598980  2.394026
H    -3.620186  -0.120826  4.806152
H    -3.427586  -1.849851  5.107993
H    -5.606640  -1.135098  5.880869
H    -5.821156  -2.262471  4.556565
H    -6.537840  0.566373  4.658110
H    -8.185476  0.420197  1.613160
H    -7.890170  1.373625  3.012079
H    -6.416900  -2.317174  2.656428
N    -1.158188  -3.192655  3.644591
C    -2.146058  -4.179818  3.199705
H    -0.382961  -3.554223  4.202817
H    -1.665867  -5.162581  3.221586
H    -2.468163  -3.982584  2.173233
H    -3.013570  -4.201295  3.870930
Pb    1.112024  0.418301  2.994656
