36
Energy: -611335.144387 eV PBE+vdW (tier 2 basis)
C    1.276014  -4.235748  2.122325
C    1.436013  -2.979453  2.907594
O    2.589898  -2.590165  3.271717
H    1.535472  -4.052140  1.067734
H    0.266523  -4.654600  2.177905
H    2.003214  -4.968726  2.493871
N    0.365015  -2.226096  3.251121
C    -0.709221  -1.876085  2.332139
C    -0.114447  -0.975724  1.216901
O    1.008556  -0.401609  1.353693
H    0.596192  -1.504257  3.945672
H    -1.074190  -2.793007  1.847230
C    -1.908910  -1.197643  3.055560
C    -1.633326  -0.462137  4.379923
C    -0.488100  0.574780  4.435426
N    0.609981  0.059430  5.300966
C    1.847561  0.654174  5.378069
N    2.327714  0.919720  6.604495
N    2.537991  0.897437  4.265517
H    -2.657937  -1.971469  3.266343
H    -2.383499  -0.504180  2.347747
H    -1.476514  -1.207154  5.174764
H    -2.571861  0.038499  4.649438
H    -0.855660  1.523657  4.850900
H    -0.067069  0.802610  3.450209
H    0.263337  -0.251891  6.207719
H    3.306454  1.143598  6.749779
H    1.723250  0.979576  7.417214
H    3.306707  1.549514  4.441327
N    -0.839809  -0.824897  0.117788
C    -0.488630  0.007359  -1.034508
H    -1.729330  -1.317527  0.070693
H    0.502393  0.437520  -0.877483
H    -1.224281  0.812747  -1.149078
H    -0.485773  -0.606905  -1.942424
Pb    3.113020  -0.451021  2.425676
