36
Energy: -611333.618287 eV PBE+vdW (tier 2 basis)
C    0.870000  0.681082  0.418064
C    0.405028  0.212238  1.758482
O    1.233708  -0.373170  2.521887
H    0.085631  1.160842  -0.176414
H    1.267355  -0.180885  -0.135941
H    1.704985  1.382152  0.551848
N    -0.878636  0.425297  2.090513
C    -1.646436  -0.046772  3.264075
C    -1.259133  0.722820  4.537716
O    -0.151296  0.522885  5.132691
H    -1.420775  0.925341  1.391801
H    -2.684475  0.224966  3.029048
C    -1.611920  -1.573255  3.487874
C    -2.124087  -2.424551  2.321920
C    -3.655661  -2.346364  2.089140
N    -4.162770  -3.403434  1.249387
C    -4.321852  -4.707371  1.699640
N    -4.655367  -5.619457  0.736318
N    -4.148929  -5.130973  2.918496
H    -2.208461  -1.775733  4.391807
H    -0.586067  -1.904383  3.732701
H    -1.875187  -3.471431  2.546582
H    -1.590332  -2.179904  1.391274
H    -3.941491  -1.393587  1.620135
H    -4.180699  -2.382198  3.057604
H    -4.117911  -3.259710  0.245990
H    -4.877603  -6.545307  1.087169
H    -5.152569  -5.332329  -0.098481
H    -3.917863  -4.384396  3.576610
N    -2.136539  1.584462  5.025456
C    -1.958883  2.378005  6.244544
H    -3.004239  1.719119  4.512239
H    -1.702185  3.412665  5.983570
H    -1.158601  1.943074  6.847329
H    -2.896485  2.371674  6.810331
Pb    1.704625  -0.718583  4.706168
