36
Energy: -611333.420313 eV PBE+vdW (tier 2 basis)
C    -0.123447  -0.466375  -0.563459
C    0.132397  -0.002757  0.826905
O    1.344303  0.087539  1.252518
H    -0.738591  -1.379480  -0.573439
H    0.827816  -0.665927  -1.063203
H    -0.684172  0.292920  -1.124875
N    -0.857765  0.313662  1.681516
C    -2.094133  -0.474568  1.862656
C    -1.641403  -1.902499  2.269046
O    -0.424616  -2.108659  2.698054
H    -0.529234  0.792178  2.519905
H    -2.564212  -0.035383  2.757195
C    -3.093554  -0.391823  0.682405
C    -4.562319  -0.107091  1.038077
C    -5.283324  -1.045272  2.006660
N    -5.124947  -2.505393  1.731464
C    -5.493810  -3.019329  0.429920
N    -6.668708  -3.717418  0.421089
N    -4.643280  -2.851881  -0.516591
H    -3.058563  -1.307756  0.074910
H    -2.766911  0.437606  0.043408
H    -5.102904  -0.089431  0.082794
H    -4.660695  0.905907  1.458041
H    -6.347226  -0.762249  2.026229
H    -4.911437  -0.905983  3.034338
H    -5.622816  -3.023338  2.458670
H    -7.395148  -3.527516  1.102011
H    -6.986645  -4.134728  -0.446853
H    -4.984414  -3.202476  -1.415758
N    -2.487117  -2.887360  2.201229
C    -2.159140  -4.260462  2.579956
H    -3.536004  -2.717273  1.916706
H    -3.063565  -4.865215  2.469104
H    -1.810437  -4.310971  3.618793
H    -1.381214  -4.666971  1.921741
Pb    1.687171  -1.434936  2.897568
