36
Energy: -611335.171371 eV PBE+vdW (tier 2 basis)
C    0.838106  0.539683  1.150632
C    -0.333952  -0.343798  1.399593
O    -0.179522  -1.497804  1.907143
H    1.236594  0.911356  2.106438
H    0.613170  1.382826  0.490686
H    1.635368  -0.069737  0.703691
N    -1.589038  0.037795  1.066612
C    -2.200402  1.323204  1.357474
C    -2.591667  1.305102  2.863553
O    -2.411234  0.284061  3.592261
H    -2.268394  -0.714944  1.202700
H    -1.438627  2.109242  1.250626
C    -3.361252  1.645377  0.374349
C    -4.188332  0.484392  -0.212058
C    -5.030142  -0.385699  0.732593
N    -4.216943  -1.430014  1.382116
C    -4.536652  -2.053872  2.559979
N    -5.772724  -1.898486  3.062554
N    -3.571645  -2.746074  3.166602
H    -2.916228  2.172695  -0.479599
H    -4.039822  2.369033  0.848980
H    -3.548695  -0.160788  -0.835390
H    -4.886574  0.945800  -0.924069
H    -5.850551  -0.840820  0.155641
H    -5.480144  0.228871  1.524954
H    -3.705996  -2.043965  0.748962
H    -5.997642  -2.241828  3.989884
H    -6.558729  -1.655540  2.468360
H    -3.937718  -3.422598  3.841439
N    -3.095978  2.417529  3.380358
C    -3.455492  2.579140  4.792293
H    -3.198502  3.226563  2.774027
H    -3.890858  3.572599  4.926168
H    -2.566454  2.486175  5.427776
H    -4.188587  1.820283  5.088127
Pb    -1.478215  -1.899604  3.841008
