36
Energy: -611335.15286 eV PBE+vdW (tier 2 basis)
C    -0.350382  0.375854  0.051190
C    -0.986705  -0.461041  1.104404
O    -0.337145  -1.398863  1.661741
H    0.314129  1.117070  0.522430
H    -1.075319  0.890452  -0.586773
H    0.293353  -0.267516  -0.561945
N    -2.274771  -0.255717  1.480234
C    -2.856430  1.049112  1.783110
C    -2.176877  1.541985  3.086278
O    -1.568146  0.722373  3.844513
H    -2.580123  -0.959577  2.155046
H    -2.624953  1.742175  0.963284
C    -4.393772  0.948089  1.933858
C    -4.896989  0.091534  3.114638
C    -5.105535  -1.418879  2.825227
N    -4.873582  -2.244715  4.016644
C    -3.648595  -2.530642  4.501607
N    -3.499807  -2.739249  5.827073
N    -2.554398  -2.573925  3.720491
H    -4.797079  0.584153  0.977768
H    -4.783487  1.967122  2.048360
H    -5.851612  0.506946  3.461179
H    -4.210704  0.193823  3.969113
H    -4.474251  -1.780814  2.003193
H    -6.132221  -1.612963  2.494905
H    -5.675583  -2.434902  4.611541
H    -4.263728  -2.574511  6.474386
H    -2.772382  -3.372266  6.141798
H    -2.770018  -2.879509  2.769674
N    -2.243234  2.822590  3.428336
C    -2.876564  3.940416  2.725937
H    -1.792233  3.041168  4.317383
H    -2.956544  3.738981  1.653751
H    -2.254625  4.831573  2.859957
H    -3.874937  4.143941  3.134196
Pb    -0.524046  -1.450659  4.007223
