36
Energy: -611333.996417 eV PBE+vdW (tier 2 basis)
C    -0.673965  -0.162173  -0.139294
C    -0.527654  -0.158044  1.345731
O    0.659194  -0.069153  1.840436
H    -1.489835  -0.821770  -0.472461
H    0.269177  -0.473390  -0.598478
H    -0.892968  0.860569  -0.483703
N    -1.625483  -0.238725  2.087768
C    -1.773545  -0.427507  3.541057
C    -1.370629  0.818093  4.341145
O    -0.147392  1.121441  4.561447
H    -2.527241  -0.482957  1.589835
H    -2.861531  -0.527738  3.662219
C    -1.148196  -1.730274  4.086872
C    -1.454555  -2.970794  3.236173
C    -2.963871  -3.328256  3.046279
N    -3.324085  -3.630058  1.664446
C    -3.390645  -2.669085  0.667597
N    -3.970215  -1.424823  1.075931
N    -3.000697  -2.743534  -0.549686
H    -1.503787  -1.856250  5.120960
H    -0.047218  -1.644317  4.168998
H    -0.933831  -3.822402  3.692841
H    -1.003956  -2.847224  2.241240
H    -3.616816  -2.526409  3.416108
H    -3.217070  -4.206680  3.650979
H    -2.982711  -4.526922  1.327954
H    -4.273574  -0.947336  0.223924
H    -4.785781  -1.557977  1.677245
H    -2.529342  -3.623492  -0.775559
N    -2.335444  1.569690  4.837502
C    -2.148424  2.781484  5.639901
H    -3.294284  1.294129  4.637792
H    -2.865725  2.769875  6.467340
H    -2.327337  3.670151  5.020990
H    -1.129579  2.805028  6.032664
Pb    1.788282  0.431520  3.662930
