36
Energy: -611335.639957 eV PBE+vdW (tier 2 basis)
C    0.702184  -0.152951  1.272102
C    -0.051049  -0.385024  2.544648
O    0.437563  -1.150620  3.424522
H    0.197902  0.527747  0.578354
H    0.854130  -1.121425  0.775537
H    1.698583  0.242127  1.509598
N    -1.241955  0.231182  2.681335
C    -2.265823  0.042218  3.730732
C    -1.822193  0.700050  5.049939
O    -0.988244  0.153537  5.832438
H    -1.520981  0.811045  1.895510
H    -3.139273  0.595362  3.365691
C    -2.660053  -1.435802  3.889907
C    -3.700846  -1.722579  4.988903
C    -3.622088  -3.159885  5.551629
N    -2.835273  -3.279489  6.790247
C    -1.503516  -3.141201  6.918966
N    -0.997719  -2.873747  8.160312
N    -0.630998  -3.181923  5.911683
H    -1.751465  -2.012253  4.069208
H    -3.043831  -1.770759  2.916186
H    -4.710173  -1.562133  4.586698
H    -3.597917  -1.026503  5.834402
H    -3.246717  -3.865174  4.794651
H    -4.624512  -3.515370  5.812491
H    -3.363502  -3.464567  7.637468
H    -0.120769  -3.323967  8.404188
H    -1.629433  -2.721820  8.940127
H    -0.999879  -3.622188  5.068938
N    -2.351818  1.871142  5.390625
C    -3.335135  2.689615  4.670855
H    -2.002787  2.242568  6.274181
H    -2.956694  3.000013  3.689495
H    -3.513854  3.591898  5.262187
H    -4.291322  2.163949  4.559427
Pb    0.801895  -1.349273  5.705348
