36
Energy: -611335.201767 eV PBE+vdW (tier 2 basis)
C    0.844006  -0.762831  0.478566
C    0.403523  -0.645839  1.894360
O    1.224338  -0.308850  2.803131
H    1.855671  -1.187723  0.459571
H    0.925458  0.243342  0.037460
H    0.170969  -1.373000  -0.131394
N    -0.881365  -0.899945  2.255509
C    -2.056713  -0.362196  1.575986
C    -1.909247  1.176638  1.571027
O    -1.276971  1.765661  2.501650
H    -0.988680  -0.850045  3.273907
H    -2.110553  -0.757463  0.551865
C    -3.354980  -0.703166  2.355632
C    -3.522349  -2.130407  2.907911
C    -2.819641  -2.458643  4.246516
N    -3.043541  -1.454767  5.295761
C    -2.228872  -0.423524  5.596466
N    -2.757784  0.659225  6.213795
N    -0.926876  -0.388833  5.265060
H    -4.191503  -0.496385  1.675471
H    -3.467486  0.020784  3.178328
H    -3.203461  -2.882781  2.171819
H    -4.601162  -2.290148  3.046025
H    -1.741752  -2.605348  4.116874
H    -3.198519  -3.416998  4.622371
H    -3.941587  -1.491353  5.771749
H    -3.757094  0.730161  6.375283
H    -2.169453  1.182160  6.853392
H    -0.508160  -1.320371  5.221889
N    -2.494966  1.862328  0.601907
C    -2.499929  3.326545  0.513433
H    -2.985049  1.342629  -0.121362
H    -2.971724  3.613687  -0.429489
H    -1.473562  3.709420  0.537111
H    -3.063576  3.758947  1.348701
Pb    0.327768  1.342412  4.240761
