36
Energy: -611334.677466 eV PBE+vdW (tier 2 basis)
C    -2.117914  -0.828390  0.267996
C    -1.565295  -0.689677  1.656068
O    -0.416627  -0.015561  1.700914
H    -3.064721  -1.374902  0.254529
H    -1.387459  -1.339122  -0.373981
H    -2.278217  0.167381  -0.166704
N    -2.195495  -1.231050  2.655581
C    -1.663903  -1.165157  4.033917
C    -1.609560  0.289605  4.521347
O    -0.524708  0.976420  4.546507
H    -3.438347  -2.786591  2.160278
H    -2.437097  -1.636243  4.657448
C    -0.343436  -1.958745  4.238226
C    -0.397466  -3.179028  5.186198
C    -1.589630  -4.149383  5.053547
N    -2.077172  -4.235004  3.666923
C    -3.365250  -4.433937  3.328951
N    -4.109772  -5.306188  4.019540
N    -3.863980  -3.714621  2.318369
H    0.440494  -1.301657  4.639860
H    0.016519  -2.272162  3.247889
H    -0.382699  -2.843788  6.232194
H    0.538928  -3.733945  5.039898
H    -2.431017  -3.822501  5.682335
H    -1.278144  -5.137067  5.420675
H    -1.541895  -3.736225  2.963620
H    -3.672229  -6.046687  4.556467
H    -5.112034  -5.365421  3.881515
H    -4.727418  -3.970730  1.853262
N    -2.723799  0.872339  4.934142
C    -4.069060  0.297764  5.003319
H    -2.612205  1.837200  5.246174
H    -4.260644  -0.327338  4.125461
H    -4.789211  1.121349  5.005373
H    -4.202650  -0.281484  5.926592
Pb    0.914968  1.214030  2.834739
