36
Energy: -611334.889857 eV PBE+vdW (tier 2 basis)
C    0.486325  1.286819  1.274347
C    0.035689  0.249546  2.251119
O    0.825114  -0.149047  3.195016
H    0.780005  2.199351  1.811931
H    -0.283929  1.538088  0.538710
H    1.375074  0.915676  0.745107
N    -1.166932  -0.265200  2.134439
C    -1.761601  -1.384231  2.870305
C    -2.806526  -1.915409  1.835383
O    -3.134843  -1.149580  0.920646
H    -1.791199  -0.055551  1.320330
H    -0.979903  -2.127424  3.081181
C    -2.484266  -0.979461  4.176065
C    -1.581869  -0.482744  5.322874
C    -1.303279  1.019860  5.263197
N    -0.089605  1.386237  6.077116
C    0.373112  2.732161  5.871744
N    -0.129020  3.714678  6.620048
N    1.290392  2.808734  4.942504
H    -3.024483  -1.866341  4.530441
H    -3.260527  -0.236215  3.938232
H    -0.634782  -1.043733  5.307782
H    -2.062923  -0.719026  6.282585
H    -2.174924  1.586910  5.624921
H    -1.102085  1.359327  4.242071
H    -0.253244  1.186222  7.069207
H    0.223286  4.666395  6.556675
H    -0.912621  3.562618  7.246997
H    1.641273  3.734129  4.689835
N    -3.318651  -3.145790  1.987227
C    -3.003942  -4.166197  2.979907
H    -4.025621  -3.376213  1.290836
H    -1.994263  -4.027455  3.380834
H    -3.033218  -5.150210  2.499530
H    -3.726130  -4.164898  3.808599
Pb    2.102775  0.582468  4.858996
