36
Energy: -611333.461211 eV PBE+vdW (tier 2 basis)
C    0.310063  -0.332424  2.428702
C    -0.448237  0.058939  3.638482
O    0.163042  0.227481  4.760088
H    1.124339  0.381621  2.241569
H    -0.319206  -0.474742  1.538366
H    0.806192  -1.289410  2.663882
N    -1.783730  0.243230  3.616522
C    -2.475129  1.013181  2.581500
C    -2.043505  2.472412  2.763409
O    -1.431960  2.856863  3.838213
H    -2.220047  0.283824  4.540567
H    -2.136586  0.622498  1.594884
C    -4.003176  0.803422  2.701084
C    -4.433011  -0.654077  2.444051
C    -4.972693  -0.994631  1.030970
N    -4.349814  -0.310862  -0.099171
C    -3.020757  -0.390518  -0.424833
N    -2.621261  0.394836  -1.490710
N    -2.095393  -1.002220  0.266492
H    -4.511282  1.482968  2.005856
H    -4.314471  1.115596  3.710742
H    -5.240134  -0.909360  3.143434
H    -3.606398  -1.327949  2.711480
H    -6.032750  -0.717944  0.985544
H    -4.934185  -2.088759  0.904317
H    -4.991643  0.000221  -0.820714
H    -1.737457  0.100151  -1.896185
H    -3.314885  0.651606  -2.186400
H    -2.513522  -1.648449  0.938952
N    -2.278824  3.382192  1.836889
C    -2.920785  3.225517  0.529876
H    -1.970859  4.323196  2.084725
H    -2.684341  2.253236  0.080532
H    -2.534313  4.010834  -0.127010
H    -4.007973  3.345526  0.616192
Pb    -0.163681  2.292286  5.621577
