36
Energy: -611333.998498 eV PBE+vdW (tier 2 basis)
C    1.171823  1.978138  2.295997
C    0.430047  0.861434  2.946620
O    0.891055  0.361186  4.034499
H    1.220348  2.819510  3.003154
H    0.709156  2.319917  1.364408
H    2.207470  1.669135  2.101785
N    -0.706265  0.430939  2.400080
C    -1.695184  -0.508864  2.970195
C    -1.242231  -1.944802  2.647121
O    -0.212573  -2.429207  3.266588
H    -0.988776  0.881453  1.530091
H    -1.656580  -0.403940  4.067373
C    -3.074373  -0.093609  2.448178
C    -4.279065  -0.901579  2.982858
C    -5.237846  -1.325409  1.860453
N    -4.562367  -2.182666  0.868345
C    -4.282306  -1.703639  -0.449651
N    -3.874421  -2.725265  -1.295236
N    -4.214468  -0.484218  -0.833828
H    -3.041010  -0.143011  1.346500
H    -3.202996  0.969107  2.695256
H    -4.832387  -0.305949  3.720303
H    -3.946605  -1.804498  3.518550
H    -5.668037  -0.444638  1.361935
H    -6.083411  -1.878047  2.287632
H    -4.934297  -3.131655  0.866785
H    -3.760386  -2.399583  -2.252687
H    -4.395035  -3.597857  -1.251645
H    -4.529917  0.190173  -0.134953
N    -1.863154  -2.650325  1.740832
C    -1.446411  -3.981781  1.299610
H    -2.805864  -2.335953  1.376745
H    -0.356270  -4.063849  1.313814
H    -1.820930  -4.120977  0.280235
H    -1.872454  -4.754199  1.954561
Pb    1.171898  -1.695247  4.840753
