36
Energy: -611334.759404 eV PBE+vdW (tier 2 basis)
C    0.223500  0.043481  0.027047
C    0.074479  -0.161394  1.500649
O    1.021995  -0.740818  2.133582
H    -0.638923  0.532677  -0.437369
H    0.380631  -0.935846  -0.446471
H    1.126625  0.636549  -0.169080
N    -1.050892  0.251389  2.087439
C    -1.554682  0.058856  3.467478
C    -0.873088  0.910049  4.547408
O    0.456772  0.900966  4.646296
H    -1.697134  0.725161  1.462902
H    -2.570491  0.462285  3.420183
C    -1.635692  -1.428194  3.898072
C    -2.874162  -2.215198  3.427357
C    -4.251435  -1.554615  3.642831
N    -4.300918  -0.768040  4.885424
C    -5.052684  0.339144  5.062307
N    -6.279833  0.396320  4.525757
N    -4.520170  1.355091  5.742305
H    -1.581358  -1.445862  4.997321
H    -0.744857  -1.974627  3.561408
H    -2.850800  -3.184765  3.943404
H    -2.798704  -2.449193  2.356423
H    -5.016779  -2.343580  3.645304
H    -4.494361  -0.876386  2.810897
H    -3.519888  -0.850518  5.527077
H    -6.804145  1.263647  4.516193
H    -6.790087  -0.452898  4.310418
H    -5.100844  2.108427  6.094390
N    -1.643410  1.527926  5.368858
C    -1.048414  2.276997  6.473668
H    -3.482255  1.481478  5.680518
H    -1.786031  2.381370  7.277508
H    -0.142771  1.803114  6.874869
H    -0.778508  3.288930  6.137069
Pb    2.159522  -0.227014  4.007977
