36
Energy: -611333.726029 eV PBE+vdW (tier 2 basis)
C    -1.841764  -0.137725  -0.226711
C    -1.204959  -0.161881  1.108410
O    -0.018678  -0.643819  1.256391
H    -1.160968  0.287518  -0.975177
H    -2.820137  0.364192  -0.225909
H    -1.991872  -1.191717  -0.518773
N    -1.845752  0.290225  2.203881
C    -2.563257  1.562075  2.269766
C    -1.507474  2.661858  2.202459
O    -0.242533  2.403610  2.326355
H    -1.438622  -0.018067  3.090494
H    -3.247022  1.652643  1.370764
C    -3.453657  1.627971  3.546056
C    -4.956154  1.548433  3.250144
C    -5.385136  0.326481  2.396845
N    -6.298244  0.650724  1.318074
C    -5.908266  1.343696  0.208171
N    -6.910604  1.674773  -0.660688
N    -4.641947  1.671326  0.051475
H    -3.242853  2.547879  4.108422
H    -3.150510  0.804547  4.212656
H    -5.271112  2.460270  2.726698
H    -5.493705  1.551589  4.207626
H    -5.879250  -0.424650  3.023613
H    -4.509716  -0.173431  1.957538
H    -7.290202  0.553862  1.495688
H    -6.662554  2.057674  -1.563819
H    -7.792859  1.175943  -0.637052
H    -4.506146  2.145761  -0.843634
N    -1.859032  3.917533  2.006966
C    -3.208964  4.456144  1.811507
H    -1.088776  4.587011  2.016318
H    -3.630275  4.792509  2.767578
H    -3.857623  3.699859  1.354415
H    -3.136996  5.315215  1.137048
Pb    1.369329  0.831397  2.265205
