36
Energy: -611334.79708 eV PBE+vdW (tier 2 basis)
C    1.124804  -0.165399  1.633405
C    0.226666  0.341100  2.725308
O    0.840533  0.401380  3.911716
H    0.641675  -0.124777  0.653982
H    1.435781  -1.196130  1.852410
H    2.041079  0.438291  1.599998
N    -1.007244  0.641524  2.460954
C    -1.913958  1.136123  3.512228
C    -1.422550  2.500143  4.018349
O    -0.784022  2.638242  5.125295
H    -1.667161  -0.541114  0.534944
H    -2.862210  1.365306  3.000345
C    -2.258164  0.144919  4.660173
C    -3.581706  -0.629884  4.495714
C    -3.582192  -1.847818  3.567569
N    -3.303060  -1.463163  2.180430
C    -2.619994  -2.166465  1.269063
N    -2.563249  -3.502876  1.337140
N    -1.983393  -1.485077  0.306523
H    -2.346411  0.716525  5.594863
H    -1.430815  -0.566336  4.797259
H    -4.385224  0.062592  4.194206
H    -3.885128  -1.002620  5.483971
H    -4.560882  -2.346117  3.636730
H    -2.814890  -2.571121  3.880215
H    -3.527087  -0.513082  1.907244
H    -1.921891  -4.027337  0.753740
H    -3.273930  -4.030304  1.831418
H    -1.677330  -1.925397  -0.552832
N    -1.660468  3.584734  3.299360
C    -2.371429  3.681669  2.022307
H    -1.306829  4.452082  3.703594
H    -2.099706  2.843640  1.372688
H    -2.064739  4.611208  1.533738
H    -3.457907  3.714162  2.177815
Pb    0.964095  1.403624  5.796448
