36
Energy: -611334.013978 eV PBE+vdW (tier 2 basis)
C    1.989611  0.778372  1.370468
C    1.220031  0.516849  2.619234
O    1.865587  0.497178  3.740130
H    2.447130  1.776162  1.433269
H    1.362390  0.711877  0.475858
H    2.816261  0.058791  1.298978
N    -0.090797  0.327538  2.547754
C    -0.936275  0.127225  3.731571
C    -0.609588  -1.230338  4.385528
O    0.036350  -1.234498  5.502134
H    -0.550640  0.510747  1.580528
H    -0.637373  0.868375  4.492905
C    -2.438541  0.327782  3.454215
C    -2.885438  1.810918  3.349933
C    -3.884726  2.093441  2.206019
N    -3.240543  2.230071  0.882620
C    -2.483717  1.167693  0.404692
N    -3.162847  -0.014268  0.239077
N    -1.192168  1.189903  0.183192
H    -2.988034  -0.155355  4.274475
H    -2.717718  -0.216146  2.544311
H    -2.013736  2.470708  3.210795
H    -3.343403  2.115930  4.300827
H    -4.405413  3.039125  2.395835
H    -4.663713  1.320228  2.164600
H    -2.722433  3.104518  0.818545
H    -2.688458  -0.680086  -0.363320
H    -4.158796  0.063718  0.055702
H    -0.832854  2.138920  0.326022
N    -0.959577  -2.391828  3.869163
C    -1.684960  -2.695040  2.632263
H    -0.689077  -3.195192  4.439739
H    -1.336047  -3.667398  2.270433
H    -1.481403  -1.942645  1.866603
H    -2.764098  -2.753619  2.820987
Pb    1.903071  -0.052180  5.878331
