36
Energy: -611332.988902 eV PBE+vdW (tier 2 basis)
C    0.598265  1.630753  1.304255
C    -0.156141  0.373629  1.557472
O    -0.000069  -0.625074  0.775032
H    -0.083843  2.420240  0.950446
H    1.334485  1.446793  0.516325
H    1.100020  2.001572  2.211937
N    -1.003856  0.228357  2.604575
C    -2.041501  1.181526  3.029545
C    -3.043915  1.311655  1.849619
O    -3.000824  0.516591  0.851383
H    -1.261349  -0.745923  2.761590
H    -2.585640  0.654697  3.830056
C    -1.535949  2.512645  3.621726
C    -0.488398  2.308730  4.719915
C    0.143886  3.636510  5.193150
N    1.390186  3.429147  5.913056
C    2.533585  2.913666  5.323498
N    2.674103  3.186979  3.958077
N    3.424261  2.178580  5.897069
H    -2.402137  3.045295  4.045233
H    -1.139044  3.160358  2.827256
H    0.319231  1.666118  4.343558
H    -0.930183  1.780737  5.578171
H    -0.537962  4.184716  5.855826
H    0.323875  4.292766  4.329302
H    1.317682  3.264047  6.912112
H    3.596328  2.881191  3.649453
H    2.513058  4.161230  3.706166
H    3.240360  1.990750  6.886699
N    -3.978817  2.242003  1.909323
C    -5.029171  2.429330  0.901366
H    -3.983155  2.861216  2.715217
H    -5.665453  3.258695  1.219689
H    -5.635389  1.520320  0.811900
H    -4.584590  2.666543  -0.072085
Pb    -1.965714  -1.245017  -0.242941
