36
Energy: -611335.51991 eV PBE+vdW (tier 2 basis)
C    -0.822763  0.315949  0.502354
C    -0.532648  -0.462294  1.749573
O    0.616598  -0.971673  1.900612
H    -1.866474  0.634657  0.412181
H    -0.551062  -0.289024  -0.372630
H    -0.175653  1.204214  0.483346
N    -1.531592  -0.598723  2.636717
C    -1.594045  -1.268184  3.957716
C    -0.596074  -0.636133  4.947526
O    0.631015  -0.948784  4.932451
H    -2.394434  -0.136291  2.365544
H    -2.608248  -1.034265  4.300446
C    -1.436296  -2.801188  4.017238
C    -2.181466  -3.682136  3.003947
C    -1.506858  -3.878286  1.622556
N    -0.040787  -3.813324  1.639913
C    0.795117  -4.485647  2.460756
N    0.467745  -5.739216  2.830129
N    1.899286  -3.859838  2.892906
H    -1.792549  -3.072296  5.022549
H    -0.372125  -3.055917  4.024276
H    -3.208361  -3.326647  2.835058
H    -2.291755  -4.664697  3.480874
H    -1.816736  -3.101698  0.914069
H    -1.850327  -4.824476  1.181180
H    0.361081  -2.954312  1.282728
H    1.038537  -6.245517  3.496534
H    -0.168114  -6.293070  2.266329
H    2.608845  -4.501719  3.252240
N    -1.041499  0.219460  5.860779
C    -2.409973  0.698334  6.087542
H    -0.321242  0.561643  6.497200
H    -2.823462  1.168172  5.187393
H    -2.371256  1.458325  6.872808
H    -3.066934  -0.110764  6.430627
Pb    2.295032  -1.603607  3.389687
