36
Energy: -611335.059826 eV PBE+vdW (tier 2 basis)
C    -0.338791  -1.084488  0.277530
C    -0.460872  -0.467947  1.640618
O    0.663701  0.090489  2.076531
H    0.553812  -1.720790  0.235364
H    -0.202026  -0.300150  -0.480441
H    -1.214956  -1.693590  0.035756
N    -1.603997  -0.488869  2.267372
C    -1.647648  0.118024  3.596469
C    -0.793225  -0.695904  4.580620
O    0.254533  -0.163531  5.107540
H    -3.066184  -0.189098  0.730809
H    -1.151221  1.107676  3.568615
C    -3.084877  0.341114  4.160971
C    -4.199260  0.442487  3.117803
C    -4.065767  1.639931  2.164433
N    -4.961687  1.550397  1.009839
C    -4.713444  0.797620  -0.070988
N    -5.540438  0.853475  -1.126541
N    -3.633883  0.006286  -0.104462
H    -3.057206  1.247287  4.782779
H    -3.355978  -0.469591  4.848018
H    -5.160090  0.511765  3.646871
H    -4.238869  -0.491372  2.540539
H    -3.040319  1.742424  1.781546
H    -4.300880  2.578712  2.680838
H    -5.868574  2.000513  1.071731
H    -5.475087  0.186844  -1.885493
H    -6.258142  1.564011  -1.200340
H    -3.365640  -0.444007  -0.970130
N    -1.084248  -1.944893  4.902186
C    -2.181875  -2.787987  4.427691
H    -0.440423  -2.364199  5.574115
H    -1.796280  -3.803471  4.285938
H    -2.551208  -2.416356  3.468484
H    -2.993045  -2.821887  5.166575
Pb    1.765591  0.841127  3.776380
