36
Energy: -611334.158128 eV PBE+vdW (tier 2 basis)
C    1.513974  1.895993  1.228552
C    0.736050  0.639668  1.042546
O    1.105420  -0.175171  0.125523
H    1.296860  2.609168  0.419647
H    2.576226  1.633454  1.122718
H    1.351406  2.366698  2.199617
N    -0.292789  0.275010  1.840378
C    -1.551427  1.005367  2.119933
C    -2.547306  0.681919  0.976030
O    -2.044958  0.283112  -0.201925
H    -0.486884  -0.722095  1.734433
H    -1.964129  0.523839  3.016397
C    -1.422955  2.513817  2.390583
C    -0.976883  2.851876  3.830973
C    -2.123921  3.349225  4.730463
N    -3.294750  2.467192  4.638267
C    -4.541696  2.827596  4.275241
N    -5.031785  4.016206  4.652175
N    -5.251851  1.971772  3.532985
H    -2.416439  2.937479  2.196074
H    -0.769815  2.985004  1.648097
H    -0.212484  3.640623  3.829940
H    -0.497451  1.977009  4.296960
H    -2.443141  4.349620  4.409790
H    -1.781456  3.426856  5.771356
H    -3.130211  1.466031  4.645960
H    -4.664669  4.496346  5.466200
H    -5.878722  4.387292  4.237379
H    -6.257944  2.073956  3.454345
N    -3.791771  0.813890  1.241796
C    -4.804601  0.575735  0.222100
H    -4.746522  1.405905  2.817955
H    -5.428509  -0.275351  0.530960
H    -4.393034  0.375075  -0.773812
H    -5.464824  1.452016  0.161729
Pb    -0.550142  -0.729795  -1.382720
