36
Energy: -611334.916504 eV PBE+vdW (tier 2 basis)
C    0.177436  0.212840  0.294029
C    -0.123719  -0.775096  1.380736
O    0.836525  -1.385170  1.996675
H    0.886928  0.977068  0.645845
H    0.660450  -0.316375  -0.540219
H    -0.718432  0.712561  -0.088292
N    -1.376168  -1.023408  1.678763
C    -1.945783  -1.997875  2.612968
C    -3.476121  -1.827306  2.354440
O    -3.846907  -0.824399  1.728760
H    -2.171136  -0.524232  1.216488
H    -1.614145  -3.002737  2.309122
C    -1.572727  -1.793659  4.098192
C    -2.103256  -0.547261  4.819689
C    -1.580516  0.822255  4.350594
N    -0.132381  0.874057  4.089203
C    0.873804  0.649188  4.945909
N    0.638025  0.660642  6.266311
N    2.109952  0.394575  4.446631
H    -0.480107  -1.860108  4.190786
H    -1.955655  -2.671696  4.637231
H    -1.886434  -0.683353  5.888444
H    -3.199992  -0.497899  4.751683
H    -1.864030  1.600787  5.075923
H    -2.056679  1.113853  3.407948
H    0.158678  1.149202  3.160560
H    -0.199745  1.084102  6.650540
H    1.351509  0.377291  6.927438
H    2.843938  0.610368  5.126200
N    -4.284894  -2.765807  2.858978
C    -5.740685  -2.741967  2.708114
H    -3.871010  -3.583374  3.295836
H    -6.068541  -3.555812  2.049878
H    -6.027656  -1.784402  2.266201
H    -6.219964  -2.854229  3.687300
Pb    2.879477  -0.919731  2.751826
