36
Energy: -611332.874751 eV PBE+vdW (tier 2 basis)
C    -0.535169  0.012953  -0.291582
C    -0.218812  0.140123  1.156341
O    0.990993  0.109358  1.551811
H    -0.195482  0.908973  -0.832779
H    -1.595096  -0.167990  -0.490508
H    0.057461  -0.822664  -0.691256
N    -1.201942  0.287895  2.076227
C    -2.302441  1.250337  1.950252
C    -1.647831  2.643358  1.817451
O    -0.503214  2.855836  2.350559
H    -0.883472  0.162398  3.039587
H    -2.894208  1.011393  1.057309
C    -3.166272  1.137424  3.233446
C    -4.519246  1.855583  3.270576
C    -5.627567  1.181545  2.435615
N    -6.944195  1.707188  2.736949
C    -7.669210  1.297092  3.847212
N    -8.891787  1.875826  3.997828
N    -7.295923  0.429088  4.748030
H    -2.551038  1.487354  4.077804
H    -3.328173  0.058932  3.389769
H    -4.431209  2.918367  3.003782
H    -4.844475  1.854433  4.320660
H    -5.597767  0.089034  2.599579
H    -5.466671  1.325399  1.357968
H    -7.467312  2.107920  1.966777
H    -9.437534  1.585814  4.800971
H    -9.182569  2.700840  3.490423
H    -6.411385  -0.028926  4.518283
N    -2.243078  3.639949  1.181060
C    -3.506596  3.669402  0.444402
H    -1.719781  4.517280  1.205163
H    -3.334807  4.144211  -0.528398
H    -4.255625  4.251461  0.995059
H    -3.886598  2.658890  0.279568
Pb    1.587400  1.955412  2.821675
