36
Energy: -611334.878313 eV PBE+vdW (tier 2 basis)
C    -0.793628  -0.364319  0.061511
C    -0.727418  -0.029272  1.520008
O    0.394993  0.577037  1.887009
H    -0.752605  0.556556  -0.535982
H    -1.701396  -0.923765  -0.181173
H    0.080553  -0.964304  -0.223104
N    -1.729389  -0.312674  2.306525
C    -1.607395  0.066494  3.704669
C    -0.511850  -0.740710  4.431142
O    0.483692  -0.085219  4.924393
H    -3.573015  -0.395561  1.599592
H    -1.211671  1.099759  3.780629
C    -2.986084  0.137528  4.403516
C    -3.958919  -1.023418  4.151174
C    -5.419328  -0.592279  3.993929
N    -5.688778  0.454966  2.979606
C    -5.517788  0.368282  1.645082
N    -6.398094  0.987102  0.841596
N    -4.487044  -0.300819  1.115031
H    -3.436867  1.065507  4.020261
H    -2.837935  0.303362  5.479520
H    -3.941157  -1.741565  4.982045
H    -3.662851  -1.588694  3.261144
H    -5.789989  -0.166505  4.934452
H    -6.037448  -1.474513  3.771778
H    -6.360926  1.157719  3.270982
H    -6.179216  1.187254  -0.127454
H    -7.327740  1.230261  1.163884
H    -4.493889  -0.483599  0.117909
N    -0.488889  -2.056582  4.556674
C    -1.394872  -3.078781  4.037379
H    0.323063  -2.396338  5.074113
H    -0.795127  -3.954152  3.766748
H    -1.901299  -2.708255  3.143458
H    -2.126445  -3.378852  4.796982
Pb    1.599543  1.303016  3.534271
