36
Energy: -611335.571447 eV PBE+vdW (tier 2 basis)
C    0.550683  0.594936  0.218827
C    -0.265353  0.848676  1.443802
O    -0.096537  1.915743  2.103307
H    0.404135  1.426405  -0.483592
H    0.301226  -0.347100  -0.280551
H    1.614703  0.591803  0.490813
N    -1.178244  -0.074428  1.810644
C    -2.082593  0.148791  2.936468
C    -1.377631  -0.185866  4.263692
O    -0.916527  0.764681  4.973425
H    -1.271083  -0.911057  1.240692
H    -2.212552  1.238454  2.959422
C    -3.508510  -0.424686  2.770258
C    -4.537095  0.694096  3.024153
C    -4.384256  1.370532  4.408901
N    -4.681347  2.802157  4.406382
C    -3.971809  3.752670  3.760733
N    -4.604626  4.918196  3.503105
N    -2.705400  3.545483  3.359279
H    -3.684897  -1.274745  3.444218
H    -3.643505  -0.805454  1.748659
H    -5.553971  0.298725  2.908047
H    -4.409398  1.454543  2.240446
H    -3.378445  1.229140  4.824063
H    -5.063505  0.915555  5.138766
H    -5.563751  3.089752  4.815150
H    -4.083948  5.754374  3.269373
H    -5.610993  5.012319  3.580048
H    -2.468363  4.245937  2.651371
N    -1.251384  -1.448506  4.637254
C    -0.566663  -1.914251  5.845866
H    -1.667300  -2.159761  4.040480
H    0.255467  -2.583886  5.566661
H    -1.273617  -2.459540  6.482287
H    -0.172965  -1.052246  6.388278
Pb    -0.547856  2.926454  4.180686
