36
Energy: -611334.205896 eV PBE+vdW (tier 2 basis)
C    0.072131  0.480672  -0.429336
C    0.162325  -0.061884  0.954904
O    1.082758  -0.897096  1.253401
H    -0.923740  0.863849  -0.670196
H    0.350106  -0.313620  -1.133024
H    0.808663  1.289905  -0.556838
N    -0.698939  0.336748  1.911168
C    -1.015145  1.758434  2.142163
C    0.305422  2.501999  2.480167
O    1.325451  1.766278  2.949347
H    -0.620641  -0.201869  2.775611
H    -1.391702  2.181315  1.203004
C    -2.077540  1.870742  3.255792
C    -3.546285  1.689566  2.815147
C    -4.344344  2.962844  2.480060
N    -4.023173  3.609930  1.195368
C    -2.940569  4.361029  0.946718
N    -2.533843  4.554871  -0.323160
N    -2.206559  4.902307  1.929336
H    -1.943942  2.832027  3.766920
H    -1.839115  1.116314  4.022153
H    -4.092889  1.218666  3.644542
H    -3.615493  0.976933  1.978726
H    -4.270164  3.695704  3.297233
H    -5.408523  2.706754  2.420123
H    -4.678809  3.461290  0.434169
H    -1.976619  5.376566  -0.532734
H    -3.021303  4.123749  -1.100230
H    -2.620591  4.908197  2.855201
N    0.349307  3.768487  2.303047
C    1.564336  4.512531  2.624573
H    -1.169839  4.714399  1.932612
H    2.299664  4.413738  1.811261
H    1.318897  5.575161  2.719670
H    2.035291  4.166275  3.554166
Pb    2.509819  -0.039963  2.860504
