36
Energy: -611335.364554 eV PBE+vdW (tier 2 basis)
C    0.536791  0.445175  1.503010
C    -0.086155  0.521711  2.852718
O    0.569993  0.994308  3.834836
H    0.497272  1.435482  1.022040
H    0.061483  -0.293554  0.850304
H    1.600579  0.205891  1.624970
N    -1.355957  0.096371  3.066555
C    -2.478792  0.416966  2.195511
C    -2.660322  1.957588  2.211637
O    -2.147815  2.687485  3.116906
H    -1.596757  0.067168  4.066324
H    -2.232303  0.128898  1.163102
C    -3.756367  -0.365653  2.612664
C    -4.008422  -0.530852  4.119261
C    -4.267632  0.769398  4.909402
N    -3.985463  0.640083  6.340237
C    -2.760479  0.425983  6.861026
N    -2.685846  -0.061055  8.114586
N    -1.654509  0.668515  6.127844
H    -3.674708  -1.369915  2.176716
H    -4.623303  0.105178  2.126871
H    -3.167493  -1.074943  4.574335
H    -4.870231  -1.201300  4.238098
H    -5.318824  1.069120  4.824519
H    -3.690504  1.611779  4.512723
H    -4.779588  0.556517  6.965888
H    -1.814715  -0.046426  8.630747
H    -3.493082  -0.445166  8.593331
H    -0.848038  0.200184  6.550158
N    -3.368373  2.502836  1.234791
C    -3.637141  3.939889  1.113148
H    -3.735508  1.891579  0.509957
H    -2.699443  4.493494  0.984829
H    -4.151007  4.308372  2.008272
H    -4.272994  4.098636  0.238699
Pb    -0.716020  2.562731  5.018721
