36
Energy: -611335.117854 eV PBE+vdW (tier 2 basis)
C    -0.100590  0.902378  -0.558315
C    0.403210  1.549786  0.690168
O    0.869692  2.739644  0.620983
H    -0.471240  -0.115705  -0.400067
H    0.695573  0.889066  -1.313867
H    -0.913282  1.520739  -0.965423
N    0.330700  0.877221  1.837304
C    0.548918  1.378342  3.210845
C    2.028775  1.296875  3.611144
O    2.881275  1.946154  2.811160
H    -0.045344  -0.065451  1.770154
H    0.307038  2.455356  3.176579
C    -0.484932  0.720372  4.147170
C    -0.581589  -0.823645  4.179589
C    0.137879  -1.566282  5.314946
N    -0.379206  -1.246579  6.647981
C    0.255078  -0.526853  7.587950
N    -0.211622  -0.544519  8.848676
N    1.321421  0.209025  7.271953
H    -1.461104  1.116688  3.835202
H    -0.324661  1.122931  5.155621
H    -0.209935  -1.283682  3.249023
H    -1.646016  -1.095634  4.215216
H    1.213327  -1.363448  5.299207
H    0.010940  -2.647415  5.166955
H    -1.264053  -1.666796  6.913948
H    0.138615  0.099196  9.546882
H    -0.863546  -1.252415  9.163242
H    1.617963  0.363290  6.280313
N    2.401458  0.685673  4.673696
C    3.830501  0.664868  4.992121
H    1.894027  0.599783  8.009959
H    4.000602  -0.015888  5.833749
H    4.189322  1.665981  5.276294
H    4.436345  0.326416  4.141169
Pb    2.803272  3.577203  1.409576
