36
Energy: -611335.198888 eV PBE+vdW (tier 2 basis)
C    2.552014  -2.028545  2.172338
C    1.543967  -1.053806  2.703972
O    1.680347  0.174781  2.211705
H    2.409459  -2.154686  1.090113
H    2.476965  -2.998539  2.671061
H    3.566305  -1.634326  2.314185
N    0.625730  -1.455355  3.532338
C    -0.402788  -0.526665  4.009289
C    0.180359  0.348261  5.123471
O    0.741381  1.468065  4.850047
H    0.076756  -3.360122  3.488238
H    -0.704424  0.184821  3.214248
C    -1.640164  -1.341177  4.415941
C    -2.227803  -2.071744  3.198545
C    -2.976813  -3.364421  3.519510
N    -2.251154  -4.362843  4.344410
C    -1.098536  -5.001241  4.054724
N    -0.962602  -6.282770  4.434923
N    -0.089807  -4.384156  3.430247
H    -2.395228  -0.691438  4.879668
H    -1.341786  -2.086655  5.172492
H    -1.434189  -2.282485  2.469336
H    -2.940518  -1.418990  2.674328
H    -3.299589  -3.839924  2.581641
H    -3.882642  -3.141047  4.096682
H    -2.843300  -4.858484  5.003738
H    -0.051259  -6.721900  4.496116
H    -1.769453  -6.868300  4.617281
H    0.677981  -4.948561  3.084686
N    0.124223  -0.061919  6.377098
C    0.696661  0.646428  7.523296
H    -0.334178  -0.951693  6.551392
H    0.090154  0.431083  8.407957
H    0.690765  1.722027  7.328072
H    1.727919  0.315516  7.702755
Pb    1.514356  2.212913  2.862120
