36
Energy: -611334.771727 eV PBE+vdW (tier 2 basis)
C    0.323965  0.613823  0.386459
C    0.103405  -0.032204  1.719419
O    0.975130  -0.855841  2.207595
H    1.258422  1.195431  0.396066
H    -0.490541  1.287334  0.102079
H    0.415737  -0.165742  -0.382900
N    -0.986480  0.259380  2.391174
C    -1.556408  -0.363781  3.589932
C    -3.089792  -0.283759  3.264306
O    -3.449274  0.533327  2.408667
H    -1.762715  0.803043  1.940462
H    -1.217591  -1.407561  3.657386
C    -1.279620  0.392518  4.913887
C    0.089170  0.177211  5.587680
C    1.167358  1.197321  5.177886
N    2.510262  0.898577  5.698145
C    3.374289  0.065448  5.092505
N    4.670957  0.058937  5.441327
N    2.935639  -0.745277  4.106301
H    -2.050521  0.058220  5.620907
H    -1.480480  1.463351  4.756620
H    0.429342  -0.855736  5.408520
H    -0.041072  0.248032  6.676385
H    0.897717  2.191607  5.555230
H    1.244026  1.292352  4.085588
H    2.800241  1.361212  6.555073
H    5.235442  -0.759408  5.246150
H    5.049298  0.729236  6.101578
H    1.915179  -0.815268  4.146931
N    -3.902903  -1.087065  3.960279
C    -5.358653  -1.087503  3.808492
H    -3.495977  -1.749520  4.612612
H    -5.703251  -2.074594  3.478557
H    -5.627047  -0.339811  3.057875
H    -5.838703  -0.835477  4.761540
Pb    3.208549  -1.126732  1.913742
