36
Energy: -611335.147203 eV PBE+vdW (tier 2 basis)
C    -0.228932  0.500814  1.015483
C    -0.565044  0.924259  2.403704
O    0.339855  0.987610  3.296347
H    0.219872  1.346966  0.471023
H    -1.093029  0.130551  0.455276
H    0.543988  -0.276121  1.066833
N    -1.827322  1.265410  2.744063
C    -2.715691  2.079634  1.926654
C    -1.993658  3.406448  1.612143
O    -1.033267  3.810421  2.344730
H    -1.998517  1.335830  3.760104
H    -2.955931  1.555851  0.991132
C    -4.026533  2.358685  2.697543
C    -3.873822  3.200943  3.986211
C    -3.878492  2.452294  5.319439
N    -2.802666  1.432495  5.541552
C    -1.716586  1.729053  6.341525
N    -1.479585  0.918452  7.385977
N    -0.947204  2.770722  6.033207
H    -4.499360  1.387775  2.907399
H    -4.708646  2.873154  2.009688
H    -4.727754  3.890330  4.047673
H    -2.991105  3.854195  3.933553
H    -4.824445  1.906432  5.430397
H    -3.833419  3.185094  6.135487
H    -3.182222  0.506001  5.725126
H    -0.599540  0.952129  7.889992
H    -2.200055  0.317024  7.772435
H    -0.382752  3.057760  6.838802
N    -2.383825  4.155153  0.590032
C    -3.456232  3.919055  -0.378667
H    -1.873485  5.034323  0.497391
H    -4.368748  4.454415  -0.086075
H    -3.676508  2.851950  -0.472625
H    -3.129622  4.289279  -1.355943
Pb    0.416888  3.192946  4.116677
