36
Energy: -611334.186655 eV PBE+vdW (tier 2 basis)
C    -1.292688  1.248830  0.403569
C    -0.983622  0.393284  1.586799
O    -0.004985  -0.425764  1.501134
H    -2.139710  1.924078  0.562256
H    -1.508281  0.595171  -0.453749
H    -0.402734  1.835109  0.137839
N    -1.748985  0.507609  2.674971
C    -1.777387  -0.285465  3.926937
C    -0.579280  0.000904  4.832485
O    0.614778  -0.384027  4.516215
H    -2.475975  1.214833  2.605242
H    -2.663585  0.092879  4.449973
C    -2.005515  -1.802555  3.703632
C    -3.480294  -2.162394  3.426473
C    -4.394330  -2.269498  4.663788
N    -4.470387  -1.048214  5.461806
C    -3.631509  -0.815547  6.542483
N    -3.620990  0.533765  6.967940
N    -2.752333  -1.592304  7.065847
H    -1.647489  -2.335228  4.595695
H    -1.398427  -2.156124  2.853605
H    -3.508965  -3.138560  2.922035
H    -3.908536  -1.444081  2.709340
H    -4.080338  -3.116522  5.292829
H    -5.407815  -2.513961  4.323108
H    -5.363235  -0.564824  5.455768
H    -3.447557  0.601988  7.970760
H    -4.429120  1.093397  6.701793
H    -2.844983  -2.562652  6.760084
N    -0.812766  0.595817  5.973031
C    0.167575  0.825036  7.030195
H    -1.807176  0.782716  6.228404
H    0.077633  1.859353  7.381330
H    1.177798  0.645767  6.657703
H    -0.053485  0.142000  7.861580
Pb    1.515977  -1.420551  2.793667
