36
Energy: -611334.269287 eV PBE+vdW (tier 2 basis)
C    0.239374  0.220304  -0.325000
C    0.046917  0.015794  1.137311
O    1.089176  -0.176855  1.862413
H    -0.622314  0.666225  -0.822447
H    0.505866  -0.728373  -0.813693
H    1.112362  0.877944  -0.442712
N    -1.149414  0.088975  1.758923
C    -2.386718  -0.685227  1.485434
C    -2.240703  -2.026382  2.243893
O    -1.002197  -2.493254  2.457340
H    -1.016997  0.189028  2.766817
H    -3.202357  -0.124550  1.957703
C    -2.715570  -0.880381  -0.007423
C    -4.052732  -1.584564  -0.290768
C    -5.319704  -0.725974  -0.291325
N    -5.652278  0.048879  0.932483
C    -6.295696  -0.458254  2.011008
N    -7.234369  0.287736  2.616157
N    -5.978567  -1.669613  2.466571
H    -1.919668  -1.473489  -0.478035
H    -2.712106  0.106336  -0.493335
H    -4.174373  -2.453179  0.367782
H    -3.997302  -2.001350  -1.307016
H    -6.175775  -1.370061  -0.538390
H    -5.249631  0.028410  -1.085233
H    -5.818662  1.037394  0.772626
H    -7.715045  1.032853  2.125057
H    -7.570841  0.057911  3.544324
H    -6.578837  -2.095186  3.165242
N    -3.311798  -2.629661  2.603776
C    -3.252135  -3.936463  3.247596
H    -4.988086  -2.031668  2.405247
H    -4.108837  -4.536641  2.916961
H    -3.343050  -3.813054  4.337562
H    -2.326914  -4.484745  3.033747
Pb    1.064211  -2.169904  2.999796
