36
Energy: -611334.530142 eV PBE+vdW (tier 2 basis)
C    -1.502813  -0.167945  -0.187042
C    -1.597391  0.078830  1.137293
O    -0.758007  0.908191  1.795542
H    -4.332791  2.607827  -1.513199
H    -2.233141  -0.783910  -0.704707
H    -0.661908  0.219908  -0.755122
N    -2.608991  -0.497099  1.962988
C    -2.654883  -1.965563  2.129660
C    -1.232390  -2.553289  2.067757
O    -0.273296  -1.994353  2.703889
H    -2.647719  -0.007561  2.854294
H    -2.966132  -2.140448  3.174316
C    -3.703129  -2.662328  1.238269
C    -5.150566  -2.160987  1.475941
C    -5.745503  -1.267237  0.385130
N    -4.951388  -0.048637  0.217578
C    -5.136627  0.881669  -0.722652
N    -6.263760  0.907974  -1.448210
N    -4.170851  1.788170  -0.941562
H    -3.688720  -3.737058  1.472796
H    -3.429455  -2.564112  0.176551
H    -5.219967  -1.642477  2.444165
H    -5.818312  -3.027262  1.560245
H    -6.778090  -1.017858  0.677347
H    -5.790315  -1.809695  -0.573025
H    -4.146852  0.049415  0.852429
H    -6.366259  1.536132  -2.235863
H    -7.085815  0.391014  -1.162849
H    -3.221487  1.599068  -0.625701
N    -1.010137  -3.684757  1.424817
C    0.284613  -4.367485  1.373652
H    -1.788546  -4.106914  0.927809
H    0.972730  -3.836305  0.703638
H    0.127079  -5.380645  0.995005
H    0.720901  -4.416382  2.376647
Pb    0.709757  0.016118  3.085281
