36
Energy: -611333.568642 eV PBE+vdW (tier 2 basis)
C    0.276631  -0.068415  -0.002079
C    0.045388  -0.130652  1.472453
O    1.002008  -0.493569  2.226033
H    -0.597335  0.266583  -0.570104
H    0.569420  -1.069036  -0.350929
H    1.124128  0.599135  -0.207315
N    -1.172728  0.191193  1.934708
C    -1.737313  0.065255  3.299021
C    -1.143216  1.121613  4.247045
O    0.026110  1.012667  4.736349
H    -1.837939  0.472412  1.219483
H    -2.799014  0.312756  3.164888
C    -1.662884  -1.358625  3.882420
C    -2.567963  -1.593796  5.099971
C    -4.062187  -1.797883  4.754758
N    -4.816035  -2.310350  5.876687
C    -4.797111  -3.652782  6.233708
N    -5.545652  -3.977274  7.323648
N    -4.137988  -4.606770  5.637048
H    -0.623501  -1.605303  4.158047
H    -1.921445  -2.060016  3.074974
H    -2.465846  -0.784927  5.840617
H    -2.216527  -2.503931  5.605044
H    -4.148448  -2.474803  3.885660
H    -4.537045  -0.853981  4.452933
H    -5.585308  -1.745162  6.216914
H    -5.549121  -4.951711  7.600550
H    -5.900056  -3.291387  7.976447
H    -3.695891  -4.299957  4.768048
N    -1.898681  2.157352  4.573799
C    -1.475553  3.238475  5.470390
H    -2.825879  2.221988  4.163004
H    -2.360129  3.807716  5.767247
H    -0.770147  3.905230  4.958570
H    -0.993178  2.817127  6.358461
Pb    1.851233  -0.280300  4.300239
