36
Energy: -611334.338099 eV PBE+vdW (tier 2 basis)
C    1.225615  1.287258  -0.058069
C    0.902850  0.970516  1.361705
O    1.705198  1.327738  2.290458
H    1.202136  2.373965  -0.223708
H    0.568008  0.786401  -0.773709
H    2.263316  0.972105  -0.238743
N    -0.225022  0.305932  1.683202
C    -1.548239  0.745623  1.182185
C    -2.123051  1.715699  2.237983
O    -1.212677  2.491592  2.884587
H    -0.238571  0.020564  2.663114
H    -1.350330  1.353504  0.286614
C    -2.471261  -0.401778  0.757428
C    -2.853381  -1.408659  1.847321
C    -3.673514  -2.592910  1.312762
N    -4.988407  -2.238524  0.758090
C    -6.163004  -2.305947  1.397934
N    -7.306048  -2.241391  0.698535
N    -6.216310  -2.437291  2.730073
H    -1.975282  -0.926399  -0.074395
H    -3.377796  0.071061  0.355287
H    -3.403259  -0.889774  2.646595
H    -1.952685  -1.849506  2.303409
H    -3.827023  -3.346601  2.096875
H    -3.125769  -3.102499  0.508069
H    -5.023793  -1.965826  -0.218385
H    -8.195588  -2.084020  1.156847
H    -7.324805  -2.403386  -0.301052
H    -5.399074  -2.296628  3.308333
N    -3.380974  1.761013  2.404977
C    -3.999352  2.731830  3.286342
H    -7.072096  -2.718400  3.193255
H    -4.722694  3.318578  2.703110
H    -3.295595  3.416510  3.777658
H    -4.580934  2.198212  4.051373
Pb    0.714788  2.847136  3.739058
