36
Energy: -611335.106472 eV PBE+vdW (tier 2 basis)
C    -0.070849  0.725848  0.128454
C    -0.053856  0.704500  1.616733
O    0.727988  1.468100  2.264886
H    0.962815  0.833967  -0.224831
H    -0.611824  1.617549  -0.223836
H    -0.517957  -0.170330  -0.312491
N    -0.848672  -0.136685  2.320231
C    -2.256275  -0.387547  2.058508
C    -3.051568  0.857974  2.558090
O    -2.472113  1.850130  3.095675
H    -0.636645  -0.104257  3.319598
H    -2.404767  -0.411411  0.968987
C    -2.705740  -1.770281  2.623842
C    -1.962837  -2.302698  3.861099
C    -2.273784  -1.636617  5.228808
N    -1.075318  -1.344406  6.022603
C    -0.341344  -0.212031  5.932118
N    0.938355  -0.231811  6.352120
N    -0.852513  0.910236  5.409044
H    -2.553746  -2.502158  1.820250
H    -3.789475  -1.756584  2.810440
H    -0.878787  -2.268043  3.680270
H    -2.197230  -3.372701  3.931691
H    -2.906016  -2.290496  5.840062
H    -2.858697  -0.714954  5.105442
H    -0.716632  -2.095151  6.605502
H    1.376923  0.630343  6.652695
H    1.388896  -1.093827  6.637770
H    -1.872791  0.871639  5.416645
N    -4.360847  0.857916  2.344418
C    -5.278377  1.952136  2.670522
H    -4.765443  0.041980  1.891120
H    -5.940010  1.657917  3.494727
H    -5.887269  2.186340  1.790165
H    -4.699813  2.831843  2.959847
Pb    -0.382287  2.679341  3.952514
