36
Energy: -611335.777109 eV PBE+vdW (tier 2 basis)
C    0.052569  0.708926  0.181011
C    -0.225435  0.367344  1.607255
O    0.713447  0.376923  2.460215
H    0.523049  1.701012  0.141565
H    -0.843668  0.709222  -0.448076
H    0.783003  -0.003203  -0.226029
N    -1.490371  0.076513  1.967472
C    -1.877741  -0.103030  3.366828
C    -1.801696  -1.593670  3.736344
O    -0.669093  -2.095981  4.009928
H    -2.208449  0.084800  1.247015
H    -1.054771  0.341726  3.930999
C    -3.138611  0.678065  3.760956
C    -3.222963  0.935277  5.277830
C    -2.212553  1.959816  5.830538
N    -0.803462  1.543256  5.759268
C    -0.175065  0.638460  6.546386
N    -0.721745  0.328562  7.739027
N    0.947876  0.068254  6.091156
H    -4.058802  0.182993  3.411287
H    -3.112003  1.640911  3.227908
H    -3.139396  -0.009023  5.839103
H    -4.224291  1.326332  5.505536
H    -2.483056  2.215887  6.864657
H    -2.280426  2.902668  5.272868
H    -0.203878  1.992749  5.076334
H    -0.314809  -0.403677  8.308558
H    -1.346955  0.971449  8.213020
H    1.515614  -0.308597  6.854367
N    -2.904864  -2.325659  3.733636
C    -2.970761  -3.762305  4.009269
H    -3.778367  -1.854449  3.512281
H    -3.301149  -4.296886  3.110308
H    -3.685618  -3.947770  4.819142
H    -1.979654  -4.115794  4.301059
Pb    1.467124  -1.104593  4.118636
