36
Energy: -611335.008839 eV PBE+vdW (tier 2 basis)
C    1.073310  0.873013  0.489064
C    0.346034  0.995456  1.787495
O    0.911479  0.645006  2.910989
H    1.989955  1.479625  0.516099
H    0.467575  1.203189  -0.360654
H    1.358987  -0.175304  0.318797
N    -0.874998  1.463252  1.808981
C    -1.761973  1.640285  2.957808
C    -3.127678  1.938978  2.259930
O    -3.109041  2.191366  1.050627
H    -1.403535  1.752085  0.948634
H    -1.819383  0.689155  3.510052
C    -1.291689  2.807814  3.871262
C    -1.607782  2.692470  5.370713
C    -1.115314  1.421595  6.088519
N    0.230735  1.044948  5.652254
C    1.161594  0.361103  6.323731
N    1.028798  0.117004  7.635491
N    2.259579  -0.079290  5.648374
H    -1.725161  3.744517  3.495942
H    -0.206518  2.930079  3.743214
H    -2.689230  2.770656  5.553566
H    -1.164527  3.572603  5.856404
H    -1.797852  0.572407  5.917806
H    -1.122848  1.620961  7.167816
H    0.395116  1.098838  4.644909
H    1.738722  -0.386146  8.153363
H    0.241135  0.466011  8.167877
H    2.960016  -0.471058  6.280482
N    -4.222278  1.936452  3.031750
C    -5.562052  2.242427  2.525955
H    -4.136927  1.652481  4.001385
H    -6.035079  3.000258  3.160488
H    -6.183393  1.338540  2.513056
H    -5.466783  2.627689  1.507609
Pb    2.877776  -0.313895  3.497639
