36
Energy: -611335.151968 eV PBE+vdW (tier 2 basis)
C    -0.321700  1.486043  -0.563115
C    0.091673  1.325012  0.863165
O    1.164879  1.896425  1.260837
H    -0.455037  2.557765  -0.767571
H    -1.248378  0.956855  -0.807965
H    0.485005  1.135650  -1.220006
N    -0.682192  0.614657  1.681927
C    -0.559464  0.465435  3.147683
C    0.419528  -0.674354  3.482809
O    1.717559  -0.393716  3.308819
H    -1.499154  0.176983  1.261074
H    -0.128217  1.407220  3.526232
C    -1.967265  0.273269  3.716797
C    -2.023073  0.256761  5.250389
C    -3.305693  -0.438932  5.763312
N    -3.090201  -1.353613  6.886948
C    -2.687849  -2.627755  6.759095
N    -2.888141  -3.483086  7.775368
N    -2.116255  -3.052493  5.624928
H    -2.355799  -0.680657  3.326694
H    -2.614620  1.071096  3.323506
H    -1.960185  1.277980  5.649354
H    -1.151670  -0.281577  5.644542
H    -3.771969  -1.020200  4.955026
H    -4.051968  0.291876  6.093333
H    -3.326407  -1.032888  7.819783
H    -2.405803  -4.372427  7.817486
H    -3.564779  -3.289195  8.504008
H    -1.576327  -2.438535  4.987635
N    -0.023181  -1.802679  3.897059
C    0.923926  -2.889617  4.132234
H    -2.005937  -4.049538  5.481365
H    0.451140  -3.838420  3.848674
H    1.165597  -2.946288  5.204899
H    1.864136  -2.781177  3.578778
Pb    2.891452  1.239542  2.551637
