36
Energy: -611333.428361 eV PBE+vdW (tier 2 basis)
C    -0.166311  -1.552740  0.167525
C    -0.337973  -0.835975  1.464897
O    0.606944  -0.112637  1.911000
H    0.067720  -0.817128  -0.614499
H    -1.048764  -2.128322  -0.130533
H    0.699583  -2.225095  0.238525
N    -1.498649  -0.963262  2.127092
C    -1.862267  -0.222349  3.341338
C    -1.100650  -0.777227  4.566673
O    -0.058342  -0.145672  4.961854
H    -2.217988  -1.541194  1.698252
H    -1.455031  0.793458  3.228305
C    -3.391339  -0.112488  3.489226
C    -4.063626  0.874859  2.521294
C    -3.830075  2.366526  2.851670
N    -4.718872  3.266617  2.151894
C    -6.040086  3.454814  2.524856
N    -6.790961  4.212805  1.670906
N    -6.630645  2.964636  3.578733
H    -3.609789  0.185724  4.526419
H    -3.846778  -1.103959  3.360269
H    -5.144783  0.682517  2.564455
H    -3.766946  0.673378  1.479720
H    -2.802375  2.675363  2.608824
H    -3.947822  2.530084  3.935302
H    -4.453394  3.543051  1.212885
H    -7.725258  4.434605  1.998210
H    -6.364330  4.875219  1.034658
H    -6.003643  2.427241  4.180487
N    -1.460586  -1.860585  5.234331
C    -2.575629  -2.790325  5.028356
H    -0.850296  -2.065152  6.027535
H    -2.309216  -3.737265  5.507278
H    -2.737675  -2.983463  3.963950
H    -3.496762  -2.412920  5.488604
Pb    1.603499  0.816841  3.739518
