36
Energy: -611335.15376 eV PBE+vdW (tier 2 basis)
C    -0.056971  0.812494  2.376961
C    -1.302500  1.103734  3.139486
O    -1.238161  1.481209  4.349718
H    0.376645  1.754742  2.005290
H    -0.217590  0.132075  1.534910
H    0.681070  0.386119  3.067333
N    -2.525506  0.980377  2.558942
C    -2.830959  1.501414  1.227606
C    -2.671537  3.036324  1.283264
O    -2.766464  3.654246  2.394450
H    -3.288002  1.046662  3.244607
H    -2.112736  1.080810  0.511300
C    -4.260915  1.136027  0.766952
C    -5.399625  1.736509  1.617327
C    -5.865777  0.819643  2.765777
N    -6.386161  1.528891  3.937506
C    -5.715817  1.626244  5.103810
N    -6.435870  1.719286  6.237925
N    -4.363841  1.605043  5.105794
H    -4.332570  0.039202  0.727180
H    -4.363751  1.475200  -0.271415
H    -6.253804  1.951857  0.963294
H    -5.100969  2.709106  2.033856
H    -5.059754  0.167275  3.123552
H    -6.658422  0.147804  2.410686
H    -7.382193  1.728217  3.955503
H    -6.003700  2.002451  7.109032
H    -7.413797  1.451151  6.278621
H    -4.031187  1.209690  5.991592
N    -2.466526  3.733899  0.175299
C    -2.339579  3.266719  -1.206631
H    -2.421485  4.743656  0.319139
H    -1.580073  3.873413  -1.710716
H    -3.291341  3.376940  -1.742243
H    -2.022760  2.220618  -1.242695
Pb    -2.698417  3.289615  4.726248
