36
Energy: -611335.139045 eV PBE+vdW (tier 2 basis)
C    -0.894455  1.875085  0.757714
C    -0.695104  1.144089  2.053799
O    0.521869  0.614214  2.173738
H    -0.185429  2.711688  0.693051
H    -1.911469  2.266266  0.667429
H    -0.671516  1.207690  -0.085371
N    -1.679135  1.078385  2.896665
C    -1.652799  0.325427  4.156406
C    -0.570103  0.800131  5.132989
O    0.609991  0.300288  5.176035
H    -4.927866  2.166528  1.727732
H    -2.602732  0.580239  4.656121
C    -1.671535  -1.208701  3.968778
C    -3.042921  -1.782197  3.561562
C    -3.546233  -1.555318  2.127967
N    -3.935524  -0.169078  1.860995
C    -4.936657  0.218447  1.070302
N    -5.635012  -0.651772  0.325473
N    -5.260090  1.524616  1.020108
H    -1.395639  -1.678682  4.923915
H    -0.910376  -1.514848  3.233521
H    -3.812080  -1.437175  4.269908
H    -2.987667  -2.872457  3.690222
H    -4.427090  -2.196804  1.991497
H    -2.784770  -1.879667  1.398628
H    -3.244572  0.551480  2.175108
H    -5.303079  -1.592301  0.158827
H    -6.504805  -0.383683  -0.118634
H    -5.897266  1.885836  0.321608
N    -0.904618  1.755133  5.984583
C    -0.018100  2.356844  6.980949
H    -1.856137  2.109664  5.930034
H    -0.599916  2.581116  7.880461
H    0.415906  3.288226  6.594123
H    0.781266  1.654050  7.228647
Pb    1.992278  -0.200010  3.491480
