36
Energy: -611334.337779 eV PBE+vdW (tier 2 basis)
C    2.025966  0.714484  2.180844
C    1.223014  -0.179469  3.066465
O    1.878716  -0.944814  3.885991
H    2.587627  1.427506  2.800817
H    1.401564  1.267536  1.472236
H    2.768920  0.113978  1.639012
N    -0.090073  -0.145226  2.963157
C    -1.103401  -1.021902  3.581972
C    -1.161520  -0.848480  5.103285
O    -0.368140  -1.456077  5.905245
H    -0.525669  0.322030  2.056580
H    -2.047638  -0.606660  3.211786
C    -1.054123  -2.500348  3.129000
C    -0.948710  -2.720381  1.607915
C    -2.212449  -2.563886  0.728558
N    -3.046816  -1.377220  0.932674
C    -2.594132  -0.092335  0.993414
N    -3.453928  0.829097  1.553059
N    -1.368658  0.300236  0.720445
H    -1.945293  -3.000560  3.537782
H    -0.191144  -3.011207  3.588627
H    -0.628607  -3.760442  1.452203
H    -0.123796  -2.113034  1.212627
H    -2.877711  -3.417454  0.909878
H    -1.893440  -2.645327  -0.323553
H    -4.048855  -1.531619  0.892123
H    -3.289827  1.786159  1.253318
H    -4.436101  0.587294  1.639021
H    -0.887775  -0.387385  0.137911
N    -2.103932  -0.055880  5.578613
C    -2.336757  0.247744  6.991780
H    -2.706242  0.402338  4.896585
H    -3.415803  0.254423  7.177972
H    -1.924796  1.235361  7.236777
H    -1.860826  -0.515121  7.612064
Pb    1.742497  -2.165724  5.686326
