36
Energy: -611334.816154 eV PBE+vdW (tier 2 basis)
C    -1.302179  1.381638  -0.319125
C    -1.161316  1.290799  1.172918
O    -0.835711  2.216380  1.896706
H    -2.199694  1.972428  -0.550372
H    -1.382309  0.407418  -0.815118
H    -0.446159  1.932124  -0.725640
N    -1.413504  0.020723  1.742912
C    -1.520408  -0.039463  3.186709
C    -0.462821  -0.943065  3.807790
O    -0.502352  -1.288497  5.045233
H    -1.907282  -0.661201  1.173582
H    -1.198782  0.988700  3.478478
C    -2.965730  -0.207640  3.702221
C    -3.688284  -1.547009  3.495293
C    -3.282400  -2.727260  4.379498
N    -3.524806  -2.440838  5.839467
C    -3.039008  -3.468159  6.731246
N    -3.760313  -4.577939  6.893917
N    -1.907013  -3.149323  7.294774
H    -3.545497  0.576302  3.195264
H    -3.025522  0.106450  4.762312
H    -3.574979  -1.883666  2.453274
H    -4.769666  -1.373633  3.611144
H    -2.219890  -2.979169  4.283083
H    -3.860177  -3.614527  4.079665
H    -4.523109  -2.260751  5.992864
H    -3.481933  -5.302157  7.551015
H    -4.599571  -4.756226  6.352144
H    -1.455591  -3.833018  7.904846
N    0.544681  -1.311417  3.043526
C    1.733710  -2.045027  3.465337
H    0.479740  -0.977986  2.079047
H    2.606061  -1.379507  3.446275
H    1.909419  -2.880117  2.778048
H    1.588151  -2.424868  4.479088
Pb    -1.742823  -0.838409  6.866293
