36
Energy: -611335.617963 eV PBE+vdW (tier 2 basis)
C    0.731079  1.177078  1.582368
C    -0.098155  0.968288  2.806937
O    0.263639  1.476678  3.910183
H    0.865201  2.256222  1.426758
H    0.295284  0.734425  0.680641
H    1.731526  0.754814  1.747612
N    -1.233798  0.252818  2.696941
C    -2.201454  0.110124  3.790060
C    -1.826416  -1.117662  4.640967
O    -0.943815  -0.996328  5.542976
H    -1.461426  -0.136338  1.785000
H    -1.995201  0.967698  4.431391
C    -3.649500  0.232102  3.289817
C    -4.741437  0.326598  4.375827
C    -4.771646  1.587070  5.263233
N    -3.686015  1.631949  6.252111
C    -2.506855  2.280079  6.166179
N    -2.311192  3.193080  5.185414
N    -1.461542  1.996602  6.962014
H    -3.900102  -0.604555  2.615850
H    -3.689968  1.129454  2.653298
H    -4.722218  -0.561707  5.027300
H    -5.712602  0.284975  3.862081
H    -5.720776  1.610753  5.814089
H    -4.760883  2.500775  4.654881
H    -3.735475  0.925938  6.980759
H    -1.535703  3.832985  5.318706
H    -3.097052  3.565499  4.665939
H    -1.755639  1.483352  7.798061
N    -2.407642  -2.282018  4.388806
C    -2.102438  -3.545797  5.063487
H    -3.110345  -2.307006  3.654313
H    -3.029209  -3.991516  5.442176
H    -1.418804  -3.352194  5.892736
H    -1.633529  -4.241124  4.356319
Pb    0.430466  0.843450  6.148119
