36
Energy: -611333.290096 eV PBE+vdW (tier 2 basis)
C    -0.547914  -0.701133  -0.986426
C    -0.292778  -0.014488  0.306636
O    0.186715  1.174105  0.314904
H    -1.394068  -0.230203  -1.509656
H    -0.725689  -1.774811  -0.879793
H    0.330914  -0.539677  -1.627711
N    -0.549212  -0.614149  1.486180
C    -1.803497  -1.313441  1.783428
C    -2.909625  -0.231426  1.847402
O    -2.596407  1.023123  1.909536
H    -0.152292  -0.128042  2.291863
H    -2.019891  -2.011171  0.962637
C    -1.706705  -2.091939  3.111716
C    -1.502353  -1.207368  4.352550
C    -2.077135  -1.810496  5.657030
N    -3.424639  -2.346991  5.533462
C    -4.538184  -1.595492  5.223485
N    -5.698659  -2.327494  5.031713
N    -4.581799  -0.318307  4.975517
H    -0.902233  -2.832875  3.006836
H    -2.636616  -2.662558  3.234956
H    -1.970546  -0.224914  4.190935
H    -0.434103  -1.018113  4.537376
H    -2.017479  -1.046101  6.449393
H    -1.444142  -2.644445  5.983999
H    -3.574438  -3.260740  5.946723
H    -6.546315  -1.779503  5.148931
H    -5.759877  -3.262232  5.422795
H    -3.713823  0.144120  5.250920
N    -4.178108  -0.561134  1.920747
C    -4.811047  -1.871691  1.780931
H    -4.807608  0.213581  2.145503
H    -4.110066  -2.607537  1.379446
H    -5.651806  -1.771149  1.084429
H    -5.196263  -2.207587  2.756141
Pb    -1.154278  2.678576  1.396280
