36
Energy: -611334.803408 eV PBE+vdW (tier 2 basis)
C    0.644400  -0.144103  -0.109646
C    0.246497  0.106064  1.309060
O    1.102230  -0.043162  2.275945
H    1.501081  0.491502  -0.372744
H    -0.169450  0.054051  -0.813862
H    0.953603  -1.193119  -0.223544
N    -0.972826  0.500691  1.575740
C    -1.634362  0.780039  2.852355
C    -3.103370  1.053760  2.376460
O    -3.315190  1.127284  1.160678
H    -1.691389  0.664868  0.822757
H    -1.628425  -0.133856  3.468146
C    -1.007311  1.959955  3.645374
C    -0.130628  1.511112  4.827028
C    0.895983  2.579391  5.246082
N    2.037491  2.031441  5.993173
C    2.986121  1.247754  5.453833
N    3.883810  0.633404  6.256227
N    3.035650  1.019270  4.127365
H    -1.808836  2.622301  3.998784
H    -0.422944  2.565843  2.937041
H    0.406180  0.599327  4.538262
H    -0.753375  1.242631  5.691909
H    0.441872  3.343188  5.887560
H    1.271255  3.127716  4.365468
H    2.146522  2.316534  6.961787
H    4.802679  0.426329  5.880972
H    3.838142  0.745152  7.263580
H    2.423382  1.663116  3.623011
N    -4.032430  1.189314  3.330309
C    -5.444568  1.451322  3.047673
H    -3.762029  1.061113  4.299866
H    -6.061221  0.607490  3.379777
H    -5.561570  1.581490  1.968856
H    -5.768908  2.363233  3.562340
Pb    3.040399  -0.908540  2.936819
