36
Energy: -611334.926261 eV PBE+vdW (tier 2 basis)
C    -0.820511  -0.106433  -0.142501
C    -0.655094  -0.938800  1.096808
O    0.347685  -1.745981  1.220222
H    -0.856079  -0.763813  -1.022242
H    0.033803  0.580666  -0.256838
H    -1.730285  0.502308  -0.130384
N    -1.557903  -0.818450  2.041946
C    -1.678958  -1.461399  3.350138
C    -2.890550  -0.686141  3.970495
O    -3.324520  0.299483  3.362298
H    -2.315591  -0.096529  1.983510
H    -1.966534  -2.514519  3.202292
C    -0.398312  -1.424583  4.211648
C    0.282293  -0.056089  4.316308
C    1.684023  -0.113997  4.946769
N    2.562510  -1.130963  4.326698
C    2.940178  -1.161512  3.051249
N    3.388493  -2.404202  2.493679
N    2.877550  -0.215553  2.143757
H    0.295691  -2.161810  3.787732
H    -0.657411  -1.793020  5.215001
H    -0.314508  0.634700  4.928981
H    0.339995  0.413092  3.323938
H    1.625931  -0.388396  6.006576
H    2.173002  0.869475  4.908323
H    2.853484  -1.905005  4.917050
H    4.402601  -2.430217  2.350742
H    3.089294  -3.242067  2.996427
H    2.656419  0.729013  2.458567
N    -3.372576  -1.144160  5.133115
C    -4.520103  -0.541824  5.814132
H    -3.014482  -2.019217  5.501636
H    -4.326108  -0.497804  6.891100
H    -5.430028  -1.128035  5.632944
H    -4.664853  0.469385  5.425003
Pb    2.385484  -1.505791  0.235321
