36
Energy: -611334.300895 eV PBE+vdW (tier 2 basis)
C    -3.083603  -0.538919  -0.349337
C    -1.711133  -0.369751  0.203734
O    -0.701714  -0.383182  -0.581170
H    -3.426320  0.412108  -0.786614
H    -3.807144  -0.870957  0.400931
H    -3.037757  -1.264152  -1.171433
N    -1.514184  -0.179371  1.522506
C    -2.292792  0.793201  2.304885
C    -2.035179  2.216424  1.741100
O    -0.965453  2.385907  0.948818
H    -0.530743  -0.221846  1.795166
H    -3.359298  0.581361  2.157753
C    -1.924597  0.694809  3.799589
C    -2.736343  -0.293539  4.652540
C    -4.265472  -0.100609  4.637873
N    -4.614990  1.326588  4.595732
C    -5.689470  1.850337  3.978358
N    -6.857007  1.191678  3.996599
N    -5.531178  3.009754  3.334490
H    -1.989494  1.709190  4.216265
H    -0.858152  0.436997  3.892975
H    -2.369265  -0.208201  5.684791
H    -2.535284  -1.330168  4.348710
H    -4.691807  -0.586265  5.526853
H    -4.718021  -0.583097  3.758386
H    -3.863960  1.989777  4.753938
H    -7.636938  1.498463  3.426896
H    -7.058224  0.521226  4.730221
H    -6.325319  3.580299  3.067226
N    -2.837480  3.152318  2.086403
C    -2.596599  4.515224  1.614300
H    -4.591107  3.201096  2.933841
H    -1.528773  4.766376  1.572887
H    -3.101113  5.221644  2.282881
H    -3.018225  4.651618  0.606478
Pb    0.418971  1.638064  -0.534317
