36
Energy: -611333.81993 eV PBE+vdW (tier 2 basis)
C    0.574710  0.708494  0.827240
C    0.477016  0.475395  2.265588
O    1.518200  0.047719  2.896287
H    -0.225032  1.341411  0.427095
H    0.473498  -0.322650  0.325280
H    1.560477  1.096704  0.553282
N    -0.702212  0.665451  2.894392
C    -1.155858  0.137675  4.196593
C    -0.609204  0.984692  5.351243
O    0.622934  0.939065  5.701406
H    -1.441288  1.015716  2.292020
H    -2.242671  0.281894  4.183696
C    -0.884871  -1.372333  4.417762
C    -1.969158  -2.327622  3.881175
C    -2.354817  -2.223390  2.402466
N    -1.208274  -2.290993  1.517549
C    -1.237313  -2.056561  0.153141
N    -2.481049  -1.933104  -0.412466
N    -0.085603  -1.872686  -0.426679
H    -0.796533  -1.553067  5.499345
H    0.087636  -1.634198  3.979432
H    -2.890390  -2.204383  4.469429
H    -1.624528  -3.351045  4.093137
H    -2.888548  -1.278146  2.201865
H    -3.088069  -3.027967  2.210410
H    -0.380561  -2.795471  1.814370
H    -2.511914  -1.762334  -1.411754
H    -3.246286  -2.506002  -0.069624
H    -0.154785  -1.815076  -1.445427
N    -1.420303  1.764232  6.044180
C    -2.860866  1.994470  5.868182
H    -0.967123  2.263472  6.811434
H    -3.084964  2.343551  4.853715
H    -3.159324  2.778839  6.569048
H    -3.437690  1.090699  6.099220
Pb    2.526576  0.111193  4.838922
