36
Energy: -611335.267423 eV PBE+vdW (tier 2 basis)
C    0.903445  0.749027  0.403265
C    0.580872  0.391894  1.822695
O    1.509915  -0.008195  2.576952
H    1.608762  1.591702  0.406171
H    0.026524  1.022005  -0.193030
H    1.419426  -0.094525  -0.072709
N    -0.701503  0.506293  2.211697
C    -1.318380  0.348002  3.546861
C    -0.601186  1.261728  4.567262
O    0.382797  0.832072  5.221132
H    -1.336471  0.826253  1.486823
H    -2.331288  0.735454  3.393272
C    -1.461642  -1.081714  4.134135
C    -1.440324  -2.294723  3.197150
C    -0.066227  -2.837518  2.797076
N    0.834470  -3.040692  3.984717
C    2.107112  -3.619841  3.632579
N    2.201230  -4.957340  3.594270
N    3.031104  -2.735139  3.411937
H    -2.423642  -1.081614  4.663833
H    -0.715189  -1.214626  4.926442
H    -1.998553  -2.101354  2.269593
H    -1.996717  -3.100083  3.699880
H    0.471497  -2.172604  2.114512
H    -0.206780  -3.794084  2.270369
H    0.354890  -3.609055  4.690420
H    3.087551  -5.417092  3.408998
H    1.387437  -5.556821  3.671979
H    3.936022  -3.079881  3.086381
N    -1.045222  2.505520  4.741319
C    -2.181216  3.169984  4.096845
H    -0.521997  3.042109  5.432401
H    -2.220275  4.199274  4.463856
H    -3.131668  2.685360  4.354043
H    -2.058976  3.208422  3.007277
Pb    2.182536  -0.775481  4.646578
