36
Energy: -611334.983264 eV PBE+vdW (tier 2 basis)
C    0.861915  0.324673  1.164867
C    0.159034  -0.920161  1.600081
O    0.805849  -2.034701  1.707532
H    1.694794  0.538314  1.849421
H    0.198442  1.194174  1.127820
H    1.289951  0.161738  0.165917
N    -1.127924  -0.876006  1.859969
C    -2.045935  -1.980244  2.148419
C    -3.409077  -1.390378  1.650886
O    -3.481440  -0.165887  1.499205
H    -1.707476  -0.025329  1.669277
H    -1.751253  -2.857246  1.553139
C    -2.150060  -2.358125  3.644053
C    -0.899697  -3.006680  4.270020
C    0.100378  -1.986218  4.815157
N    1.468046  -2.594891  4.984744
C    2.508506  -1.640080  5.256014
N    2.765653  -1.297876  6.518637
N    3.107860  -1.231749  4.167565
H    -2.982074  -3.069061  3.732901
H    -2.459545  -1.470824  4.217441
H    -0.412761  -3.650891  3.521825
H    -1.214505  -3.670331  5.087841
H    -0.247023  -1.585000  5.779783
H    0.225395  -1.133463  4.140154
H    1.440833  -3.340211  5.688166
H    3.539609  -0.683158  6.757362
H    2.173795  -1.599868  7.285917
H    3.826577  -0.511501  4.256981
N    -4.409909  -2.257588  1.453541
C    -5.750308  -1.854810  1.026144
H    -4.224714  -3.250432  1.552278
H    -6.498617  -2.228418  1.734697
H    -5.966537  -2.251968  0.027016
H    -5.788990  -0.762917  0.996846
Pb    2.596304  -2.967509  2.635007
