36
Energy: -611335.15124 eV PBE+vdW (tier 2 basis)
C    -0.106956  -0.145788  0.093685
C    -0.119096  -0.030420  1.580783
O    0.997544  -0.056487  2.210971
H    0.064902  -1.193788  -0.193600
H    0.739522  0.432008  -0.296315
H    -1.033884  0.200506  -0.373335
N    -1.246976  0.113522  2.265255
C    -2.648634  0.024467  1.869507
C    -3.420878  0.499053  3.131733
O    -2.866157  0.452443  4.251543
H    -1.178601  0.295525  3.272691
H    -2.848421  0.743132  1.060884
C    -3.088073  -1.394120  1.370485
C    -2.338774  -2.643399  1.865956
C    -2.577437  -3.152004  3.296542
N    -2.058440  -2.280692  4.361765
C    -0.778567  -2.028475  4.607438
N    -0.464216  -0.882155  5.411349
N    0.299241  -2.630367  4.153116
H    -2.991394  -1.389251  0.276596
H    -4.165289  -1.501484  1.565652
H    -1.258994  -2.538216  1.683991
H    -2.652074  -3.468008  1.208700
H    -2.135239  -4.151659  3.410745
H    -3.648989  -3.272134  3.497534
H    -2.719524  -1.631761  4.787679
H    -1.213987  -0.176834  5.402941
H    -0.243989  -1.137639  6.378740
H    0.179740  -3.492252  3.621491
N    -4.667902  0.924768  2.931724
C    -5.564535  1.390197  3.990550
H    -5.015296  0.965522  1.977325
H    -5.918184  2.400381  3.754645
H    -5.014522  1.409892  4.934339
H    -6.428090  0.719771  4.079657
Pb    1.860407  -0.877800  4.149620
