34
Energy: -571606.226423 eV PBE+vdW (tier 2 basis)
C    1.173801  0.986608  1.663304
C    0.106621  0.082849  1.143334
O    0.392443  -0.703693  0.196266
H    2.140022  0.490994  1.507567
H    1.048410  1.226246  2.721996
H    1.192278  1.913384  1.070743
N    -1.146122  -0.003376  1.695507
C    -2.071479  1.107239  1.948935
C    -2.522658  1.556945  0.519194
O    -1.639698  1.646614  -0.369947
H    -1.630535  -0.829221  1.335678
H    -2.931006  0.657803  2.468901
C    -1.526302  2.280203  2.787245
C    -2.611400  3.237041  3.304976
C    -3.421519  2.769225  4.527203
C    -2.704162  3.014880  5.885314
N    -1.609290  2.142837  6.154621
H    -0.800542  2.850932  2.194044
H    -0.976750  1.855709  3.643394
H    -3.322139  3.481470  2.497929
H    -2.132940  4.199195  3.537719
H    -3.711136  1.708173  4.457928
H    -4.360192  3.336305  4.580172
H    -3.487614  2.871806  6.664349
H    -2.362460  4.054312  5.961846
H    -0.785349  2.503956  6.629548
H    -1.790416  1.153458  6.311338
N    -3.814862  1.797521  0.303810
C    -4.375288  2.175728  -0.993368
H    -4.463337  1.679048  1.078519
H    -4.767220  1.292300  -1.517294
H    -3.596501  2.648147  -1.597886
H    -5.199141  2.879165  -0.832044
Hg    -0.846722  -0.265251  -1.791751
