34
Energy: -571606.608141 eV PBE+vdW (tier 2 basis)
C    -0.108595  -0.281674  0.364935
C    -0.157586  0.194454  1.779723
O    0.915660  0.238582  2.447744
H    0.647551  -1.072666  0.285336
H    0.228458  0.539658  -0.286098
H    -1.076051  -0.661209  0.019363
N    -1.323891  0.556972  2.365925
C    -2.366157  1.367163  1.738827
C    -2.056379  2.831436  2.161615
O    -1.273487  3.077434  3.114744
H    -1.202966  0.791117  3.352966
H    -2.253342  1.289143  0.649000
C    -3.793323  0.899043  2.116820
C    -4.116927  0.941928  3.614911
C    -5.584870  0.675167  3.971751
C    -6.022841  -0.827894  3.724725
N    -7.343115  -1.087344  4.158472
H    -3.899608  -0.120620  1.718279
H    -4.513429  1.520591  1.562138
H    -3.888219  1.943402  4.019357
H    -3.473488  0.239346  4.168419
H    -6.259145  1.325611  3.396599
H    -5.747456  0.891740  5.035375
H    -5.328126  -1.479173  4.273476
H    -5.954084  -1.035892  2.646143
H    -7.540112  -1.391277  5.108440
H    -8.148211  -0.865686  3.578622
N    -2.675900  3.807290  1.492870
C    -2.492709  5.233317  1.753551
H    -3.363853  3.547387  0.789492
H    -1.534725  5.386001  2.257622
H    -3.297463  5.613888  2.397872
H    -2.512627  5.774683  0.801769
Hg    1.107001  2.217499  3.756159
