34
Energy: -571606.817399 eV PBE+vdW (tier 2 basis)
C    -1.739390  1.050863  0.294818
C    -1.158983  0.613524  1.607755
O    0.029237  0.326261  1.769068
H    -1.070507  0.743570  -0.514023
H    -1.796065  2.150870  0.283006
H    -2.750281  0.662954  0.119690
N    -2.047604  0.558774  2.676121
C    -1.763172  0.058712  3.993461
C    -0.798220  1.014063  4.825129
O    -1.310172  1.386889  5.909752
H    -3.001332  0.866334  2.499480
H    -2.705101  0.086955  4.552183
C    -1.194157  -1.394371  4.076219
C    -2.215963  -2.441322  3.607985
C    -2.035650  -2.981224  2.184300
C    -0.939093  -4.141461  2.155011
N    -0.824608  -4.737836  0.884619
H    -0.929499  -1.568226  5.127214
H    -0.261249  -1.437255  3.498400
H    -3.242677  -2.041021  3.664069
H    -2.223761  -3.269963  4.331687
H    -1.711792  -2.208395  1.474662
H    -2.977707  -3.404646  1.813452
H    -1.233274  -4.902143  2.888444
H    0.022610  -3.690185  2.448034
H    -0.307639  -4.294949  0.129456
H    -1.341193  -5.580477  0.645815
N    0.389784  1.280693  4.323709
C    1.412462  2.127953  4.934007
H    0.556435  0.882621  3.381662
H    2.256711  2.182927  4.240222
H    1.772726  1.696874  5.877469
H    1.037600  3.146609  5.099454
Hg    -0.539505  2.691509  7.799453
