34
Energy: -571606.840861 eV PBE+vdW (tier 2 basis)
C    1.104731  3.329789  2.895941
C    1.116450  1.941403  3.463072
O    2.100171  1.451464  4.022318
H    1.757835  3.349243  2.011394
H    1.543607  4.016139  3.629787
H    0.108600  3.682269  2.607046
N    -0.051399  1.201543  3.314134
C    -0.214568  -0.204823  3.581221
C    -0.175943  -0.543374  5.139897
O    -1.210162  -1.143399  5.530513
H    -0.858389  1.691945  2.937905
H    -1.235881  -0.462252  3.279429
C    0.789138  -1.160503  2.882477
C    0.737619  -1.105873  1.332580
C    -0.304423  -2.030942  0.716031
C    -0.172384  -2.030640  -0.875668
N    -1.072686  -2.917316  -1.499868
H    0.570664  -2.177131  3.239767
H    1.809722  -0.923977  3.205813
H    1.740399  -1.398500  0.987430
H    0.593456  -0.069116  0.993764
H    -1.334066  -1.733728  0.960586
H    -0.160817  -3.066757  1.052482
H    -0.371192  -1.001978  -1.214608
H    0.856612  -2.314972  -1.129971
H    -0.806899  -3.870957  -1.731240
H    -2.042737  -2.663729  -1.667923
N    0.902425  -0.205107  5.812852
C    1.138389  -0.421038  7.238118
H    1.598192  0.335818  5.259617
H    2.124172  -0.010407  7.477182
H    1.145406  -1.491950  7.478767
H    0.393909  0.104223  7.852515
Hg    -1.974225  -1.906165  7.689080
