34
Energy: -571606.831138 eV PBE+vdW (tier 2 basis)
C    -3.422838  -0.332118  -0.435982
C    -2.510532  0.349960  0.545713
O    -1.394547  -0.205488  0.755009
H    -2.946252  -0.322440  -1.425507
H    -4.413458  0.131650  -0.498401
H    -3.532559  -1.384779  -0.144446
N    -2.957626  1.486386  1.113331
C    -2.474424  2.274894  2.273748
C    -1.339204  3.242836  1.876275
O    -0.123583  2.904921  1.744908
H    -3.871010  1.772870  0.773856
H    -3.337708  2.909556  2.519456
C    -2.165537  1.465476  3.549537
C    -3.338786  0.590597  4.008600
C    -3.124974  -0.145690  5.343268
C    -3.278051  0.721469  6.607582
N    -2.173054  1.596599  6.869300
H    -1.902899  2.198604  4.329146
H    -1.271078  0.833947  3.422540
H    -3.542749  -0.177979  3.247683
H    -4.254681  1.201605  4.071462
H    -2.148481  -0.655930  5.357383
H    -3.876480  -0.942763  5.417862
H    -3.404334  0.015491  7.461306
H    -4.200812  1.317830  6.577068
H    -2.336022  2.409691  7.459480
H    -1.256033  1.174844  7.005835
N    -1.674604  4.513825  1.690937
C    -0.725260  5.565878  1.314641
H    -2.636006  4.789744  1.870432
H    -1.287064  6.404123  0.893635
H    -0.022790  5.177216  0.570441
H    -0.162452  5.908159  2.192581
Hg    0.557890  0.726018  1.517319
