34
Energy: -571608.450069 eV PBE+vdW (tier 2 basis)
C    -3.000787  -0.367388  0.351615
C    -2.561885  0.592531  1.416162
O    -1.551807  0.345535  2.112673
H    -2.183506  -0.484236  -0.372920
H    -3.908077  -0.058199  -0.177907
H    -3.165177  -1.353736  0.804717
N    -3.305807  1.715515  1.576017
C    -3.101222  2.840465  2.502364
C    -1.723590  3.511994  2.271059
O    -0.623024  3.149302  2.828978
H    -4.098434  1.812934  0.949180
H    -3.836104  3.576486  2.154730
C    -3.432129  2.619987  4.023950
C    -4.230459  1.372216  4.458451
C    -3.499801  0.055109  4.807283
C    -2.506118  0.094274  5.985836
N    -1.048450  0.001145  5.557492
H    -4.017871  3.502866  4.313727
H    -2.525360  2.736074  4.647071
H    -4.990743  1.141027  3.699318
H    -4.803919  1.672994  5.347080
H    -3.009878  -0.389559  3.928512
H    -4.284520  -0.665456  5.074617
H    -2.670121  -0.753501  6.664540
H    -2.600597  1.011223  6.581761
H    -0.427431  0.115825  6.367321
H    -0.854450  -0.929221  5.166997
N    -1.676305  4.539587  1.446803
C    -0.449286  5.270031  1.102798
H    -2.547704  4.858721  1.031413
H    -0.684680  5.977730  0.304294
H    0.320261  4.568699  0.761762
H    -0.076919  5.816030  1.978360
Hg    -0.652097  1.430997  4.033944
