34
Energy: -571606.894947 eV PBE+vdW (tier 2 basis)
C    0.376154  -0.415623  -0.000160
C    0.186270  -0.306624  1.482617
O    1.085286  -0.474673  2.303639
H    0.668061  0.572159  -0.390586
H    -0.524947  -0.737349  -0.535479
H    1.203337  -1.102885  -0.203800
N    -1.105519  0.028264  1.908248
C    -1.568486  0.092596  3.264168
C    -0.932959  1.321326  4.088934
O    -1.808796  2.091076  4.546145
H    -1.767575  0.307501  1.186942
H    -2.636106  0.334643  3.224669
C    -1.372452  -1.182337  4.116806
C    -2.264243  -2.365004  3.654776
C    -1.777420  -3.082590  2.410075
C    -2.549142  -4.470985  2.129400
N    -2.146781  -5.532930  2.955966
H    -1.647327  -0.934361  5.151340
H    -0.313874  -1.470669  4.126185
H    -3.305831  -2.032787  3.525961
H    -2.270451  -3.052502  4.514330
H    -0.701974  -3.302948  2.455829
H    -1.969980  -2.505292  1.492986
H    -2.323352  -4.718777  1.082925
H    -3.624054  -4.279811  2.248534
H    -1.352036  -6.118458  2.714228
H    -2.621043  -5.751760  3.827124
N    0.376146  1.358450  4.210885
C    1.144523  2.378780  4.923448
H    0.879381  0.621970  3.682501
H    2.205215  2.140227  4.801294
H    0.910966  2.369954  5.995821
H    0.966130  3.377481  4.503402
Hg    -1.774243  4.102269  5.926691
