34
Energy: -571606.941907 eV PBE+vdW (tier 2 basis)
C    2.551687  1.282867  2.417341
C    1.447118  1.227866  3.440475
O    1.479561  2.172028  4.315478
H    3.463169  1.690103  2.865956
H    2.259248  1.951873  1.594898
H    2.760372  0.286298  2.011397
N    0.548127  0.240633  3.363366
C    -0.607271  0.312106  4.208285
C    -0.268797  0.201826  5.737888
O    -0.583932  1.112220  6.551003
H    0.482731  -0.761964  2.004867
H    -1.053684  1.343784  4.155253
C    -1.762102  -0.613583  3.766729
C    -1.641885  -2.145720  3.865891
C    -0.566742  -2.889305  3.050978
C    -0.560150  -2.598053  1.546608
N    0.432779  -1.504808  1.204222
H    -1.997718  -0.316235  2.731885
H    -2.646964  -0.320297  4.349992
H    -2.621919  -2.536255  3.553146
H    -1.557501  -2.449424  4.920039
H    -0.749094  -3.964653  3.179119
H    0.449442  -2.728055  3.450235
H    -1.543190  -2.265870  1.191193
H    -0.279974  -3.480431  0.961579
H    1.373487  -1.902900  1.100542
H    0.203367  -1.049195  0.313293
N    0.334807  -0.902251  6.154980
C    0.660029  -1.187825  7.553601
H    0.507137  -1.628753  5.465364
H    0.874795  -0.248262  8.072287
H    1.534328  -1.845672  7.578996
H    -0.181489  -1.685103  8.054309
Hg    -0.270772  3.115008  5.401805
