34
Energy: -571606.342641 eV PBE+vdW (tier 2 basis)
C    0.335758  1.302237  2.457237
C    -0.487118  0.504899  3.415905
O    -0.198904  0.546535  4.648045
H    -0.008073  2.348022  2.458347
H    0.300127  0.898510  1.439962
H    1.373409  1.314960  2.813411
N    -1.511894  -0.272156  2.993324
C    -2.514494  0.117304  1.998256
C    -3.561499  0.957380  2.767278
O    -3.707610  0.808082  4.013994
H    -1.907625  -0.850162  3.737051
H    -2.020287  0.731519  1.233579
C    -3.158352  -1.140113  1.368341
C    -2.153761  -2.047161  0.641018
C    -1.814073  -1.668828  -0.808590
C    -2.690131  -2.412811  -1.880520
N    -4.060521  -2.032639  -1.911802
H    -3.965200  -0.829310  0.687891
H    -3.652713  -1.701143  2.176642
H    -2.528127  -3.080347  0.675270
H    -1.214610  -2.076237  1.217017
H    -0.781606  -1.958140  -1.046109
H    -1.881563  -0.583989  -0.985653
H    -2.617292  -3.493525  -1.711700
H    -2.221605  -2.175252  -2.855458
H    -4.341111  -1.194683  -2.414106
H    -4.791152  -2.727669  -1.786911
N    -4.356400  1.812441  2.118960
C    -4.498547  2.033815  0.684693
H    -5.017391  2.299786  2.727083
H    -4.691146  3.098890  0.512758
H    -5.343934  1.459089  0.280819
H    -3.582480  1.758211  0.153935
Hg    -2.136108  0.778223  5.980994
