34
Energy: -571606.880637 eV PBE+vdW (tier 2 basis)
C    -0.460437  2.109198  1.342834
C    -0.197440  1.403090  2.641281
O    0.472306  2.024581  3.512731
H    -0.932968  3.077098  1.557308
H    -1.103339  1.534312  0.667036
H    0.498815  2.322184  0.852996
N    -0.702930  0.162138  2.793374
C    -0.828848  -0.614890  4.032441
C    0.361290  -1.592874  4.171448
O    1.540174  -1.147805  4.314824
H    -1.182005  -0.213155  1.979782
H    -0.685886  0.093507  4.865432
C    -2.252897  -1.194014  4.188478
C    -2.862881  -1.929314  2.978150
C    -4.131540  -2.736563  3.306219
C    -5.355286  -1.877963  3.705200
N    -6.535865  -2.662003  3.851737
H    -2.898792  -0.348505  4.464190
H    -2.244404  -1.851090  5.072794
H    -2.142861  -2.632333  2.527392
H    -3.103526  -1.208940  2.178941
H    -3.934538  -3.453303  4.117832
H    -4.396828  -3.332246  2.420554
H    -5.506849  -1.111890  2.909787
H    -5.192821  -1.327729  4.641143
H    -7.216892  -2.455602  4.575842
H    -6.847238  -3.278619  3.105710
N    0.158136  -2.902659  4.145271
C    1.221352  -3.901241  4.289535
H    -0.782039  -3.236034  3.956588
H    0.782798  -4.822754  4.682854
H    1.981935  -3.523856  4.979756
H    1.692022  -4.105690  3.319087
Hg    1.912541  1.034099  5.030363
