34
Energy: -571606.71812 eV PBE+vdW (tier 2 basis)
C    0.549269  -0.601111  0.552295
C    -0.071126  0.090531  1.730402
O    0.553553  0.336171  2.790563
H    -0.135145  -0.713381  -0.295138
H    0.887506  -1.599914  0.863834
H    1.430887  -0.032776  0.227150
N    -1.372198  0.470384  1.622638
C    -2.069164  1.255392  2.641783
C    -3.494078  0.694587  2.899735
O    -4.364163  1.416453  3.409925
H    -1.783086  0.405137  0.693973
H    -1.522842  1.068352  3.580701
C    -1.993838  2.775784  2.392788
C    -2.519554  3.342174  1.070067
C    -4.045928  3.445604  0.850549
C    -4.722718  4.478747  1.779203
N    -4.899159  4.064142  3.111956
H    -0.924837  3.029777  2.470057
H    -2.455649  3.284778  3.252640
H    -2.122511  2.765224  0.216072
H    -2.085069  4.344764  0.946425
H    -4.553001  2.476238  0.948797
H    -4.225060  3.782963  -0.178452
H    -5.742857  4.632024  1.329863
H    -4.253659  5.473754  1.745737
H    -4.851580  4.731958  3.879998
H    -5.028410  3.068356  3.341078
N    -3.712579  -0.597829  2.615199
C    -4.962167  -1.287051  2.933507
H    -2.915700  -1.158521  2.327564
H    -5.067645  -2.149863  2.268847
H    -5.801689  -0.599684  2.789833
H    -4.965972  -1.631616  3.976785
Hg    2.750037  -0.630985  3.441003
