34
Energy: -571606.488591 eV PBE+vdW (tier 2 basis)
C    -1.239819  -0.346271  -0.697473
C    -0.422181  -0.268338  0.550140
O    0.770674  -0.691318  0.530129
H    -2.314102  -0.381881  -0.488175
H    -0.942235  -1.242186  -1.256134
H    -1.010593  0.516178  -1.342225
N    -0.932498  0.225520  1.703128
C    -1.751552  1.435382  1.823555
C    -0.746118  2.607772  1.721740
O    0.420478  2.468344  2.190127
H    -0.305209  0.103786  2.500074
H    -2.469272  1.456440  0.994184
C    -2.491325  1.382590  3.180309
C    -3.488234  2.511058  3.473517
C    -4.241951  2.229174  4.786662
C    -5.319379  3.275274  5.123879
N    -4.807517  4.527310  5.566604
H    -1.734013  1.342583  3.980191
H    -3.016471  0.415752  3.197949
H    -4.216872  2.593844  2.651691
H    -2.974560  3.482210  3.548733
H    -3.534200  2.150852  5.627060
H    -4.747610  1.255314  4.722523
H    -5.946647  2.829469  5.935807
H    -6.013168  3.448943  4.288366
H    -5.366905  5.370976  5.466181
H    -4.106138  4.555376  6.304197
N    -1.086752  3.770893  1.159073
C    -2.373053  4.231176  0.648088
H    -0.320865  4.447735  1.138507
H    -3.060510  3.394962  0.499834
H    -2.211073  4.730535  -0.314856
H    -2.830345  4.951692  1.339093
Hg    2.244342  0.796172  1.645236
