34
Energy: -571606.50484 eV PBE+vdW (tier 2 basis)
C    -0.591396  0.505176  -0.319699
C    -0.415505  0.381179  1.161453
O    0.712173  0.183347  1.690173
H    -0.077157  -0.332323  -0.807108
H    -0.106460  1.434216  -0.653627
H    -1.631861  0.516425  -0.653357
N    -1.461889  0.464346  2.018126
C    -2.898153  0.518814  1.721248
C    -3.523776  1.593579  2.671054
O    -4.258012  1.246921  3.607717
H    -1.193636  0.350625  2.996037
H    -3.015015  0.930415  0.710614
C    -3.591770  -0.856624  1.733587
C    -3.160521  -1.914261  2.753145
C    -3.563823  -1.767173  4.230522
C    -5.092549  -1.969331  4.455868
N    -5.896632  -0.903780  4.012333
H    -3.418075  -1.286306  0.734081
H    -4.682501  -0.691149  1.771694
H    -2.059372  -2.008261  2.743730
H    -3.520014  -2.886720  2.386462
H    -3.269101  -0.801136  4.659614
H    -3.060917  -2.548314  4.815122
H    -5.183868  -2.042810  5.570559
H    -5.461321  -2.919616  4.048951
H    -6.788206  -1.069468  3.549789
H    -5.611973  0.064917  4.180248
N    -3.241157  2.881463  2.432518
C    -2.405321  3.462636  1.385545
H    -3.662603  3.525596  3.100382
H    -2.634081  4.530945  1.326520
H    -2.627921  3.024673  0.404983
H    -1.336165  3.351786  1.610548
Hg    2.922877  0.434259  0.694471
