34
Energy: -571606.326423 eV PBE+vdW (tier 2 basis)
C    -0.134473  -0.296554  -0.300851
C    -0.007391  -0.319244  1.186050
O    1.146775  -0.253532  1.696022
H    0.714346  0.269801  -0.703184
H    -1.071226  0.156843  -0.634727
H    -0.051785  -1.320660  -0.693629
N    -1.086599  -0.320046  2.030282
C    -2.221572  -1.245176  1.997117
C    -1.604812  -2.622998  2.423587
O    -0.484680  -2.933721  1.951007
H    -0.790278  -0.108731  2.985999
H    -2.899224  -0.901621  2.793294
C    -3.022302  -1.325379  0.682081
C    -4.344728  -2.084132  0.842292
C    -5.232466  -2.123379  -0.415147
C    -5.973275  -0.803888  -0.730648
N    -5.160079  0.218089  -1.303191
H    -2.421902  -1.798387  -0.106391
H    -3.224869  -0.289345  0.363069
H    -4.923849  -1.665730  1.682539
H    -4.140442  -3.135881  1.101838
H    -6.007683  -2.886987  -0.270889
H    -4.652064  -2.444342  -1.294141
H    -6.486945  -0.399866  0.152298
H    -6.778887  -1.077235  -1.454473
H    -5.417265  1.193654  -1.168811
H    -4.672077  0.024632  -2.176058
N    -2.283284  -3.376677  3.286794
C    -1.802894  -4.650465  3.821312
H    -3.180821  -3.034921  3.622896
H    -2.653280  -5.332088  3.931730
H    -1.341144  -4.505381  4.808293
H    -1.071246  -5.077554  3.130379
Hg    1.741235  -2.213126  2.918949
