34
Energy: -571606.640292 eV PBE+vdW (tier 2 basis)
C    0.177022  -1.277458  -0.996544
C    -0.241539  -1.102262  0.437680
O    0.452286  -0.167883  1.214663
H    1.153369  -1.774425  -1.045769
H    0.249872  -0.301937  -1.490982
H    -0.547730  -1.903350  -1.529036
N    -1.518464  -0.485616  0.719434
C    -2.232649  -1.132720  1.791278
C    -1.414761  -2.405244  1.942116
O    -0.343552  -2.379951  1.095363
H    -1.709928  0.466577  0.409432
H    -2.166185  -0.542809  2.721957
C    -3.742069  -1.346584  1.428534
C    -4.726564  -0.780906  2.457773
C    -4.712520  -1.402134  3.863078
C    -5.091515  -2.892440  3.926091
N    -3.910616  -3.756199  4.299688
H    -3.893220  -2.422089  1.256653
H    -3.934705  -0.871130  0.456932
H    -5.736262  -0.885486  2.031706
H    -4.568566  0.303361  2.559685
H    -5.421439  -0.837594  4.482161
H    -3.735083  -1.246745  4.351265
H    -5.458206  -3.267092  2.962409
H    -5.874702  -3.080232  4.668513
H    -3.620832  -3.570051  5.267447
H    -4.153461  -4.753204  4.249291
N    -1.694750  -3.376532  2.709345
C    -0.821922  -4.553293  2.761386
H    -3.046562  -3.567296  3.647051
H    -1.203393  -5.324975  2.077323
H    -0.837306  -4.965046  3.777257
H    0.214182  -4.328648  2.483871
Hg    2.617429  -0.191748  1.402924
