34
Energy: -571606.44951 eV PBE+vdW (tier 2 basis)
C    -0.517230  0.897954  0.408691
C    -0.268010  -0.110596  1.501070
O    0.721885  -0.888575  1.292698
H    -1.573263  0.894578  0.110799
H    0.103982  0.661176  -0.459053
H    -0.243483  1.899455  0.771612
N    -1.026904  -0.158250  2.584524
C    -2.159585  0.697913  2.960311
C    -2.094181  0.695712  4.507715
O    -1.617044  -0.291750  5.073936
H    -0.799443  -0.804574  3.355594
H    -2.011335  1.707604  2.553199
C    -3.487069  0.062905  2.464357
C    -4.792745  0.841614  2.695258
C    -4.941938  2.106014  1.838508
C    -6.438870  2.548365  1.679616
N    -7.052171  3.017882  2.867560
H    -3.576882  -0.921022  2.949262
H    -3.373559  -0.139047  1.387919
H    -4.935592  1.081438  3.760149
H    -5.604425  0.141595  2.445345
H    -4.582320  1.929088  0.813752
H    -4.366214  2.956529  2.234600
H    -7.030521  1.721817  1.269870
H    -6.419836  3.368338  0.930471
H    -7.915078  2.608587  3.215067
H    -6.786743  3.911706  3.273658
N    -2.600805  1.761150  5.163344
C    -2.610523  1.861481  6.618134
H    -2.847237  2.586604  4.625208
H    -2.620001  0.853066  7.042794
H    -3.498131  2.418408  6.937361
H    -1.714389  2.386334  6.981305
Hg    1.759030  -2.417603  2.681491
