34
Energy: -571606.688787 eV PBE+vdW (tier 2 basis)
C    0.175401  1.576515  0.597071
C    -0.030017  0.747922  1.825914
O    0.899888  0.393639  2.598742
H    -0.528525  2.417504  0.551472
H    0.033678  0.961923  -0.304064
H    1.197851  1.962117  0.575591
N    -1.263400  0.281055  2.147865
C    -2.450094  0.208607  1.315968
C    -3.636552  0.699565  2.232409
O    -4.031966  -0.045754  3.122965
H    -1.291003  -0.258277  3.017877
H    -2.326349  0.892851  0.466383
C    -2.744872  -1.225659  0.824685
C    -3.966741  -1.300096  -0.093955
C    -4.263171  -2.684545  -0.681942
C    -4.813790  -3.702543  0.408794
N    -5.194802  -4.937800  -0.155614
H    -2.886726  -1.848602  1.721281
H    -1.850283  -1.591666  0.298258
H    -3.811854  -0.637119  -0.963822
H    -4.861549  -0.919255  0.422649
H    -3.369831  -3.128077  -1.143593
H    -5.031623  -2.597444  -1.460495
H    -5.680340  -3.243089  0.901897
H    -4.009861  -3.872064  1.142640
H    -4.507493  -5.646519  -0.400243
H    -6.151280  -5.114495  -0.452599
N    -4.119858  1.925611  1.970859
C    -5.265833  2.487002  2.686579
H    -3.770135  2.426569  1.160457
H    -5.166151  3.577149  2.708535
H    -5.274267  2.087953  3.706121
H    -6.211518  2.223634  2.193837
Hg    2.863815  1.638889  3.299664
