34
Energy: -571606.535355 eV PBE+vdW (tier 2 basis)
C    -0.549467  1.170169  -0.799370
C    -0.142505  0.974151  0.636483
O    1.042853  1.331672  0.928243
H    -1.206215  2.051119  -0.867579
H    -1.082595  0.294874  -1.189144
H    0.338014  1.359817  -1.409354
N    -0.981700  0.458058  1.531779
C    -2.406363  0.175577  1.377082
C    -2.978413  0.444233  2.789019
O    -2.200153  0.418800  3.751171
H    -0.721385  0.435751  2.531345
H    -2.832778  0.865236  0.636377
C    -2.708716  -1.282383  0.913683
C    -2.338333  -2.392418  1.903871
C    -2.701800  -3.768246  1.317350
C    -2.480680  -4.934792  2.320242
N    -1.124861  -5.271732  2.549978
H    -2.188244  -1.436466  -0.043565
H    -3.783427  -1.332276  0.684128
H    -2.874997  -2.247382  2.853763
H    -1.264282  -2.364452  2.142552
H    -2.130926  -3.968096  0.397775
H    -3.764045  -3.797047  1.036061
H    -2.996435  -5.809035  1.852910
H    -2.976960  -4.751936  3.281269
H    -0.519022  -5.532279  1.774512
H    -0.795466  -5.523481  3.478265
N    -4.303032  0.652168  2.951456
C    -5.340747  0.890424  1.960398
H    -4.564773  0.785734  3.929967
H    -5.688952  1.932259  2.015512
H    -6.199275  0.235559  2.162012
H    -4.978557  0.696146  0.947958
Hg    1.963706  2.034979  2.962830
