34
Energy: -571606.498818 eV PBE+vdW (tier 2 basis)
C    0.021405  0.997567  -0.049062
C    -0.059507  0.145015  1.169878
O    1.008468  -0.096831  1.818289
H    0.931829  0.723833  -0.600806
H    0.148298  2.051126  0.243519
H    -0.849951  0.880258  -0.700607
N    -1.228675  -0.394205  1.593078
C    -2.530146  0.261743  1.692836
C    -2.551820  1.093524  2.998168
O    -1.791617  0.856560  4.011683
H    -1.115051  -1.187378  2.228021
H    -2.633447  0.956404  0.848915
C    -3.630952  -0.829309  1.650956
C    -5.104656  -0.412364  1.740205
C    -5.752950  0.226416  0.497161
C    -5.265289  1.607760  0.063387
N    -5.301363  2.600030  1.149159
H    -3.424143  -1.526488  2.479945
H    -3.460446  -1.396331  0.722857
H    -5.278100  0.210629  2.631537
H    -5.663901  -1.336751  1.941091
H    -6.836092  0.284257  0.685150
H    -5.644898  -0.447307  -0.365599
H    -5.895709  1.951466  -0.778517
H    -4.240991  1.586688  -0.341054
H    -5.083673  3.543773  0.819992
H    -6.215398  2.630054  1.610892
N    -3.457536  2.040519  3.117481
C    -3.589488  2.907841  4.288442
H    -4.186838  2.195951  2.325974
H    -4.071263  2.367696  5.115027
H    -4.215879  3.760918  4.010748
H    -2.608481  3.260382  4.624599
Hg    0.346249  0.042130  4.030686
