34
Energy: -571606.97695 eV PBE+vdW (tier 2 basis)
C    0.547479  0.976628  0.860315
C    -0.104821  -0.089793  1.712541
O    0.240349  -1.272720  1.503086
H    0.774420  1.892671  1.410433
H    -0.148563  1.222113  0.043380
H    1.454496  0.561443  0.412539
N    -1.002377  0.190343  2.725651
C    -2.186411  1.050288  2.635186
C    -3.293356  0.365475  1.758305
O    -3.489567  -0.881873  1.819764
H    -0.193139  0.751004  4.431492
H    -2.624876  1.012916  3.649224
C    -1.942816  2.548517  2.340391
C    -0.908143  3.226656  3.252852
C    -1.188492  3.198002  4.776951
C    -0.072393  2.569552  5.599841
N    -0.024635  1.052623  5.429703
H    -2.905624  3.064834  2.482184
H    -1.647656  2.704881  1.294102
H    -0.834346  4.271611  2.925769
H    0.088637  2.803572  3.058578
H    -2.149488  2.713804  5.017167
H    -1.299058  4.224116  5.151917
H    -0.191015  2.754576  6.673827
H    0.912163  2.945190  5.295190
H    -0.750805  0.608593  6.005732
H    0.878786  0.671249  5.740264
N    -4.068280  1.117433  0.990396
C    -5.184709  0.584329  0.200204
H    -3.919107  2.120741  0.982388
H    -5.475712  1.336953  -0.537180
H    -6.040063  0.357513  0.848916
H    -4.871687  -0.332888  -0.309145
Hg    -1.672308  -2.034550  2.750281
