34
Energy: -571607.588603 eV PBE+vdW (tier 2 basis)
C    0.458516  0.723480  1.701518
C    -0.760631  0.352819  2.451636
O    -0.655349  0.118304  3.716383
H    0.897294  1.637370  2.124633
H    0.279606  0.825281  0.627560
H    1.202238  -0.075769  1.859817
N    -1.962750  0.202930  1.844398
C    -2.608110  1.225485  0.995970
C    -2.230322  2.599385  1.590732
O    -1.974245  2.682784  2.821067
H    -2.621697  -0.388491  2.351758
H    -2.264689  1.120414  -0.040688
C    -4.158333  1.018521  1.054568
C    -4.946576  1.859670  2.102752
C    -5.937687  1.135849  3.033304
C    -5.409448  0.266288  4.170947
N    -4.492530  1.005085  5.154951
H    -4.339854  -0.061332  1.175532
H    -4.550736  1.246778  0.057137
H    -5.540249  2.600345  1.552366
H    -4.263980  2.469888  2.709904
H    -6.605445  0.483484  2.449038
H    -6.603225  1.897694  3.469250
H    -4.864647  -0.619938  3.818488
H    -6.256153  -0.102316  4.766170
H    -4.756932  1.996253  5.222675
H    -4.599522  0.609674  6.096575
N    -2.229719  3.666874  0.797093
C    -2.466491  3.719425  -0.650241
H    -2.032112  4.546106  1.274064
H    -1.768935  3.071105  -1.194527
H    -2.296850  4.747154  -0.982121
H    -3.499840  3.447892  -0.899205
Hg    -2.449053  0.816151  4.581473
