34
Energy: -571606.538008 eV PBE+vdW (tier 2 basis)
C    0.177333  -1.025636  0.169207
C    0.165057  -0.488807  1.563203
O    1.223001  -0.564110  2.254626
H    0.613437  -0.275345  -0.508241
H    -0.822575  -1.306482  -0.177486
H    0.839949  -1.899323  0.135723
N    -0.951620  0.052703  2.104262
C    -1.860641  0.983234  1.431480
C    -1.162303  2.366512  1.485263
O    -0.377349  2.660917  2.427322
H    -0.853334  0.256543  3.100387
H    -1.979902  0.667189  0.385465
C    -3.226552  0.962918  2.156056
C    -4.341921  1.783659  1.496122
C    -5.671629  1.765717  2.279635
C    -6.479205  0.459830  2.191829
N    -7.097149  0.248941  0.926500
H    -3.074731  1.314650  3.189829
H    -3.513695  -0.096912  2.223827
H    -4.516050  1.434228  0.465107
H    -4.037243  2.838968  1.429217
H    -6.305476  2.592637  1.926229
H    -5.483005  1.971857  3.342764
H    -7.271071  0.523149  2.979610
H    -5.898566  -0.436698  2.455590
H    -7.379570  -0.686244  0.643019
H    -7.598126  1.011514  0.474082
N    -1.444397  3.246681  0.522106
C    -0.886064  4.595372  0.444792
H    -2.149824  2.991887  -0.165316
H    0.079843  4.614885  0.957106
H    -1.555770  5.319580  0.928952
H    -0.763653  4.868591  -0.608206
Hg    1.600043  1.448747  3.439584
