34
Energy: -571606.524284 eV PBE+vdW (tier 2 basis)
C    -0.526472  0.669601  -0.884297
C    -0.280043  0.247796  0.527782
O    0.863450  -0.194856  0.839303
H    -0.197485  1.713274  -1.008736
H    -1.579257  0.580372  -1.172471
H    0.096962  0.060626  -1.549474
N    -1.253705  0.320809  1.464662
C    -2.220838  1.407695  1.598335
C    -1.465362  2.620139  2.218753
O    -0.234313  2.569936  2.486177
H    -0.993299  -0.111643  2.352504
H    -2.550200  1.703553  0.590949
C    -3.421407  0.957499  2.453454
C    -4.237373  -0.231873  1.916384
C    -5.053783  0.070662  0.652068
C    -6.183750  -0.972008  0.407427
N    -5.728038  -2.269611  0.051955
H    -4.091410  1.817420  2.599697
H    -3.050368  0.705403  3.460463
H    -4.922109  -0.523993  2.726554
H    -3.588454  -1.104243  1.745908
H    -4.418473  0.123420  -0.245818
H    -5.558938  1.044275  0.739463
H    -6.799641  -0.558227  -0.423563
H    -6.837913  -1.051024  1.284162
H    -6.145872  -3.100213  0.462582
H    -5.203717  -2.416792  -0.807059
N    -2.154615  3.739482  2.433114
C    -1.580774  4.957591  3.009359
H    -3.110725  3.790912  2.091895
H    -1.107153  5.570106  2.230618
H    -0.827110  4.685880  3.754496
H    -2.383026  5.531360  3.482409
Hg    1.583913  0.859079  2.827618
