34
Energy: -571606.428046 eV PBE+vdW (tier 2 basis)
C    -1.834533  1.209129  1.821345
C    -2.685878  0.873229  3.001785
O    -2.973850  1.794198  3.819218
H    -2.122216  0.652980  0.924717
H    -0.780213  1.003968  2.059424
H    -1.920543  2.285363  1.633280
N    -3.233436  -0.363027  3.201973
C    -2.543830  -1.652982  3.129551
C    -1.479366  -1.626222  4.273570
O    -1.012350  -0.515397  4.631288
H    -3.928646  -0.332152  3.949781
H    -3.313445  -2.396462  3.385313
C    -1.924259  -2.047479  1.774777
C    -2.964881  -2.190846  0.653913
C    -2.304289  -2.532525  -0.689533
C    -3.317033  -2.627743  -1.856423
N    -4.141809  -3.783912  -1.824185
H    -1.409759  -3.008705  1.919639
H    -1.135789  -1.335649  1.496690
H    -3.542273  -1.257349  0.559216
H    -3.695138  -2.972558  0.917735
H    -1.743850  -3.477800  -0.621318
H    -1.570654  -1.760767  -0.963806
H    -2.702392  -2.641270  -2.788971
H    -3.954345  -1.736106  -1.924663
H    -5.099234  -3.748026  -2.164484
H    -3.723446  -4.710848  -1.781139
N    -1.088806  -2.762181  4.856143
C    -1.436330  -4.143049  4.538799
H    -0.416013  -2.622218  5.612389
H    -2.390149  -4.196683  4.005067
H    -1.526579  -4.708382  5.472847
H    -0.652118  -4.608707  3.925030
Hg    -2.070414  1.370342  5.973463
