34
Energy: -571607.659895 eV PBE+vdW (tier 2 basis)
C    -0.954262  2.581460  -0.578251
C    -0.860832  1.207209  0.010988
O    -0.085887  0.341311  -0.312425
H    -1.951693  2.765616  -1.003716
H    -0.211624  2.670033  -1.376062
H    -0.757070  3.356942  0.176262
N    -1.756116  0.868762  1.118621
C    -3.013456  1.540429  1.460730
C    -2.701978  2.888780  2.122117
O    -1.724475  3.004484  2.960756
H    -1.874136  -0.145447  1.086014
H    -3.631197  1.703715  0.567391
C    -3.815128  0.684983  2.507367
C    -3.677503  -0.863226  2.458546
C    -2.824723  -1.585567  3.538665
C    -1.312488  -1.820433  3.353183
N    -0.404742  -0.831070  4.071147
H    -4.870928  0.951622  2.373314
H    -3.573431  1.030100  3.527620
H    -3.406276  -1.222989  1.451866
H    -4.694885  -1.252047  2.594707
H    -3.251064  -2.595265  3.620906
H    -3.016029  -1.139804  4.529948
H    -1.002849  -1.827737  2.299642
H    -1.042113  -2.801786  3.768081
H    0.580345  -1.063031  3.889381
H    -0.536962  -0.901061  5.087856
N    -3.443769  3.949926  1.893714
C    -4.584223  4.075160  0.971850
H    -3.186993  4.780898  2.429894
H    -4.280282  3.868262  -0.061065
H    -4.938019  5.108175  1.024454
H    -5.406319  3.413329  1.267449
Hg    -0.826914  1.158973  3.443067
