34
Energy: -571606.534247 eV PBE+vdW (tier 2 basis)
C    -0.001732  0.101115  -0.615400
C    0.093689  -0.461808  0.761814
O    1.154615  -0.986852  1.202145
H    -0.988314  0.472369  -0.886708
H    0.298072  -0.667944  -1.337309
H    0.721380  0.931623  -0.681319
N    -0.926741  -0.447898  1.670887
C    -2.368225  -0.463495  1.477926
C    -2.787888  -1.719336  0.617508
O    -2.290097  -1.841731  -0.498752
H    -0.613003  -0.802549  2.576466
H    -2.765693  -0.597576  2.492082
C    -2.968629  0.829622  0.866018
C    -4.454864  1.011235  1.215577
C    -4.973887  2.328516  0.618200
C    -6.465234  2.617415  0.972596
N    -7.406646  1.814215  0.285739
H    -2.851034  0.823256  -0.224694
H    -2.385735  1.675262  1.258706
H    -4.582423  1.028377  2.309011
H    -5.050437  0.170565  0.827539
H    -4.856890  2.332771  -0.476039
H    -4.394575  3.180269  1.001377
H    -6.611450  3.683667  0.680841
H    -6.645934  2.550480  2.052079
H    -8.208940  1.416336  0.765394
H    -7.459526  1.835054  -0.730151
N    -3.672543  -2.578814  1.148720
C    -4.239692  -2.603364  2.497881
H    -3.882127  -3.369883  0.541586
H    -4.904603  -3.469934  2.561314
H    -4.837976  -1.708411  2.706635
H    -3.465727  -2.725292  3.267400
Hg    3.368785  -0.368868  0.537852
