34
Energy: -571606.980014 eV PBE+vdW (tier 2 basis)
C    0.379459  2.137492  1.066660
C    0.184554  1.157930  2.180751
O    1.097729  1.131869  3.074044
H    0.432535  3.148033  1.498533
H    -0.432049  2.107753  0.331184
H    1.343635  1.948865  0.577491
N    -0.917198  0.388492  2.176154
C    -1.599165  -0.288602  3.303134
C    -1.321471  -1.807233  3.326111
O    -0.117460  -2.257605  3.505807
H    -1.509289  0.507714  1.356028
H    -1.150987  0.096064  4.236448
C    -3.084482  0.111101  3.304676
C    -3.810974  -0.001332  1.944144
C    -5.322275  -0.275255  2.070760
C    -5.686533  -1.758640  2.062166
N    -5.026274  -2.529918  3.138031
H    -3.147770  1.146560  3.666079
H    -3.578811  -0.490450  4.078107
H    -3.367959  -0.793884  1.316065
H    -3.677269  0.939436  1.390500
H    -5.850437  0.184691  1.225383
H    -5.722344  0.217772  2.970905
H    -5.393453  -2.215583  1.105743
H    -6.782709  -1.865920  2.137619
H    -5.340585  -2.222238  4.063068
H    -5.268108  -3.521416  3.064019
N    -2.273174  -2.697281  3.189638
C    -2.001115  -4.138479  3.269029
H    -3.330368  -2.452688  3.099302
H    -2.959218  -4.664196  3.271351
H    -1.446220  -4.380482  4.183140
H    -1.412575  -4.466404  2.403292
Hg    1.388386  -0.798368  4.109467
