34
Energy: -571607.018807 eV PBE+vdW (tier 2 basis)
C    0.996580  0.700611  1.998134
C    0.077385  -0.466388  2.004858
O    0.391524  -1.657267  1.591108
H    0.476024  1.607914  2.318227
H    1.413662  0.854841  0.993921
H    1.836615  0.512645  2.683452
N    -1.188696  -0.360277  2.302073
C    -2.194250  -1.159041  2.871445
C    -2.852398  -2.089015  1.758889
O    -3.624923  -1.620916  0.914034
H    -5.032879  -0.603381  0.685725
H    -1.790346  -1.800442  3.668790
C    -3.337631  -0.269694  3.463110
C    -3.737499  0.931952  2.594039
C    -5.214918  1.341657  2.695546
C    -6.228118  0.331635  2.163286
N    -5.931094  -0.060466  0.727226
H    -2.988439  0.069375  4.447335
H    -4.181805  -0.947707  3.654663
H    -3.471010  0.741920  1.544514
H    -3.122745  1.798422  2.876899
H    -5.354433  2.299933  2.171670
H    -5.492424  1.539182  3.741761
H    -7.242939  0.744850  2.185096
H    -6.234640  -0.608197  2.729053
H    -6.678156  -0.650353  0.339988
H    -5.847606  0.766504  0.121879
N    -2.542130  -3.388109  1.813301
C    -1.679683  -4.107319  2.753001
H    -3.012813  -3.944894  1.101338
H    -0.664175  -3.696522  2.749371
H    -1.633825  -5.150277  2.426368
H    -2.087121  -4.093068  3.771854
Hg    2.517080  -2.498419  1.363910
