34
Energy: -571606.61202 eV PBE+vdW (tier 2 basis)
C    -2.615212  -3.846741  0.767637
C    -1.531393  -2.879790  1.115642
O    -0.330714  -3.279943  1.114141
H    -2.706577  -3.916034  -0.327319
H    -3.578340  -3.565475  1.206407
H    -2.324120  -4.843266  1.121803
N    -1.805215  -1.596998  1.449868
C    -2.769223  -0.722449  0.782635
C    -2.045157  -0.192319  -0.481369
O    -0.790315  -0.089363  -0.513050
H    -0.984092  -1.088209  1.782158
H    -3.644983  -1.318451  0.489837
C    -3.186824  0.396030  1.767351
C    -4.333276  1.309452  1.314997
C    -4.685753  2.322802  2.418668
C    -5.810512  3.300925  2.025532
N    -7.107228  2.717511  1.987981
H    -2.296012  1.002838  1.998606
H    -3.470244  -0.111490  2.701509
H    -5.225933  0.711268  1.068261
H    -4.051076  1.860800  0.403648
H    -3.802680  2.927879  2.668112
H    -4.969572  1.798469  3.344525
H    -5.616322  3.801486  1.066271
H    -5.796606  4.114300  2.792585
H    -7.827933  3.104685  1.383801
H    -7.445673  2.177948  2.782343
N    -2.796744  0.178045  -1.521487
C    -2.264406  0.705433  -2.776447
H    -3.807720  0.152273  -1.413285
H    -1.251526  0.321188  -2.926724
H    -2.222468  1.803066  -2.749773
H    -2.915029  0.390285  -3.598404
Hg    1.109235  -1.692281  0.102621
