34
Energy: -571606.552395 eV PBE+vdW (tier 2 basis)
C    0.011562  0.367936  0.304820
C    -0.118993  -0.084000  1.719696
O    0.850319  -0.093028  2.530982
H    -0.863810  0.135694  -0.308396
H    0.891024  -0.122686  -0.134754
H    0.208304  1.449354  0.286050
N    -1.294391  -0.505634  2.257570
C    -2.684861  -0.275284  1.837665
C    -3.019089  -1.282261  0.670498
O    -2.862737  -0.936134  -0.496434
H    -1.171300  -0.866788  3.205184
H    -3.282527  -0.559137  2.715191
C    -3.012496  1.170912  1.434553
C    -4.513643  1.477818  1.267051
C    -5.284483  1.621666  2.584280
C    -6.759124  2.126103  2.296173
N    -7.515490  2.335820  3.471586
H    -2.527895  1.384613  0.473426
H    -2.571517  1.842491  2.185947
H    -4.986218  0.722832  0.620246
H    -4.579934  2.423671  0.710460
H    -4.800934  2.356424  3.243565
H    -5.362538  0.675508  3.139200
H    -7.264042  1.382695  1.664757
H    -6.669155  3.076945  1.747429
H    -7.442005  3.199234  4.003498
H    -8.134343  1.622615  3.847004
N    -3.443629  -2.501599  1.052791
C    -3.835970  -3.533544  0.095745
H    -3.624479  -2.669719  2.037771
H    -3.656451  -4.516146  0.544332
H    -3.240359  -3.415491  -0.815643
H    -4.899407  -3.450156  -0.168106
Hg    3.186981  -0.466847  2.034732
