34
Energy: -571606.564944 eV PBE+vdW (tier 2 basis)
C    -0.274061  0.627890  0.200004
C    -0.090063  -0.021884  1.533756
O    1.078360  -0.195788  1.975904
H    -1.164489  1.262485  0.165913
H    -0.339871  -0.140003  -0.583890
H    0.615965  1.232223  -0.008909
N    -1.143426  -0.350240  2.350632
C    -2.319333  -1.113506  1.958444
C    -1.766338  -2.513616  1.468964
O    -0.640011  -2.546110  0.939593
H    -0.810508  -0.587641  3.287089
H    -2.880408  -1.277503  2.890319
C    -3.274433  -0.498060  0.916369
C    -3.913166  0.814661  1.408896
C    -4.877275  1.382631  0.366158
C    -5.531386  2.736733  0.881011
N    -6.429250  3.293612  -0.055337
H    -4.063264  -1.241095  0.727261
H    -2.760781  -0.357077  -0.043213
H    -3.122797  1.545603  1.639752
H    -4.448649  0.630492  2.353226
H    -5.694755  0.679746  0.154001
H    -4.364015  1.593445  -0.582612
H    -4.722418  3.452778  1.080862
H    -6.067752  2.510887  1.814516
H    -7.397879  2.989210  -0.110085
H    -6.118426  3.945455  -0.770761
N    -2.538489  -3.580212  1.680277
C    -2.139660  -4.952402  1.370420
H    -3.442880  -3.444264  2.125880
H    -1.356534  -4.932974  0.607784
H    -3.012863  -5.498107  0.995876
H    -1.767121  -5.460800  2.270715
Hg    1.729098  -2.502320  2.121107
