34
Energy: -571607.00477 eV PBE+vdW (tier 2 basis)
C    0.691372  0.089847  0.246970
C    0.357149  0.203955  1.706967
O    1.182364  0.810895  2.443307
H    1.597379  -0.522231  0.140980
H    0.932174  1.087310  -0.142522
H    -0.120358  -0.347753  -0.344632
N    -0.800123  -0.347276  2.127739
C    -1.457792  -0.183061  3.430138
C    -1.005679  -1.303008  4.399008
O    0.037700  -1.176721  5.110985
H    -1.339808  -0.828834  1.412494
H    -1.079599  0.750127  3.875751
C    -2.982137  -0.068899  3.251257
C    -3.475149  1.199677  2.529521
C    -3.379763  2.486818  3.361954
C    -4.026382  3.701086  2.660529
N    -5.448520  3.618258  2.568451
H    -3.446127  -0.123401  4.247444
H    -3.347684  -0.945353  2.688041
H    -4.527192  1.029889  2.259184
H    -2.940525  1.329418  1.575015
H    -2.333644  2.760122  3.566408
H    -3.859222  2.342536  4.343478
H    -3.618062  3.850463  1.651562
H    -3.739918  4.605461  3.244977
H    -5.933879  4.057752  1.791122
H    -6.004169  3.497997  3.412340
N    -1.710288  -2.421082  4.471776
C    -1.353781  -3.558668  5.328342
H    -2.582780  -2.472411  3.953499
H    -0.283942  -3.771605  5.233290
H    -1.934222  -4.427301  5.006911
H    -1.581722  -3.333981  6.377916
Hg    1.488565  0.583302  4.740979
