34
Energy: -571606.844015 eV PBE+vdW (tier 2 basis)
C    -1.363142  -1.834683  0.268197
C    -1.400712  -1.130910  1.612858
O    -0.974321  0.118516  1.432254
H    -2.073757  -2.667573  0.246320
H    -0.342434  -2.195569  0.073826
H    -1.615109  -1.135738  -0.535625
N    -1.802406  -1.797343  2.654636
C    -1.706589  -1.545162  4.108023
C    -2.632969  -0.477674  4.759630
O    -2.395658  0.790835  4.813160
H    -1.604059  -3.396559  2.483973
H    -2.094517  -2.476962  4.551997
C    -0.239523  -1.410460  4.609451
C    0.450583  -2.738978  4.972270
C    0.727407  -3.792470  3.879200
C    -0.370863  -4.825687  3.590497
N    -1.271757  -4.450831  2.432587
H    -0.222402  -0.785606  5.514956
H    0.366580  -0.885588  3.853629
H    -0.101271  -3.212367  5.800929
H    1.421953  -2.460765  5.403626
H    1.592689  -4.375773  4.221886
H    1.067266  -3.319048  2.943337
H    -1.020417  -4.978383  4.461757
H    0.067708  -5.798009  3.338218
H    -2.087699  -5.072329  2.382200
H    -0.765494  -4.560436  1.545974
N    -3.698348  -0.918028  5.401722
C    -4.648927  -0.069833  6.128847
H    -3.844697  -1.923445  5.438896
H    -5.611168  -0.587818  6.172060
H    -4.759769  0.886401  5.608989
H    -4.288012  0.115933  7.148841
Hg    -1.226163  1.322339  3.101883
