34
Energy: -571606.81818 eV PBE+vdW (tier 2 basis)
C    -0.713343  1.590437  -0.819655
C    -0.834388  1.538929  0.671886
O    -0.044903  0.728010  1.266246
H    -1.458419  2.242891  -1.287794
H    -0.831058  0.570565  -1.213714
H    0.299582  1.917848  -1.090151
N    -1.744033  2.331949  1.265218
C    -2.439909  2.261216  2.575025
C    -1.787726  2.990014  3.757740
O    -0.529479  2.999911  4.050870
H    -2.199845  2.960272  0.608386
H    -3.349558  2.844534  2.382629
C    -2.924127  0.847612  2.984421
C    -4.202022  0.410009  2.250942
C    -5.416779  1.353311  2.358593
C    -5.847831  1.775565  3.771623
N    -5.368086  3.126092  4.159102
H    -3.108531  0.866188  4.068695
H    -2.139815  0.093949  2.824984
H    -4.476513  -0.575664  2.653407
H    -3.988551  0.239794  1.184783
H    -6.257571  0.830121  1.882904
H    -5.281531  2.256169  1.737715
H    -5.499645  1.060875  4.531156
H    -6.949824  1.761530  3.830757
H    -5.756568  3.835500  3.529717
H    -5.710543  3.360866  5.095593
N    -2.623939  3.629896  4.543351
C    -2.247133  4.275109  5.800348
H    -3.669790  3.540897  4.312310
H    -1.855938  5.282521  5.605209
H    -1.478545  3.694164  6.321458
H    -3.141998  4.360897  6.424022
Hg    0.603167  1.302610  3.292303
