34
Energy: -571606.52219 eV PBE+vdW (tier 2 basis)
C    -0.954940  -1.009226  -0.863054
C    -0.811446  -1.161996  0.616424
O    -0.365379  -2.249092  1.078585
H    -0.748725  0.010933  -1.199431
H    -1.969727  -1.300011  -1.170701
H    -0.257630  -1.703773  -1.345514
N    -1.051148  -0.138206  1.497551
C    -2.252327  0.687671  1.544188
C    -3.436211  -0.316421  1.830609
O    -3.346685  -1.474922  1.376295
H    -0.701258  -0.377752  2.427360
H    -2.125581  1.330645  2.427925
C    -2.562811  1.582086  0.328935
C    -1.487242  2.652441  0.085827
C    -1.812158  3.500847  -1.150468
C    -0.712566  4.553216  -1.463188
N    -0.677920  5.651431  -0.567094
H    -3.528574  2.071096  0.527615
H    -2.723831  0.967109  -0.566413
H    -0.505123  2.167916  -0.036362
H    -1.396826  3.304752  0.969166
H    -2.777045  4.016961  -1.032184
H    -1.908132  2.864996  -2.042164
H    -0.950825  4.922890  -2.489160
H    0.285613  4.100557  -1.517216
H    0.205417  6.062886  -0.277794
H    -1.503209  6.231447  -0.431317
N    -4.457795  0.132540  2.560048
C    -5.592113  -0.690154  2.977062
H    -4.435456  1.097290  2.882615
H    -5.461378  -1.032848  4.013089
H    -5.672105  -1.552654  2.310223
H    -6.505918  -0.088038  2.920252
Hg    -1.984534  -3.482756  2.334080
