34
Energy: -571606.450203 eV PBE+vdW (tier 2 basis)
C    -0.049560  0.045187  3.233094
C    -0.958072  -0.589695  4.235382
O    -0.495828  -0.848057  5.384290
H    -0.567640  0.761559  2.589442
H    0.416347  -0.737232  2.615927
H    0.756330  0.552204  3.775745
N    -2.281974  -0.830225  3.998027
C    -2.854271  -1.499887  2.824402
C    -2.289738  -2.958082  2.851854
O    -1.167116  -3.163417  3.370617
H    -2.760714  -1.087087  4.863262
H    -3.935769  -1.540526  3.023757
C    -2.651965  -0.807438  1.462338
C    -3.263622  0.600949  1.431891
C    -2.970561  1.431894  0.181107
C    -3.723994  0.905330  -1.113247
N    -3.546555  1.748356  -2.233290
H    -3.131460  -1.450897  0.708472
H    -1.586418  -0.783970  1.196951
H    -2.875337  1.181586  2.286142
H    -4.350750  0.540237  1.600807
H    -1.894146  1.461696  -0.041391
H    -3.302014  2.465141  0.345916
H    -4.795150  0.843543  -0.874038
H    -3.336514  -0.095573  -1.355661
H    -2.726376  1.678619  -2.829696
H    -4.166519  2.535182  -2.407713
N    -3.039229  -3.921435  2.311998
C    -2.681256  -5.337953  2.291036
H    -3.935102  -3.663690  1.903537
H    -2.826570  -5.732473  1.278098
H    -3.322130  -5.901934  2.982387
H    -1.633713  -5.444975  2.581759
Hg    -0.515431  -3.171989  5.850400
