34
Energy: -571606.637518 eV PBE+vdW (tier 2 basis)
C    -0.607398  -0.553557  -0.357093
C    -0.239595  -0.034850  0.994993
O    0.978446  -0.022323  1.334194
H    -0.452625  0.236933  -1.107493
H    -1.642144  -0.909912  -0.398502
H    0.076369  -1.370495  -0.618691
N    -1.183144  0.396536  1.866280
C    -2.328463  1.238603  1.524582
C    -1.835527  2.702875  1.694499
O    -0.804510  2.964157  2.366217
H    -0.792255  0.639890  2.778692
H    -2.582087  1.067090  0.468776
C    -3.553696  0.921221  2.411289
C    -4.088889  -0.499287  2.191587
C    -5.406506  -0.830076  2.901780
C    -5.251675  -0.980696  4.471655
N    -6.449225  -1.393973  5.099599
H    -4.343774  1.653737  2.187356
H    -3.270654  1.088596  3.463203
H    -3.318894  -1.240215  2.456420
H    -4.284973  -0.644077  1.114899
H    -5.793359  -1.784359  2.521709
H    -6.170952  -0.064865  2.705615
H    -4.950158  -0.005948  4.884815
H    -4.467439  -1.725571  4.666011
H    -6.672780  -2.378585  5.218994
H    -7.187312  -0.732811  5.326802
N    -2.564891  3.669337  1.131730
C    -2.244067  5.093246  1.205017
H    -3.440721  3.412303  0.681996
H    -2.549295  5.574102  0.269983
H    -1.168175  5.212264  1.359775
H    -2.776282  5.565801  2.042336
Hg    1.587829  1.996266  2.441163
