34
Energy: -571606.9355 eV PBE+vdW (tier 2 basis)
C    -1.022175  -0.965380  0.477237
C    -0.574286  -0.645525  1.877071
O    0.433702  -1.271135  2.306795
H    -1.063802  -2.054964  0.356887
H    -0.261801  -0.595258  -0.224698
H    -1.995496  -0.531188  0.223339
N    -1.287126  0.281651  2.549212
C    -1.263757  0.722894  3.961074
C    -0.156333  1.770232  4.212204
O    1.083107  1.514688  4.156932
H    -2.031739  0.697184  1.997756
H    -2.216684  1.256409  4.081255
C    -1.252180  -0.402218  5.016516
C    -2.366717  -1.456458  4.906255
C    -3.765415  -0.938255  5.267509
C    -4.826121  -2.071010  5.297992
N    -4.682372  -2.972398  6.391119
H    -1.293337  0.089344  6.000589
H    -0.287291  -0.943904  4.998891
H    -2.106464  -2.275803  5.591896
H    -2.372792  -1.898872  3.898379
H    -4.123888  -0.192317  4.542514
H    -3.750302  -0.439940  6.249461
H    -4.823598  -2.644703  4.362352
H    -5.813688  -1.560890  5.357203
H    -4.773530  -2.630516  7.344790
H    -4.875869  -3.961709  6.266184
N    -0.550184  3.003162  4.507638
C    0.370641  4.107892  4.795395
H    -1.544267  3.211389  4.486926
H    -0.180704  4.888691  5.326074
H    0.780096  4.518483  3.863606
H    1.194804  3.746166  5.418508
Hg    1.919218  -0.622530  3.949708
