34
Energy: -571606.29599 eV PBE+vdW (tier 2 basis)
C    0.402030  -0.138566  0.432874
C    0.020877  0.190473  1.839531
O    0.905851  0.690843  2.594429
H    -0.416722  0.030081  -0.272670
H    0.727497  -1.188525  0.382456
H    1.264143  0.480582  0.159770
N    -1.241812  0.038835  2.327615
C    -2.114787  -1.135481  2.197026
C    -1.422610  -2.269083  3.005505
O    -0.167612  -2.247786  3.140951
H    -1.337752  0.496150  3.235972
H    -3.041840  -0.850293  2.716571
C    -2.499658  -1.568896  0.768547
C    -3.290462  -0.488461  0.015122
C    -3.937817  -0.967802  -1.299025
C    -2.981219  -1.208076  -2.470993
N    -2.402968  -0.015171  -2.997628
H    -3.128473  -2.466159  0.868493
H    -1.608844  -1.897335  0.217201
H    -2.656192  0.390254  -0.180329
H    -4.102500  -0.129457  0.665645
H    -4.692163  -0.228312  -1.608331
H    -4.495692  -1.899449  -1.126338
H    -3.567634  -1.717107  -3.277049
H    -2.172829  -1.922439  -2.243507
H    -2.981530  0.817386  -3.099061
H    -1.627469  -0.079357  -3.653647
N    -2.143677  -3.253719  3.545201
C    -3.573062  -3.529044  3.444047
H    -1.584128  -3.927463  4.072076
H    -4.134603  -2.619174  3.210746
H    -3.923767  -3.920300  4.405507
H    -3.769875  -4.285043  2.670471
Hg    1.293686  -0.700887  4.463433
