34
Energy: -571606.908727 eV PBE+vdW (tier 2 basis)
C    -0.428687  0.275078  -0.358744
C    -0.464562  0.375995  1.138729
O    0.549180  0.834304  1.726242
H    -0.474494  1.289920  -0.778955
H    -1.257117  -0.318596  -0.762194
H    0.527034  -0.162978  -0.668670
N    -1.587483  -0.035082  1.771508
C    -1.871895  0.150006  3.190854
C    -1.025391  -0.791260  4.087360
O    -0.186218  -0.286701  4.891727
H    -2.354792  -0.334511  1.175119
H    -1.523858  1.156361  3.478783
C    -3.388323  0.104317  3.460949
C    -3.768438  0.323134  4.932389
C    -5.294238  0.319197  5.123482
C    -5.734129  0.513262  6.585833
N    -5.524587  1.834367  7.083405
H    -3.810754  -0.845722  3.101768
H    -3.838261  0.896784  2.842732
H    -3.353278  1.278121  5.291030
H    -3.322009  -0.463517  5.562290
H    -5.716342  -0.636853  4.781439
H    -5.759601  1.097964  4.498528
H    -5.242836  -0.200238  7.262746
H    -6.821820  0.267062  6.631138
H    -5.897444  2.629355  6.568550
H    -5.410037  1.984891  8.082478
N    -1.160690  -2.115689  4.069170
C    -2.119920  -2.962199  3.361656
H    -0.532582  -2.591660  4.719192
H    -1.667169  -3.952259  3.244018
H    -2.336195  -2.569015  2.365252
H    -3.051149  -3.075081  3.932690
Hg    1.053687  1.475987  3.954852
