34
Energy: -571607.116006 eV PBE+vdW (tier 2 basis)
C    -0.285637  -1.585992  0.002011
C    -0.498679  -1.062971  1.390711
O    -0.139271  -1.653096  2.409300
H    0.648541  -1.158812  -0.395848
H    -1.095817  -1.324678  -0.689256
H    -0.162486  -2.672138  0.045247
N    -1.126536  0.181242  1.483870
C    -1.569029  0.816421  2.686805
C    -0.352261  1.339939  3.592916
O    -0.400411  2.576840  3.779699
H    -1.345912  0.653769  0.609774
H    -2.093229  1.732313  2.393311
C    -2.506340  -0.013597  3.624165
C    -3.851265  -0.306008  2.936984
C    -4.727898  -1.114597  3.894118
C    -6.127322  -1.472351  3.194639
N    -6.951143  -2.222606  4.050650
H    -2.664834  0.584370  4.532370
H    -2.002818  -0.942998  3.916849
H    -3.677438  -0.869435  2.008212
H    -4.354777  0.633156  2.663277
H    -4.954478  -0.551804  4.809473
H    -4.246862  -2.059143  4.181732
H    -5.908624  -2.048355  2.285937
H    -6.616349  -0.522847  2.936799
H    -6.883081  -3.236011  4.100387
H    -7.535319  -1.774916  4.752527
N    0.510506  0.448055  4.030336
C    1.692617  0.725842  4.844454
H    0.360970  -0.509636  3.658983
H    2.217660  -0.221175  5.000624
H    1.408635  1.129465  5.824426
H    2.376537  1.416932  4.333286
Hg    1.006317  4.192756  4.972282
