34
Energy: -571606.822807 eV PBE+vdW (tier 2 basis)
C    -0.839861  -0.293895  -0.114585
C    -0.579295  -0.454832  1.356723
O    0.400323  -1.181368  1.692673
H    -0.046913  0.336076  -0.542543
H    -1.817286  0.148682  -0.335756
H    -0.762607  -1.274382  -0.600194
N    -1.412729  0.181048  2.201157
C    -1.606297  0.069777  3.660874
C    -0.656245  0.987814  4.443951
O    0.589381  1.062822  4.211537
H    -2.114149  0.747587  1.733358
H    -2.622019  0.457589  3.812805
C    -1.600400  -1.365667  4.236883
C    -2.651255  -2.294017  3.610027
C    -2.739801  -3.633448  4.358319
C    -3.847325  -4.563079  3.824512
N    -3.566446  -5.129073  2.544512
H    -1.794992  -1.262811  5.316134
H    -0.603279  -1.822373  4.152479
H    -2.419488  -2.479291  2.550549
H    -3.634951  -1.796998  3.633519
H    -2.953122  -3.457663  5.422525
H    -1.773817  -4.161837  4.322274
H    -4.820491  -4.054459  3.779537
H    -3.968266  -5.379640  4.575043
H    -2.705241  -5.654223  2.409019
H    -4.334786  -5.404558  1.938185
N    -1.154805  1.754113  5.411800
C    -2.556157  1.983873  5.775894
H    -0.450525  2.303548  5.906536
H    -2.569974  2.647952  6.644588
H    -3.052429  1.046841  6.056422
H    -3.107458  2.476212  4.964026
Hg    1.856566  -0.689357  3.420879
