34
Energy: -571606.920542 eV PBE+vdW (tier 2 basis)
C    0.977772  -0.359681  1.420706
C    -0.045406  0.627528  1.926161
O    0.606076  1.626511  2.578775
H    0.496604  -1.083073  0.756859
H    1.433416  -0.881676  2.272699
H    1.790321  0.163167  0.899783
N    -1.297208  0.413692  1.694488
C    -2.412089  1.343978  1.856635
C    -3.114866  1.214599  3.232462
O    -2.775302  1.948077  4.243630
H    -1.485571  1.184490  -3.200610
H    -2.110948  2.415390  1.818027
C    -3.393329  1.107802  0.685029
C    -2.790154  1.295688  -0.716890
C    -2.387154  2.738138  -1.071085
C    -2.335372  3.034121  -2.565921
N    -1.293892  2.191236  -3.299254
H    -4.270189  1.762968  0.803176
H    -3.739872  0.063761  0.731104
H    -3.553941  0.947975  -1.430972
H    -1.931178  0.611414  -0.806488
H    -1.428441  3.015857  -0.603890
H    -3.129842  3.447320  -0.672885
H    -2.070418  4.078522  -2.768469
H    -3.291330  2.815631  -3.058638
H    -1.284475  2.406471  -4.306646
H    -0.345556  2.365089  -2.938129
N    -4.087859  0.344137  3.398657
C    -4.789114  0.100783  4.662788
H    -4.388061  -0.181706  2.582005
H    -5.175129  -0.922421  4.652410
H    -5.623585  0.804277  4.777942
H    -4.094829  0.230647  5.498069
Hg    -0.722079  2.509289  3.896474
