34
Energy: -571607.989887 eV PBE+vdW (tier 2 basis)
C    0.431934  1.423438  0.815782
C    -0.400801  0.472636  1.580402
O    0.192149  -0.438115  2.288778
H    1.039824  2.026292  1.505679
H    -0.157280  2.058999  0.148930
H    1.146894  0.838659  0.213871
N    -1.745595  0.486818  1.537407
C    -2.608401  1.655228  1.779971
C    -1.957973  2.504419  2.891392
O    -1.218324  1.952307  3.747145
H    -2.159686  -0.384938  1.869535
H    -2.730933  2.239952  0.859095
C    -4.011145  1.133543  2.216961
C    -4.078455  0.095896  3.359831
C    -3.946541  0.595610  4.818142
C    -3.451667  -0.472865  5.798569
N    -1.934042  -0.548981  5.931932
H    -4.476052  0.694475  1.323072
H    -4.628341  2.005112  2.474632
H    -3.359798  -0.730982  3.181476
H    -5.046325  -0.415486  3.263233
H    -4.937622  0.912945  5.169409
H    -3.310202  1.486507  4.902599
H    -3.795038  -1.476797  5.519074
H    -3.813183  -0.267464  6.816051
H    -1.598515  0.276248  6.445160
H    -1.679261  -1.368146  6.497473
N    -2.228667  3.808358  2.935944
C    -3.004984  4.611668  1.983315
H    -1.798922  4.299206  3.718996
H    -2.572967  4.566852  0.975710
H    -2.971874  5.652255  2.316924
H    -4.056158  4.300838  1.950861
Hg    -0.806964  -0.549475  4.128204
