34
Energy: -571606.472224 eV PBE+vdW (tier 2 basis)
C    0.126018  0.703174  0.774835
C    -0.175231  0.191036  2.146741
O    0.729953  -0.267773  2.914080
H    0.700130  -0.052929  0.224648
H    0.758795  1.598905  0.866301
H    -0.760350  0.971268  0.194320
N    -1.420744  0.158600  2.641967
C    -2.694276  0.400095  1.975535
C    -3.662201  0.771999  3.129643
O    -3.504757  0.239197  4.232926
H    -1.520281  -0.150148  3.617418
H    -2.584049  1.250219  1.291842
C    -3.225775  -0.817548  1.161844
C    -3.151194  -2.203536  1.822988
C    -4.199801  -2.572827  2.883139
C    -5.627866  -2.915425  2.285201
N    -5.665393  -4.143652  1.592826
H    -2.624448  -0.847569  0.240538
H    -4.248705  -0.581897  0.828848
H    -2.161819  -2.321416  2.295348
H    -3.171309  -2.956338  1.021405
H    -4.363509  -1.777418  3.621966
H    -3.858058  -3.453695  3.443270
H    -5.980726  -2.112089  1.628458
H    -6.286944  -2.976110  3.171559
H    -5.594629  -5.027697  2.091830
H    -5.797878  -4.201173  0.587495
N    -4.662162  1.641099  2.878757
C    -4.873871  2.477681  1.700861
H    -5.215002  1.862423  3.707686
H    -5.912201  2.824784  1.712054
H    -4.716020  1.913236  0.775566
H    -4.219932  3.362099  1.708055
Hg    2.994952  0.378349  2.962724
