34
Energy: -571606.595442 eV PBE+vdW (tier 2 basis)
C    -1.314929  2.089686  -0.160245
C    -0.688741  0.837728  0.362894
O    0.541778  0.634710  0.152418
H    -2.394540  1.985638  -0.310508
H    -0.831654  2.353636  -1.108875
H    -1.112930  2.919064  0.535039
N    -1.415000  -0.086964  1.036216
C    -2.403332  0.210799  2.074221
C    -1.598720  0.363695  3.388825
O    -0.461256  -0.175058  3.506781
H    -0.882180  -0.933407  1.244569
H    -2.893346  1.161073  1.822762
C    -3.450955  -0.916452  2.186898
C    -4.342763  -1.056946  0.944978
C    -5.389750  -2.167781  1.132335
C    -6.370923  -2.292795  -0.051404
N    -5.805659  -2.859496  -1.226623
H    -4.076011  -0.722419  3.070442
H    -2.925088  -1.862379  2.395075
H    -3.729514  -1.268995  0.055945
H    -4.854866  -0.100005  0.752744
H    -5.994412  -1.971017  2.029106
H    -4.898435  -3.138866  1.301616
H    -6.839764  -1.332617  -0.308424
H    -7.204885  -2.946985  0.304655
H    -5.302096  -3.742729  -1.175811
H    -6.170739  -2.614594  -2.143637
N    -2.117093  1.025862  4.425972
C    -3.456732  1.578559  4.596613
H    -1.502279  1.053997  5.241852
H    -3.914873  1.807482  3.630004
H    -3.378803  2.507292  5.173324
H    -4.101656  0.881154  5.149742
Hg    1.641476  -0.143284  2.114616
