34
Energy: -571606.565489 eV PBE+vdW (tier 2 basis)
C    0.177665  0.012401  0.549573
C    0.016262  0.107717  2.031862
O    1.038750  -0.031769  2.764254
H    0.472177  0.997910  0.155953
H    -0.735734  -0.326843  0.049602
H    1.002214  -0.675338  0.327343
N    -1.193554  0.324152  2.597208
C    -2.218780  1.234600  2.094805
C    -1.787016  2.675317  2.499288
O    -0.704810  2.901092  3.106265
H    -1.187024  0.231578  3.614256
H    -2.211054  1.187335  0.995495
C    -3.604547  0.843047  2.646944
C    -4.115656  -0.552695  2.250578
C    -4.577718  -0.674086  0.790333
C    -5.174288  -2.063394  0.468939
N    -6.433269  -2.310705  1.081997
H    -4.337523  1.602720  2.338038
H    -3.563827  0.908706  3.746453
H    -4.961746  -0.790653  2.911613
H    -3.345294  -1.309595  2.465161
H    -3.745823  -0.519427  0.087124
H    -5.326313  0.100162  0.557572
H    -4.486484  -2.878631  0.732184
H    -5.291937  -2.109098  -0.640789
H    -7.198847  -1.648382  0.976292
H    -6.697855  -3.250614  1.365549
N    -2.584692  3.683627  2.153034
C    -2.305737  5.089675  2.455560
H    -3.387052  3.483465  1.562356
H    -1.639903  5.525387  1.698960
H    -1.824911  5.161535  3.435763
H    -3.251720  5.638683  2.464545
Hg    1.049650  1.657549  4.411749
