34
Energy: -571606.709737 eV PBE+vdW (tier 2 basis)
C    -0.836783  0.526487  0.023468
C    -0.591312  0.368445  1.496499
O    0.544952  0.325711  1.981948
H    -0.077603  1.196200  -0.393628
H    -1.838771  0.905377  -0.208490
H    -0.715409  -0.452588  -0.463095
N    -1.711991  0.247109  2.296173
C    -1.776219  -0.111724  3.695477
C    -1.122451  0.937270  4.667190
O    -1.895479  1.229134  5.622539
H    -2.609374  0.332774  1.824184
H    -2.840791  -0.053872  3.954195
C    -1.360343  -1.576276  4.086833
C    0.061433  -2.052047  3.816470
C    0.401363  -3.415017  4.479821
C    -0.206677  -4.652499  3.786260
N    0.370120  -4.970509  2.530411
H    -2.092014  -2.212880  3.567310
H    -1.588739  -1.653557  5.161463
H    0.788398  -1.339791  4.235537
H    0.267823  -2.118253  2.739867
H    0.071353  -3.427331  5.528203
H    1.495371  -3.524677  4.503250
H    -1.297911  -4.606990  3.680544
H    -0.007054  -5.492843  4.499299
H    -0.179409  -5.426216  1.806645
H    1.380234  -5.064639  2.441182
N    0.094038  1.382168  4.431518
C    0.822456  2.369356  5.223204
H    0.521868  1.010194  3.559835
H    1.781459  2.552620  4.728974
H    1.028033  1.996364  6.235976
H    0.275729  3.320442  5.271846
Hg    -1.704082  2.588930  7.595054
