34
Energy: -571606.505691 eV PBE+vdW (tier 2 basis)
C    -1.470637  -1.398712  0.760582
C    -0.315448  -0.484097  1.005662
O    0.847679  -0.859677  0.680483
H    -1.131199  -2.434078  0.886996
H    -1.801387  -1.301806  -0.284998
H    -2.308371  -1.199729  1.437185
N    -0.482545  0.730323  1.583325
C    -1.543096  1.688949  1.261283
C    -1.104875  2.330204  -0.078101
O    0.126452  2.503073  -0.307969
H    0.403138  1.193038  1.795708
H    -2.488256  1.143203  1.151139
C    -1.631630  2.710362  2.419460
C    -2.757067  3.749320  2.344878
C    -2.710736  4.676657  3.572899
C    -3.801153  5.764293  3.570117
N    -5.111292  5.281329  3.842753
H    -0.659673  3.226634  2.486221
H    -1.736003  2.118949  3.341321
H    -3.739268  3.252857  2.298085
H    -2.660077  4.358795  1.432647
H    -1.739981  5.190245  3.618312
H    -2.788961  4.088017  4.500549
H    -3.820517  6.339258  2.632999
H    -3.510228  6.500347  4.360285
H    -5.274583  4.683727  4.650804
H    -5.925448  5.787429  3.502958
N    -1.998910  2.716252  -0.992989
C    -3.456183  2.735222  -0.940137
H    -1.570108  3.098846  -1.838690
H    -3.826893  2.176313  -0.077988
H    -3.850988  2.278682  -1.856416
H    -3.825416  3.767716  -0.882214
Hg    2.056305  0.865105  -0.426701
