34
Energy: -571606.54619 eV PBE+vdW (tier 2 basis)
C    -0.910414  -0.143967  -1.122344
C    -0.152913  -0.014781  0.158465
O    0.944105  -0.592734  0.384538
H    -1.986803  0.020625  -1.004150
H    -0.746881  -1.137337  -1.553643
H    -0.517016  0.594442  -1.837906
N    -0.600788  0.803280  1.145215
C    -1.607780  1.838841  1.036876
C    -1.253957  2.905353  -0.063919
O    -0.072933  3.202268  -0.247084
H    0.011916  0.825912  1.960404
H    -2.544748  1.352667  0.720732
C    -1.840600  2.536978  2.393301
C    -0.964736  3.758183  2.760374
C    0.528312  3.463257  2.867769
C    1.378896  4.755695  3.267495
N    1.151068  5.204313  4.581267
H    -1.778884  1.772051  3.181978
H    -2.884206  2.882884  2.394119
H    -1.346219  4.130699  3.721455
H    -1.132013  4.562800  2.028532
H    0.961761  3.166734  1.898691
H    0.735658  2.677771  3.610782
H    1.155663  5.554670  2.550795
H    2.430568  4.440954  3.162362
H    1.572083  4.737106  5.380384
H    0.566523  6.010182  4.784324
N    -2.278379  3.461107  -0.731558
C    -3.703024  3.142019  -0.644215
H    -1.993115  4.153416  -1.422534
H    -4.227310  3.742523  -1.393262
H    -4.118380  3.390610  0.340543
H    -3.903110  2.085693  -0.873161
Hg    1.644482  -2.779967  -0.382769
