34
Energy: -571606.830904 eV PBE+vdW (tier 2 basis)
C    -0.402878  -1.244092  0.345380
C    -0.424026  -0.509776  1.654712
O    0.524102  0.277514  1.907325
H    0.589548  -1.685290  0.195665
H    -0.562613  -0.519937  -0.465905
H    -1.168311  -2.026424  0.285941
N    -1.462462  -0.739678  2.490661
C    -1.734391  -0.000851  3.718847
C    -0.761879  -0.380957  4.865214
O    0.035306  0.498755  5.312323
H    -2.178663  -1.377706  2.154238
H    -1.498652  1.059949  3.529593
C    -3.221966  -0.065088  4.119517
C    -4.115329  0.799705  3.213752
C    -5.624558  0.647705  3.485691
C    -6.143667  1.327369  4.761610
N    -6.133266  2.754119  4.690780
H    -3.295494  0.268264  5.165282
H    -3.570794  -1.108846  4.105962
H    -3.942709  0.530161  2.160640
H    -3.824910  1.857764  3.310853
H    -5.896738  -0.416548  3.537076
H    -6.178923  1.050342  2.624504
H    -5.603071  1.018076  5.669202
H    -7.189071  0.968508  4.920372
H    -6.195543  3.299310  5.547018
H    -6.512128  3.213196  3.864615
N    -0.744844  -1.585835  5.429273
C    -1.626669  -2.736067  5.237612
H    -0.053953  -1.668756  6.177545
H    -1.930893  -2.831705  4.192257
H    -2.512169  -2.671161  5.883463
H    -1.065160  -3.635608  5.510814
Hg    1.027288  1.811255  3.650909
