34
Energy: -571606.865791 eV PBE+vdW (tier 2 basis)
C    -0.852797  1.470193  -0.143141
C    -0.796366  1.367940  1.353632
O    0.086877  2.022295  1.962851
H    -1.203075  2.476601  -0.412748
H    -1.517943  0.724901  -0.594283
H    0.158781  1.358298  -0.550293
N    -1.702749  0.569450  1.965925
C    -1.899548  0.480406  3.407990
C    -0.739358  -0.271359  4.114250
O    -0.016365  0.353417  4.945004
H    -2.396290  0.131003  1.365813
H    -1.827651  1.499735  3.823043
C    -3.308157  -0.044710  3.752810
C    -3.553498  -0.152297  5.265052
C    -4.932384  -0.694066  5.666341
C    -6.107717  0.326343  5.421660
N    -7.355107  -0.140982  5.910465
H    -3.481793  -1.020283  3.275263
H    -4.017338  0.660940  3.293467
H    -3.382255  0.824700  5.744515
H    -2.811136  -0.834214  5.711534
H    -4.922366  -0.931885  6.737955
H    -5.164805  -1.626494  5.131576
H    -6.203418  0.518920  4.343144
H    -5.853334  1.265957  5.934543
H    -7.622324  -0.013946  6.882430
H    -7.959239  -0.734166  5.349568
N    -0.483489  -1.560995  3.901630
C    -1.220020  -2.558407  3.127766
H    0.310808  -1.906428  4.443397
H    -2.016417  -3.020476  3.726548
H    -0.513411  -3.341694  2.834131
H    -1.638944  -2.122999  2.217161
Hg    0.584108  2.519122  4.245006
