34
Energy: -571606.821785 eV PBE+vdW (tier 2 basis)
C    0.046701  -0.469588  -0.138756
C    -0.465114  0.082443  1.163958
O    -0.237879  -0.612801  2.193249
H    -0.190682  0.166151  -0.998984
H    -0.391085  -1.464768  -0.293653
H    1.133573  -0.603026  -0.065150
N    -1.116137  1.261206  1.115475
C    -1.924706  1.992344  2.120398
C    -1.028142  2.745990  3.132099
O    -0.518671  2.216424  4.163097
H    -1.148725  1.665085  0.184162
H    -2.421966  2.771348  1.525308
C    -3.037191  1.156805  2.778663
C    -4.066030  2.006873  3.544988
C    -5.133402  2.707728  2.679032
C    -6.302111  1.799957  2.255904
N    -7.142286  1.421779  3.348468
H    -2.606444  0.411811  3.467468
H    -3.516405  0.564320  1.985456
H    -3.542807  2.763868  4.149262
H    -4.575326  1.359823  4.273265
H    -4.698476  3.136695  1.763248
H    -5.539951  3.565566  3.234989
H    -5.965825  0.885960  1.744569
H    -6.898301  2.358924  1.497297
H    -7.510681  2.140535  3.968076
H    -7.714749  0.584691  3.277552
N    -0.809966  4.034338  2.893390
C    0.027722  4.893676  3.735182
H    -1.290634  4.466813  2.109598
H    -0.531714  5.233234  4.616435
H    0.337509  5.760827  3.145431
H    0.908386  4.334753  4.067274
Hg    -0.268278  -0.063200  4.421431
