34
Energy: -571606.578082 eV PBE+vdW (tier 2 basis)
C    -1.069143  1.220254  -1.653280
C    -0.088834  0.496684  -0.789545
O    0.911965  -0.054945  -1.334789
H    -0.679453  2.222797  -1.887833
H    -2.056097  1.300142  -1.185348
H    -1.156536  0.688302  -2.608929
N    -0.258092  0.398951  0.548935
C    -0.698483  1.478468  1.430402
C    0.607997  2.108295  1.991527
O    1.714872  1.525081  1.872903
H    0.451233  -0.189962  0.988065
H    -1.205698  2.234980  0.816099
C    -1.689259  0.989016  2.514922
C    -1.124532  -0.035925  3.506946
C    -2.169968  -0.731686  4.388848
C    -2.849392  0.233459  5.443714
N    -3.741569  -0.445833  6.305935
H    -2.551185  0.563068  1.979704
H    -2.069268  1.875095  3.046637
H    -0.342712  0.420155  4.134800
H    -0.629936  -0.854691  2.957335
H    -1.690475  -1.542861  4.951712
H    -2.964306  -1.181298  3.776255
H    -3.406727  1.009142  4.896861
H    -2.053690  0.698834  6.042630
H    -3.422562  -0.869080  7.173558
H    -4.697942  -0.650561  6.028289
N    0.501523  3.279958  2.624079
C    1.630864  4.012212  3.194264
H    -0.427452  3.670127  2.763266
H    1.441684  5.086164  3.097737
H    2.543882  3.739325  2.657614
H    1.758776  3.764233  4.256967
Hg    2.906108  0.239831  -0.086609
