34
Energy: -571606.339954 eV PBE+vdW (tier 2 basis)
C    -1.231843  0.832380  -0.956898
C    -0.151506  0.869062  0.074221
O    1.027989  1.143896  -0.288592
H    -0.926919  1.474900  -1.791160
H    -2.192860  1.173349  -0.561552
H    -1.332317  -0.189315  -1.350459
N    -0.395982  0.708416  1.410697
C    -1.157772  -0.377031  2.022613
C    -0.375186  -1.690351  1.657249
O    0.232488  -1.735753  0.564772
H    0.420478  0.978113  1.963095
H    -1.065947  -0.211713  3.106614
C    -2.664200  -0.484483  1.691180
C    -3.440372  0.745247  2.172966
C    -4.974881  0.629400  2.141469
C    -5.611169  0.685635  0.740169
N    -5.537438  -0.527968  -0.001865
H    -3.034515  -1.380749  2.212575
H    -2.811990  -0.681666  0.619977
H    -3.118436  1.640680  1.617220
H    -3.170189  0.949127  3.222910
H    -5.389955  1.469103  2.714181
H    -5.310154  -0.282161  2.660950
H    -5.210694  1.507552  0.128064
H    -6.686578  0.947473  0.906558
H    -5.649506  -0.500486  -1.013183
H    -5.859032  -1.390298  0.434800
N    -0.388531  -2.681022  2.549335
C    0.349519  -3.933869  2.401785
H    -0.913165  -2.547707  3.411439
H    -0.279439  -4.760329  2.752165
H    1.267455  -3.913106  3.005949
H    0.602593  -4.078330  1.348420
Hg    2.524057  -0.683228  -0.007497
