34
Energy: -571606.691606 eV PBE+vdW (tier 2 basis)
C    -0.646839  -1.357248  -0.443668
C    -0.502368  -0.848958  0.963433
O    0.509764  -1.245732  1.609505
H    -1.625163  -1.137234  -0.885062
H    -0.479380  -2.441735  -0.448201
H    0.145020  -0.909804  -1.060733
N    -1.463965  -0.023240  1.420158
C    -1.790688  0.468769  2.774891
C    -0.987829  1.724406  3.142752
O    0.274917  1.798168  3.038996
H    -2.167299  0.199120  0.721988
H    -2.840248  0.776325  2.685780
C    -1.724408  -0.589487  3.904123
C    -2.614908  -1.823353  3.678953
C    -4.116677  -1.625740  3.966627
C    -4.498665  -1.747185  5.452548
N    -4.378053  -3.079306  5.954767
H    -2.001148  -0.071970  4.836198
H    -0.686696  -0.922652  4.049368
H    -2.235792  -2.637114  4.313549
H    -2.492226  -2.180320  2.646518
H    -4.694322  -2.367948  3.395839
H    -4.473459  -0.647966  3.607555
H    -5.553407  -1.399907  5.555526
H    -3.908938  -1.079439  6.098620
H    -4.269404  -3.235269  6.953393
H    -4.808117  -3.848023  5.444633
N    -1.636395  2.796999  3.591977
C    -3.080533  3.038015  3.661547
H    -1.023709  3.572133  3.849179
H    -3.538554  3.035622  2.663896
H    -3.232404  4.028664  4.099172
H    -3.575431  2.302490  4.307799
Hg    1.702911  -0.005158  3.130178
