34
Energy: -571606.749405 eV PBE+vdW (tier 2 basis)
C    0.359679  1.559938  0.880116
C    -0.086064  0.441587  1.775967
O    0.224699  -0.740306  1.450221
H    -0.068090  2.531641  1.149522
H    0.081930  1.315095  -0.153317
H    1.456405  1.620267  0.909670
N    -0.815261  0.770514  2.859240
C    -1.569235  -0.055225  3.822228
C    -0.679067  -0.540392  4.975414
O    0.501473  -0.960303  4.795596
H    -0.948999  1.770570  2.980924
H    -2.266990  0.671152  4.255226
C    -2.468646  -1.168096  3.174159
C    -2.134715  -2.647428  3.376148
C    -3.090944  -3.619892  2.688049
C    -4.555802  -3.601181  3.307892
N    -5.391320  -4.572906  2.716240
H    -2.550750  -0.942126  2.102743
H    -3.476531  -1.006750  3.586352
H    -2.032499  -2.895125  4.443729
H    -1.133931  -2.901565  2.915440
H    -2.712009  -4.644376  2.790181
H    -3.168904  -3.400216  1.614098
H    -4.986640  -2.601965  3.139494
H    -4.484654  -3.788447  4.387269
H    -5.455427  -5.513313  3.094278
H    -5.782445  -4.435873  1.788791
N    -1.159086  -0.495386  6.219170
C    -2.398838  0.115323  6.707401
H    -0.504153  -0.840739  6.922307
H    -2.351970  1.211813  6.663232
H    -2.527924  -0.176692  7.753540
H    -3.269401  -0.245700  6.147645
Hg    1.027305  -2.282959  2.961282
