34
Energy: -571606.998418 eV PBE+vdW (tier 2 basis)
C    0.038109  0.698602  -0.639686
C    -0.374388  1.528291  0.543004
O    0.023117  2.722013  0.580649
H    -0.332677  1.180452  -1.554412
H    -0.339989  -0.328836  -0.592919
H    1.133611  0.688182  -0.702429
N    -1.149439  0.937825  1.479661
C    -1.859460  1.586639  2.586304
C    -0.958593  1.640707  3.845000
O    -0.202041  2.632317  4.063261
H    -1.356262  -0.044571  1.320399
H    -2.013221  2.640103  2.303219
C    -3.248394  0.959075  2.803595
C    -4.212417  1.238869  1.636764
C    -5.689663  0.927303  1.913437
C    -6.014784  -0.608112  2.005823
N    -7.404574  -0.871924  2.134076
H    -3.662060  1.386518  3.729405
H    -3.150255  -0.127627  2.972521
H    -3.883602  0.711322  0.727911
H    -4.163097  2.312890  1.393234
H    -6.295226  1.344929  1.098221
H    -6.025365  1.411467  2.841950
H    -5.495879  -1.039609  2.874587
H    -5.644977  -1.094014  1.090351
H    -7.868297  -0.848325  3.037244
H    -8.008743  -0.917126  1.318661
N    -0.969811  0.623419  4.694437
C    -0.133085  0.555507  5.898230
H    -1.641955  -0.122208  4.541398
H    0.874605  0.914084  5.665125
H    -0.088123  -0.485078  6.230433
H    -0.557262  1.176972  6.697015
Hg    0.177023  4.207180  2.386306
