34
Energy: -571606.849002 eV PBE+vdW (tier 2 basis)
C    1.575617  -0.500442  1.279569
C    0.961805  -0.273801  2.630548
O    1.729909  -0.002860  3.590720
H    1.938444  0.463126  0.894021
H    0.868036  -0.930978  0.561512
H    2.445996  -1.158521  1.383250
N    -0.381731  -0.376981  2.738944
C    -1.168290  -0.023264  3.916139
C    -0.999634  -1.042465  5.071351
O    -0.483128  -0.652784  6.162443
H    -0.889641  -0.553046  1.875415
H    -0.749385  0.906957  4.334110
C    -2.633580  0.255162  3.519207
C    -3.604133  0.548338  4.674161
C    -3.345811  1.862079  5.429032
C    -4.453917  2.188258  6.451842
N    -5.704780  2.526812  5.855406
H    -3.023848  -0.596277  2.943538
H    -2.612545  1.110843  2.826390
H    -3.617285  -0.292549  5.386842
H    -4.614035  0.582207  4.240203
H    -3.253344  2.698988  4.718070
H    -2.400555  1.822016  5.990117
H    -4.090171  3.044252  7.067025
H    -4.613667  1.360066  7.156307
H    -6.573706  2.332281  6.345829
H    -5.753975  3.269974  5.161944
N    -1.403374  -2.307528  4.982558
C    -2.152290  -2.992151  3.929308
H    -1.223336  -2.846719  5.831503
H    -1.943213  -4.063447  4.015035
H    -1.831907  -2.662669  2.937727
H    -3.233855  -2.841287  4.045815
Hg    1.426960  0.685170  5.833738
