34
Energy: -571608.610935 eV PBE+vdW (tier 2 basis)
C    -2.016731  -0.227908  -0.741158
C    -2.076224  0.366318  0.630516
O    -1.182070  -0.055428  1.445964
H    -2.770137  0.182382  -1.421755
H    -2.149721  -1.315727  -0.664667
H    -1.015912  -0.055636  -1.159435
N    -3.031318  1.272180  0.876513
C    -3.386319  2.055932  2.088022
C    -2.230334  3.008236  2.466444
O    -1.214421  2.592850  3.078567
H    -3.624960  1.454754  0.071540
H    -4.230941  2.677855  1.763507
C    -3.896001  1.166474  3.250635
C    -3.994618  1.862840  4.631572
C    -3.464218  1.067426  5.847292
C    -1.987459  1.234074  6.237215
N    -1.021009  0.226675  5.629220
H    -3.297386  0.241778  3.320694
H    -4.879972  0.783764  2.946579
H    -5.050837  2.088114  4.821912
H    -3.492592  2.841364  4.611321
H    -3.725590  -0.001152  5.767225
H    -4.024035  1.414712  6.726990
H    -1.875772  1.108661  7.323453
H    -1.608531  2.229269  5.974591
H    -0.074956  0.402683  5.989484
H    -1.269070  -0.722854  5.932523
N    -2.371371  4.282151  2.106580
C    -1.374434  5.327281  2.345627
H    -3.230522  4.560040  1.640341
H    -1.740800  6.031573  3.102880
H    -1.188713  5.870571  1.412314
H    -0.448363  4.863211  2.692590
Hg    -0.979662  0.265540  3.503908
