34
Energy: -571606.955304 eV PBE+vdW (tier 2 basis)
C    -1.953789  0.007314  -0.764281
C    -1.738430  -0.140931  0.717456
O    -0.888815  0.633949  1.239798
H    -2.270572  1.036424  -0.976365
H    -2.690873  -0.697481  -1.164816
H    -0.993350  -0.147050  -1.274116
N    -2.463518  -1.082959  1.350413
C    -2.367090  -1.664653  2.711860
C    -3.028314  -0.749229  3.768380
O    -2.444052  0.224925  4.327393
H    -3.111016  -1.571699  0.739231
H    -3.001951  -2.560011  2.648890
C    -0.961808  -2.158438  3.095200
C    -0.968176  -3.095444  4.309431
C    0.447206  -3.576380  4.668850
C    0.481660  -4.537651  5.868572
N    -0.076618  -5.823060  5.592019
H    -0.279851  -1.311312  3.284924
H    -0.547676  -2.675310  2.217045
H    -1.606499  -3.969425  4.099732
H    -1.411479  -2.586408  5.180811
H    1.087855  -2.718161  4.918640
H    0.915969  -4.064177  3.799262
H    -0.025596  -4.115628  6.748248
H    1.550807  -4.649824  6.167412
H    -0.430037  -6.390856  6.357977
H    0.259851  -6.351242  4.789547
N    -4.280305  -1.036437  4.107688
C    -5.067471  -0.263337  5.071906
H    -4.704258  -1.873224  3.716791
H    -6.128503  -0.442736  4.877011
H    -4.842011  0.801546  4.957818
H    -4.829500  -0.569798  6.098725
Hg    -0.585292  1.267508  3.424065
