34
Energy: -571606.361491 eV PBE+vdW (tier 2 basis)
C    -0.594150  -0.026656  -0.583966
C    -0.190124  -0.023614  0.853958
O    1.009387  -0.296940  1.154687
H    -0.325423  0.936752  -1.044080
H    -1.664586  -0.218104  -0.713518
H    -0.015081  -0.796305  -1.109090
N    -1.077240  0.244431  1.840140
C    -2.077654  1.318302  1.822108
C    -1.274973  2.609544  2.100340
O    -0.280110  2.571001  2.878256
H    -0.695852  0.086251  2.774411
H    -2.538811  1.348510  0.827275
C    -3.141453  0.980463  2.891433
C    -4.378797  1.888538  3.019946
C    -4.224986  3.056110  4.008156
C    -5.549012  3.829821  4.223544
N    -6.536409  3.098888  4.938405
H    -2.635291  0.901014  3.867371
H    -3.481045  -0.035150  2.640541
H    -5.205974  1.255397  3.371745
H    -4.698421  2.255525  2.032594
H    -3.474939  3.787363  3.675631
H    -3.870057  2.681331  4.980903
H    -5.984120  4.176812  3.276597
H    -5.282776  4.747683  4.799862
H    -6.323292  2.695396  5.848158
H    -7.523659  3.198863  4.717678
N    -1.613098  3.773531  1.533246
C    -2.753934  4.116584  0.691487
H    -0.981858  4.539034  1.778728
H    -3.513035  4.667011  1.263868
H    -3.211579  3.221641  0.262418
H    -2.407283  4.760138  -0.125776
Hg    1.858147  1.181610  2.796550
