34
Energy: -571606.265992 eV PBE+vdW (tier 2 basis)
C    -1.000095  -1.689695  -0.958151
C    -0.211672  -0.831214  -0.025756
O    0.995894  -0.585376  -0.319289
H    -2.043581  -1.374792  -1.043978
H    -0.957499  -2.734366  -0.614023
H    -0.519303  -1.655799  -1.942468
N    -0.736903  -0.241407  1.087444
C    -1.560579  -0.864997  2.131867
C    -0.630861  -1.884881  2.848669
O    0.324091  -2.397861  2.204802
H    -0.089719  0.452155  1.466045
H    -1.790770  -0.045719  2.829692
C    -2.886078  -1.503458  1.667780
C    -3.843379  -0.508052  0.985090
C    -4.704733  0.350783  1.932266
C    -5.982690  -0.356881  2.434666
N    -6.980560  -0.502527  1.430793
H    -3.362828  -1.950441  2.552678
H    -2.672424  -2.350800  1.005288
H    -4.505117  -1.065641  0.306889
H    -3.261044  0.172054  0.345684
H    -4.999863  1.278980  1.421772
H    -4.134017  0.675263  2.815411
H    -6.387071  0.269001  3.266382
H    -5.782734  -1.343918  2.875240
H    -7.269895  0.300604  0.875952
H    -7.633563  -1.281355  1.453260
N    -0.844134  -2.220864  4.123136
C    -1.926513  -1.833981  5.020586
H    -0.159845  -2.885334  4.489778
H    -2.374135  -0.885528  4.707945
H    -1.520098  -1.711088  6.030606
H    -2.703518  -2.611000  5.052005
Hg    2.458379  -1.388205  1.345559
