34
Energy: -571606.848254 eV PBE+vdW (tier 2 basis)
C    -0.592259  -0.228675  0.049977
C    -0.709987  -0.418845  1.536090
O    0.225616  -1.011649  2.131020
H    -0.351209  -1.190470  -0.418641
H    0.254506  0.443859  -0.146364
H    -1.495133  0.188463  -0.409184
N    -1.818004  0.078378  2.129582
C    -2.239013  0.095649  3.543046
C    -1.240200  0.918447  4.405783
O    -0.207502  0.431489  4.956049
H    -2.467461  0.529194  1.492258
H    -3.160823  0.688007  3.511873
C    -2.614582  -1.265751  4.226097
C    -2.563216  -2.574485  3.393950
C    -1.755265  -3.688701  4.059075
C    -1.783355  -5.100857  3.343623
N    -3.006761  -5.746856  3.631136
H    -3.627515  -1.131949  4.625126
H    -1.994614  -1.381358  5.128559
H    -2.175102  -2.397968  2.382280
H    -3.594409  -2.925358  3.253908
H    -2.019437  -3.814858  5.118784
H    -0.629311  -3.456792  4.041797
H    -0.945328  -5.703909  3.709703
H    -1.664011  -4.948883  2.261206
H    -3.864979  -5.510234  3.144878
H    -3.099728  -6.358510  4.436177
N    -1.516805  2.204590  4.568303
C    -0.677995  3.130253  5.337681
H    -2.384714  2.565178  4.182239
H    -0.960447  4.152682  5.073211
H    0.376235  2.961362  5.095490
H    -0.827944  2.977061  6.414000
Hg    0.473753  -1.660502  4.353289
