34
Energy: -571607.037467 eV PBE+vdW (tier 2 basis)
C    -0.849438  -0.614799  -0.382339
C    -0.524069  -0.338054  1.051964
O    0.688490  -0.022784  1.300397
H    -0.690423  0.309997  -0.957468
H    -1.884788  -0.944837  -0.523491
H    -0.153377  -1.363886  -0.779449
N    -1.509181  -0.426762  1.963837
C    -1.612259  0.201862  3.303886
C    -1.307152  -0.816456  4.423509
O    -0.083702  -1.157875  4.700964
H    -2.401252  -0.740847  1.585580
H    -0.830135  0.978114  3.369272
C    -2.977184  0.890887  3.418095
C    -3.139067  1.765147  4.682140
C    -4.580487  1.817474  5.215438
C    -4.967466  0.671171  6.150508
N    -4.873722  -0.670860  5.525637
H    -3.760594  0.121231  3.357275
H    -3.104923  1.515673  2.523157
H    -2.803853  2.782569  4.442212
H    -2.473937  1.419071  5.489738
H    -5.293798  1.887409  4.378165
H    -4.715127  2.744557  5.788823
H    -5.992784  0.839098  6.522010
H    -4.313156  0.664704  7.034934
H    -5.161984  -1.392292  6.192130
H    -5.508167  -0.751044  4.725641
N    -2.258109  -1.367000  5.133435
C    -1.973993  -2.359152  6.178704
H    -3.304197  -1.034589  5.111567
H    -2.928720  -2.744201  6.546616
H    -1.420246  -1.902769  7.009459
H    -1.381162  -3.186928  5.774034
Hg    1.424963  -0.375828  3.348620
