34
Energy: -571606.338113 eV PBE+vdW (tier 2 basis)
C    -0.284912  -0.341227  0.123835
C    -0.277042  -0.219168  1.614899
O    0.681269  -0.642897  2.321826
H    -1.029540  0.281149  -0.377061
H    -0.495758  -1.391488  -0.130723
H    0.712177  -0.098960  -0.261073
N    -1.303610  0.321848  2.311702
C    -2.418275  1.201086  1.906804
C    -3.224534  0.600087  0.720247
O    -3.374992  1.203430  -0.343993
H    -1.157732  0.250528  3.321216
H    -3.105593  1.148427  2.766616
C    -2.053253  2.698288  1.787556
C    -0.942512  3.150059  0.823407
C    -1.332163  3.397052  -0.632747
C    -2.190061  4.728857  -0.885478
N    -1.420375  5.898213  -0.754714
H    -1.766894  3.003459  2.804265
H    -2.994729  3.230723  1.584753
H    -0.115346  2.420597  0.830902
H    -0.480756  4.056068  1.243113
H    -2.004781  2.612676  -1.016808
H    -0.440576  3.454187  -1.270462
H    -3.024836  4.740028  -0.171703
H    -2.570909  4.649859  -1.912374
H    -0.883533  6.266108  -1.536974
H    -1.316822  6.385477  0.131393
N    -3.782648  -0.608958  0.954027
C    -4.663209  -1.269856  -0.001994
H    -3.750988  -0.979808  1.900624
H    -5.703581  -0.934203  0.121221
H    -4.620514  -2.351276  0.164768
H    -4.340008  -1.022062  -1.018557
Hg    2.257970  -2.410083  1.798755
