34
Energy: -571606.249773 eV PBE+vdW (tier 2 basis)
C    -0.679710  0.764304  2.936334
C    -0.052252  -0.306721  3.765946
O    1.062262  -0.051944  4.315738
H    -1.760908  0.833974  3.087765
H    -0.471650  0.564266  1.873407
H    -0.205743  1.719990  3.184980
N    -0.635099  -1.512663  3.998619
C    -1.302204  -2.396391  3.027300
C    -0.209769  -2.842333  2.012701
O    0.908130  -2.266434  1.978082
H    -0.133775  -2.031272  4.720371
H    -1.591904  -3.279762  3.616689
C    -2.573901  -1.823463  2.363040
C    -3.632675  -1.349002  3.371474
C    -4.558799  -2.419634  3.969350
C    -5.805810  -2.743903  3.085511
N    -5.535747  -3.522350  1.922077
H    -3.004393  -2.607346  1.717797
H    -2.301983  -1.008873  1.680018
H    -4.241415  -0.563483  2.900425
H    -3.128064  -0.853189  4.217417
H    -4.963291  -2.057952  4.923779
H    -4.024383  -3.354422  4.200707
H    -6.310834  -1.816602  2.791121
H    -6.493609  -3.307861  3.751582
H    -5.960499  -3.263448  1.035046
H    -5.354550  -4.517863  2.029409
N    -0.502566  -3.839539  1.174230
C    0.427306  -4.394162  0.192295
H    -1.452360  -4.202035  1.169469
H    0.257125  -3.942032  -0.794837
H    0.270427  -5.475701  0.122828
H    1.452161  -4.179479  0.505947
Hg    2.660996  -1.644258  3.699624
