34
Energy: -571606.522487 eV PBE+vdW (tier 2 basis)
C    -0.011880  -1.703460  -0.694578
C    0.517939  -1.137680  0.583321
O    1.703875  -1.368332  0.988674
H    0.520408  -1.227337  -1.532959
H    -1.083119  -1.545343  -0.842844
H    0.203124  -2.778310  -0.735044
N    -0.227656  -0.374279  1.393438
C    -1.659606  -0.116836  1.363388
C    -1.833208  1.140356  2.258028
O    -1.039680  1.312270  3.188525
H    0.240054  0.038872  2.211799
H    -1.957349  0.086579  0.326639
C    -2.555368  -1.274789  1.904440
C    -2.620970  -1.509542  3.419036
C    -1.342103  -2.038692  4.083768
C    -1.609654  -2.503564  5.538045
N    -1.903515  -1.448943  6.437107
H    -2.240247  -2.193328  1.384072
H    -3.577694  -1.074776  1.551823
H    -3.432781  -2.237734  3.575105
H    -2.948733  -0.595529  3.939254
H    -0.548457  -1.278142  4.101272
H    -0.946323  -2.908366  3.539650
H    -0.675374  -3.020190  5.870820
H    -2.407057  -3.257003  5.595125
H    -1.312476  -0.621373  6.483850
H    -2.568124  -1.572528  7.196901
N    -2.865670  1.972363  2.014701
C    -3.781555  1.993797  0.879432
H    -2.871027  2.789566  2.626215
H    -4.070144  0.981033  0.579920
H    -3.344718  2.519667  0.017619
H    -4.688187  2.529107  1.180849
Hg    3.592847  -1.614721  -0.392810
