34
Energy: -571606.705982 eV PBE+vdW (tier 2 basis)
C    -1.342156  2.522152  0.883831
C    -0.965673  1.387388  1.780627
O    0.035128  1.439120  2.557567
H    -0.447911  2.888970  0.366163
H    -1.722237  3.345599  1.508720
H    -2.111445  2.276237  0.147090
N    -1.657825  0.232604  1.807146
C    -2.650420  -0.271414  0.886849
C    -3.384963  -1.382723  1.688809
O    -2.744956  -2.010992  2.532965
H    -1.374155  -0.459575  2.515579
H    -3.323472  0.545846  0.599158
C    -2.072402  -0.898684  -0.433644
C    -1.104113  -2.067768  -0.240442
C    -0.632970  -2.579126  -1.610727
C    0.379801  -3.789497  -1.428221
N    0.824625  -4.301107  -2.665171
H    -1.587331  -0.075248  -0.981752
H    -2.932646  -1.210940  -1.043297
H    -1.585385  -2.887993  0.311494
H    -0.237910  -1.750944  0.359839
H    -0.125015  -1.790909  -2.183961
H    -1.479308  -2.938558  -2.212362
H    -0.150123  -4.576855  -0.870911
H    1.240745  -3.434194  -0.846513
H    0.268170  -4.966469  -3.196231
H    1.661740  -3.946475  -3.120211
N    -4.679130  -1.639381  1.403989
C    -5.606596  -0.882187  0.570893
H    -5.084655  -2.349125  2.015619
H    -5.114965  -0.503296  -0.331257
H    -6.053483  -0.042060  1.122427
H    -6.414202  -1.553644  0.260339
Hg    0.724105  3.337398  3.822378
