34
Energy: -571606.958016 eV PBE+vdW (tier 2 basis)
C    -2.667570  -1.393953  -0.279003
C    -1.876823  -1.129126  0.970510
O    -0.739410  -1.666737  1.055584
H    -2.107955  -0.999629  -1.138463
H    -3.662900  -0.935915  -0.256236
H    -2.758974  -2.477672  -0.422464
N    -2.433930  -0.330039  1.905200
C    -1.782924  0.279759  3.071044
C    -1.885246  -0.661261  4.295922
O    -0.967533  -1.495577  4.560497
H    -3.372402  -0.001513  1.691685
H    -0.705416  0.347920  2.851017
C    -2.304174  1.710248  3.302837
C    -1.887065  2.681465  2.188028
C    -2.399336  4.124191  2.338484
C    -1.695373  4.970072  3.417452
N    -2.089365  4.664471  4.762543
H    -1.915290  2.061744  4.271007
H    -3.405525  1.703110  3.391914
H    -2.255459  2.310304  1.218664
H    -0.787984  2.690493  2.106098
H    -3.487945  4.137017  2.508111
H    -2.242090  4.641150  1.382591
H    -1.935484  6.034778  3.191910
H    -0.601782  4.889153  3.342995
H    -3.071873  4.781918  5.004588
H    -1.454803  4.921461  5.515754
N    -2.958576  -0.599471  5.069691
C    -3.183912  -1.466193  6.231952
H    -3.636492  0.135062  4.887669
H    -4.255298  -1.481964  6.450023
H    -2.638083  -1.088134  7.105808
H    -2.835456  -2.478756  6.005650
Hg    0.596293  -1.997604  2.925747
