34
Energy: -571606.83637 eV PBE+vdW (tier 2 basis)
C    -0.630760  2.642202  0.794019
C    -0.486201  1.930376  2.107781
O    0.556002  1.957855  2.772291
H    -0.990831  3.663723  0.993869
H    -1.335996  2.156727  0.110205
H    0.353647  2.727082  0.323653
N    -1.602419  1.249698  2.560765
C    -1.709427  0.380116  3.707775
C    -1.483645  1.094478  5.098076
O    -2.420680  0.848119  5.902358
H    -2.430992  1.306943  1.972511
H    -2.766555  0.093731  3.756261
C    -0.928068  -0.985866  3.653504
C    0.553801  -0.982010  3.313579
C    1.279473  -2.311847  3.590517
C    0.799058  -3.456781  2.603818
N    1.545018  -4.639303  2.777431
H    -1.483701  -1.573865  2.905026
H    -1.107360  -1.467299  4.627121
H    1.100750  -0.240272  3.922973
H    0.717246  -0.683110  2.269624
H    1.117878  -2.651142  4.623537
H    2.359297  -2.177660  3.448550
H    0.903754  -3.105057  1.570114
H    -0.264852  -3.653386  2.825335
H    2.329825  -4.867957  2.172696
H    1.408920  -5.239664  3.587093
N    -0.404649  1.825057  5.291796
C    -0.072021  2.559023  6.510002
H    0.198545  1.927694  4.452313
H    0.862740  3.098638  6.330126
H    0.085014  1.876194  7.355718
H    -0.850576  3.293187  6.756231
Hg    -2.878905  1.374199  8.237890
