34
Energy: -571606.764619 eV PBE+vdW (tier 2 basis)
C    0.806341  -0.211314  0.016832
C    0.369949  -0.606646  1.392871
O    0.864734  -1.598631  2.030299
H    0.303357  0.694363  -0.336979
H    0.577157  -1.029474  -0.681669
H    1.891718  -0.045350  0.006293
N    -0.570691  0.104239  2.005426
C    -1.140721  -0.257265  3.308911
C    -2.581117  0.276306  3.260472
O    -2.814767  1.244507  2.518891
H    -1.054401  0.872107  1.528293
H    -1.141460  -1.358353  3.367435
C    -0.349367  0.286246  4.525185
C    -0.529648  1.769824  4.904277
C    0.031013  2.777436  3.899943
C    0.166653  4.221290  4.525648
N    -1.060291  4.864087  4.793476
H    0.713479  0.055065  4.364352
H    -0.651604  -0.313026  5.397524
H    -0.015633  1.894073  5.870104
H    -1.589566  1.994074  5.100357
H    -0.595099  2.858080  3.000852
H    1.046883  2.502754  3.580851
H    0.721545  4.799317  3.756172
H    0.769513  4.185499  5.439827
H    -1.305733  5.184634  5.726122
H    -1.687249  5.136955  4.039997
N    -3.500222  -0.314555  4.038169
C    -4.887605  0.128722  4.118550
H    -3.204108  -1.074494  4.645167
H    -5.536209  -0.746625  4.230376
H    -5.138324  0.672636  3.202045
H    -5.040999  0.794792  4.979695
Hg    2.284139  -3.216688  1.056333
