34
Energy: -571607.904642 eV PBE+vdW (tier 2 basis)
C    0.171125  0.789251  0.832592
C    -0.551081  0.729452  2.139109
O    -0.139892  1.512909  3.060050
H    -0.222526  0.079472  0.096879
H    1.236179  0.582985  1.005412
H    0.104427  1.809065  0.430122
N    -1.568513  -0.145441  2.269798
C    -2.363302  -0.300176  3.483986
C    -1.582008  -1.011938  4.615094
O    -1.131117  -0.286841  5.547974
H    -1.790478  -0.710707  1.453543
H    -2.430310  0.716455  3.877517
C    -3.851043  -0.658628  3.336189
C    -4.773944  0.585190  3.185539
C    -4.382802  1.886554  3.928187
C    -4.152202  1.805328  5.452651
N    -3.028971  2.707150  5.920630
H    -4.133202  -1.217835  4.239728
H    -4.031782  -1.348557  2.500568
H    -5.783980  0.279498  3.489960
H    -4.860705  0.854802  2.124132
H    -5.169623  2.625351  3.723535
H    -3.487160  2.326062  3.448333
H    -3.895289  0.795909  5.797610
H    -5.055393  2.107475  6.002347
H    -3.216989  3.689226  5.687165
H    -2.924608  2.656840  6.940851
N    -1.392253  -2.325472  4.622072
C    -1.892337  -3.336323  3.691572
H    -0.866388  -2.666016  5.428540
H    -2.120210  -2.896609  2.716979
H    -2.792843  -3.822808  4.088228
H    -1.115798  -4.095179  3.547774
Hg    -1.166737  2.036493  4.924185
