34
Energy: -571606.55862 eV PBE+vdW (tier 2 basis)
C    1.261452  2.365088  0.691620
C    1.286211  1.035845  1.366197
O    2.355296  0.467073  1.727174
H    0.282300  2.626368  0.280391
H    1.996188  2.351203  -0.125475
H    1.590356  3.137961  1.400912
N    0.158923  0.335164  1.665340
C    -1.234543  0.772990  1.816822
C    -1.870588  0.904619  0.378357
O    -1.846392  1.985060  -0.202721
H    0.375039  -0.592952  2.033751
H    -1.725971  -0.064879  2.330775
C    -1.433568  2.064848  2.628810
C    -2.886694  2.362826  3.029792
C    -3.450773  1.465327  4.143690
C    -4.886902  1.874210  4.547953
N    -4.965364  3.120469  5.223407
H    -1.075756  2.910406  2.027155
H    -0.800891  1.999372  3.526643
H    -3.538480  2.329388  2.142538
H    -2.920644  3.407196  3.375201
H    -2.802075  1.499812  5.033067
H    -3.500403  0.409839  3.838388
H    -5.262007  1.067595  5.224172
H    -5.570299  1.892316  3.688358
H    -5.762622  3.738106  5.094115
H    -4.383441  3.307173  6.037429
N    -2.392999  -0.225630  -0.133742
C    -3.067132  -0.264045  -1.429576
H    -2.444392  -1.051108  0.455588
H    -2.953538  -1.266481  -1.855369
H    -2.612122  0.484089  -2.087253
H    -4.137872  -0.038129  -1.329487
Hg    4.518701  0.576819  0.652223
