34
Energy: -571606.812698 eV PBE+vdW (tier 2 basis)
C    1.056989  2.240556  1.539406
C    0.280939  1.202014  2.300680
O    0.797138  0.056635  2.398172
H    0.634916  3.247595  1.633632
H    1.075047  1.954271  0.478501
H    2.095191  2.242186  1.892377
N    -0.900961  1.582509  2.828732
C    -1.932061  0.788429  3.525960
C    -1.373534  0.175898  4.836381
O    -1.058979  -1.043458  4.950434
H    -1.156385  2.546219  2.634885
H    -2.668114  1.537264  3.849071
C    -2.669763  -0.208422  2.615173
C    -3.973135  -0.785846  3.186723
C    -5.160163  0.190529  3.144274
C    -6.480023  -0.465092  3.624297
N    -6.992010  -1.450931  2.732927
H    -2.006398  -1.055773  2.344985
H    -2.859744  0.306355  1.661469
H    -3.814827  -1.150767  4.213625
H    -4.236417  -1.673583  2.593277
H    -5.303683  0.574364  2.122319
H    -4.992616  1.068749  3.785698
H    -7.215211  0.364886  3.728645
H    -6.367133  -0.912488  4.620165
H    -7.455764  -2.278543  3.096548
H    -7.246699  -1.192534  1.782397
N    -1.268849  0.962411  5.906589
C    -1.674700  2.360697  6.059701
H    -0.884469  0.495826  6.729122
H    -1.089086  3.017549  5.404895
H    -1.484103  2.653715  7.095780
H    -2.747143  2.494611  5.865121
Hg    0.082058  -2.020135  3.167790
