34
Energy: -571606.646287 eV PBE+vdW (tier 2 basis)
C    1.071566  -0.191290  -0.111581
C    0.779354  -0.189744  1.361688
O    1.583134  -0.600392  2.207257
H    1.906693  -0.867940  -0.312192
H    1.378776  0.823278  -0.411107
H    0.202800  -0.471558  -0.719658
N    -0.450720  0.320373  1.731310
C    -1.068008  0.335189  3.039817
C    -0.299316  1.184113  4.119625
O    -1.083928  1.957022  4.739501
H    -1.028752  0.680414  0.974660
H    -1.997789  0.901725  2.905218
C    -1.534177  -1.029288  3.657802
C    -0.546645  -2.181334  3.885686
C    -0.475114  -3.188275  2.724343
C    0.507992  -4.337056  3.003254
N    0.068923  -5.245728  4.002759
H    -2.362222  -1.366881  3.016018
H    -1.997310  -0.746646  4.614775
H    -0.873668  -2.726870  4.785962
H    0.460192  -1.808483  4.125420
H    -0.153763  -2.706110  1.792279
H    -1.474715  -3.605310  2.524254
H    1.515057  -3.977858  3.262833
H    0.638597  -4.893075  2.039910
H    0.738421  -5.788530  4.543380
H    -0.887002  -5.596986  3.998658
N    0.993767  1.015349  4.293253
C    1.840025  1.734244  5.241621
H    1.424853  0.333258  3.636523
H    2.871454  1.402703  5.087647
H    1.559829  1.505982  6.278939
H    1.801601  2.817731  5.066271
Hg    -0.853798  3.476092  6.569645
