34
Energy: -571606.394474 eV PBE+vdW (tier 2 basis)
C    -0.186899  0.623159  0.326858
C    -0.391561  0.584856  1.805333
O    0.490956  0.957569  2.629186
H    0.059110  1.649235  0.022893
H    -1.039178  0.260591  -0.253921
H    0.685498  -0.003169  0.087001
N    -1.543924  0.144908  2.372622
C    -2.889202  0.042309  1.798109
C    -2.966946  -1.178087  0.803087
O    -3.178113  -0.963230  -0.391702
H    -1.482617  0.100962  3.391590
H    -3.533542  -0.217597  2.650314
C    -3.384473  1.362665  1.177952
C    -4.802444  1.372757  0.591165
C    -5.937030  1.099449  1.589974
C    -7.303819  1.544606  1.015516
N    -7.775007  0.752751  -0.059474
H    -2.698369  1.681309  0.382558
H    -3.306708  2.118984  1.975596
H    -4.879608  0.672550  -0.256408
H    -4.934819  2.374400  0.151766
H    -5.784020  1.659405  2.524559
H    -5.999307  0.034578  1.864019
H    -7.296865  2.599305  0.708825
H    -8.026606  1.478362  1.867381
H    -7.818835  -0.261013  0.017656
H    -8.303200  1.166058  -0.824111
N    -2.825775  -2.412839  1.315651
C    -2.564241  -2.810341  2.696379
H    -2.875523  -3.154039  0.618467
H    -2.806856  -3.873062  2.793540
H    -3.202442  -2.264114  3.402267
H    -1.509596  -2.674415  2.970749
Hg    2.892367  0.912131  2.341382
