34
Energy: -571606.592132 eV PBE+vdW (tier 2 basis)
C    -2.338374  -0.710082  -0.690601
C    -1.119129  -0.621267  0.174561
O    -0.252736  -1.528913  0.256878
H    -3.212540  -0.969569  -0.075013
H    -2.208928  -1.502250  -1.433099
H    -2.555514  0.232535  -1.206899
N    -0.918165  0.462849  0.970982
C    -1.893839  1.493179  1.330500
C    -1.138661  2.862363  1.405728
O    -0.879801  3.371722  2.505493
H    -0.073360  0.396602  1.540389
H    -2.617344  1.562703  0.507903
C    -2.666914  1.209021  2.628560
C    -1.803858  0.891405  3.862290
C    -2.385473  1.313050  5.196473
C    -2.521179  2.915331  5.415387
N    -1.313275  3.608294  5.332243
H    -3.360486  0.379458  2.427556
H    -3.309174  2.084111  2.807936
H    -0.792778  1.309730  3.755608
H    -1.651060  -0.201694  3.927346
H    -1.771809  0.942891  6.027129
H    -3.416932  0.957553  5.336709
H    -2.979640  3.043234  6.403150
H    -3.195353  3.260455  4.614601
H    -0.916195  3.823409  4.414251
H    -0.755793  3.806584  6.160564
N    -0.801210  3.458948  0.251679
C    -1.134634  3.061838  -1.114785
H    -0.338799  4.359059  0.374729
H    -0.690900  2.091720  -1.368583
H    -0.715294  3.810427  -1.792972
H    -2.220847  3.037679  -1.278328
Hg    0.356855  -3.286844  -1.347076
