34
Energy: -571606.583474 eV PBE+vdW (tier 2 basis)
C    -0.369528  -0.121587  -0.507420
C    -0.279435  -0.598418  0.903791
O    0.763368  -1.078650  1.413683
H    -0.357529  0.979191  -0.516553
H    -1.292970  -0.445515  -1.003431
H    0.488209  -0.494400  -1.073640
N    -1.357345  -0.557225  1.751631
C    -2.775145  -0.459365  1.453836
C    -3.247456  -1.613899  0.475049
O    -3.506340  -1.326468  -0.692589
H    -1.108749  -0.864373  2.693273
H    -3.273107  -0.645668  2.415896
C    -3.206749  0.919371  0.903742
C    -4.699856  1.180279  1.161082
C    -5.109903  2.513487  0.521385
C    -6.654191  2.773475  0.634166
N    -7.112602  3.113839  1.922275
H    -3.002189  0.949175  -0.174459
H    -2.598721  1.693582  1.392384
H    -4.910557  1.207768  2.241918
H    -5.297955  0.363632  0.729663
H    -4.875786  2.519512  -0.552052
H    -4.572464  3.358739  0.975478
H    -7.230406  1.925986  0.246432
H    -6.812431  3.637717  -0.052035
H    -6.782753  3.956050  2.388412
H    -7.913364  2.650848  2.342768
N    -3.335046  -2.854689  0.979343
C    -3.040887  -3.316795  2.334153
H    -3.625513  -3.555273  0.299157
H    -3.440588  -4.329979  2.437964
H    -3.533450  -2.694946  3.092398
H    -1.960364  -3.360083  2.527685
Hg    3.067742  -0.358131  0.979177
