34
Energy: -571606.430746 eV PBE+vdW (tier 2 basis)
C    1.279776  1.082392  1.704099
C    0.828980  0.578227  3.031880
O    1.179133  1.213503  4.077344
H    2.318346  1.428764  1.801966
H    0.688605  1.968511  1.425706
H    1.221255  0.319507  0.921504
N    0.073899  -0.537621  3.154383
C    -1.046918  -0.918014  2.295402
C    -2.340036  -0.556484  3.077920
O    -2.377044  0.380206  3.947084
H    0.064720  -0.935384  4.094745
H    -1.035328  -0.226527  1.436184
C    -0.972176  -2.363338  1.776538
C    -1.606440  -2.520490  0.379972
C    -2.061009  -3.947894  0.043579
C    -3.107908  -4.511024  1.005232
N    -4.223505  -3.599244  1.222460
H    0.086573  -2.651279  1.732885
H    -1.432138  -3.039182  2.513517
H    -0.884394  -2.188851  -0.379447
H    -2.465701  -1.838220  0.267726
H    -1.204724  -4.637071  0.035427
H    -2.460581  -3.954050  -0.981360
H    -2.682646  -4.764512  1.989126
H    -3.480582  -5.477607  0.604410
H    -4.664667  -3.265642  0.361734
H    -4.935952  -3.966201  1.855741
N    -3.475205  -1.175967  2.796379
C    -4.743094  -0.839255  3.451444
H    -3.523640  -1.939633  2.086399
H    -5.490813  -1.573250  3.140661
H    -5.076417  0.162718  3.153459
H    -4.632662  -0.864468  4.541732
Hg    -0.736632  1.304940  5.374114
