34
Energy: -571606.320231 eV PBE+vdW (tier 2 basis)
C    0.959576  -0.382648  0.989970
C    -0.084521  -1.008499  1.878583
O    0.167415  -2.202579  2.245756
H    1.516804  0.372432  1.563800
H    0.496950  0.092913  0.116335
H    1.663353  -1.149480  0.655444
N    -1.170593  -0.342155  2.243120
C    -1.551724  1.042559  1.935804
C    -2.324626  1.483481  3.202090
O    -2.980373  0.628901  3.803886
H    -1.841114  -0.768861  2.896688
H    -0.648194  1.642075  1.773738
C    -2.502585  1.072424  0.704691
C    -3.032515  2.453377  0.288293
C    -2.083092  3.313600  -0.559981
C    -2.142023  2.978282  -2.097840
N    -3.310325  3.446562  -2.742004
H    -3.353082  0.420398  0.951589
H    -1.979965  0.585254  -0.133385
H    -3.318264  3.029265  1.183823
H    -3.977033  2.310012  -0.254552
H    -1.030249  3.191812  -0.263129
H    -2.317274  4.380362  -0.442638
H    -2.038105  1.901644  -2.275351
H    -1.258004  3.490140  -2.532667
H    -3.496096  4.443185  -2.829231
H    -3.937756  2.825310  -3.244073
N    -2.319064  2.781096  3.597689
C    -1.396867  3.846269  3.234284
H    -2.904418  2.940919  4.420054
H    -0.495523  3.827920  3.866850
H    -1.896391  4.809841  3.384530
H    -1.092646  3.771028  2.185654
Hg    -0.896967  -3.578906  3.791538
