34
Energy: -571606.563118 eV PBE+vdW (tier 2 basis)
C    -0.370812  -1.166027  0.014519
C    -0.135635  -0.662028  1.414243
O    1.034935  -0.866433  1.871762
H    0.457329  -1.813065  -0.287024
H    -0.407306  -0.308270  -0.674201
H    -1.313216  -1.723074  -0.053593
N    -1.093385  -0.048165  2.100417
C    -2.423153  0.355435  1.636908
C    -2.725479  1.633861  2.456534
O    -2.150326  1.799212  3.537062
H    -0.879803  0.373983  3.015554
H    -2.378785  0.588350  0.563980
C    -3.516189  -0.724605  1.871486
C    -3.762783  -1.099097  3.335471
C    -4.644375  -2.354106  3.529198
C    -6.142195  -2.148842  3.254558
N    -6.810557  -1.368231  4.234118
H    -3.211558  -1.619182  1.305316
H    -4.437172  -0.363313  1.389566
H    -4.207711  -0.254669  3.884972
H    -2.801094  -1.313474  3.824837
H    -4.522404  -2.717990  4.560391
H    -4.294846  -3.170564  2.881472
H    -6.595584  -3.174073  3.237596
H    -6.362097  -1.736915  2.258340
H    -7.684613  -0.896720  4.013961
H    -6.633038  -1.528722  5.224212
N    -3.642964  2.484514  1.953722
C    -4.012490  3.731773  2.611292
H    -3.980419  2.329494  1.006977
H    -3.406509  4.568739  2.233290
H    -3.836271  3.632717  3.686825
H    -5.067858  3.945963  2.410068
Hg    2.158217  0.059009  3.690533
