34
Energy: -571606.510023 eV PBE+vdW (tier 2 basis)
C    -2.452694  3.941784  -1.289421
C    -1.440846  3.325441  -0.380915
O    -0.236501  3.707634  -0.455553
H    -1.974032  4.159372  -2.252432
H    -2.777383  4.908761  -0.875313
H    -3.319531  3.291448  -1.447788
N    -1.775663  2.354785  0.502217
C    -2.965651  2.344772  1.350279
C    -2.576037  3.169236  2.606412
O    -1.371451  3.271619  2.958501
H    -0.963318  1.958462  0.978537
H    -3.781779  2.851485  0.816323
C    -3.377818  0.881263  1.655749
C    -4.705260  0.725970  2.403053
C    -5.278576  -0.703526  2.430593
C    -4.528557  -1.695502  3.341949
N    -3.301149  -2.186234  2.808881
H    -2.558330  0.393397  2.209504
H    -3.440933  0.378692  0.679056
H    -5.475074  1.348740  1.914906
H    -4.615818  1.096263  3.437049
H    -5.342550  -1.114515  1.410954
H    -6.311206  -0.654194  2.799982
H    -5.227929  -2.553830  3.497784
H    -4.343959  -1.284029  4.344679
H    -3.299738  -2.608452  1.881907
H    -2.591286  -2.548226  3.441912
N    -3.558697  3.743508  3.305776
C    -3.356813  4.559027  4.500873
H    -4.518858  3.555927  3.025220
H    -3.493818  3.954248  5.408309
H    -4.087934  5.374358  4.503045
H    -2.339289  4.958915  4.495997
Hg    0.747950  4.002178  1.682164
