34
Energy: -571606.424286 eV PBE+vdW (tier 2 basis)
C    0.216606  -1.144699  0.781035
C    0.700093  0.114788  1.420159
O    1.930773  0.403640  1.353485
H    0.079713  -0.980616  -0.298951
H    -0.715732  -1.506884  1.227103
H    0.995314  -1.910987  0.883383
N    -0.138270  0.944061  2.086166
C    -1.475128  1.333785  1.642930
C    -1.258961  2.588713  0.760759
O    -0.202139  3.270668  0.871066
H    0.355040  1.707852  2.550420
H    -1.880820  0.519642  1.028821
C    -2.426154  1.567876  2.848455
C    -2.099394  2.787790  3.715823
C    -2.855492  2.857369  5.057405
C    -4.360273  3.165910  4.956470
N    -5.170930  2.067373  4.543510
H    -2.382787  0.647354  3.449473
H    -3.455965  1.635823  2.466406
H    -2.264934  3.718568  3.150543
H    -1.029961  2.791146  3.984524
H    -2.409430  3.657285  5.662630
H    -2.707082  1.928200  5.630152
H    -4.568501  4.028948  4.307052
H    -4.676415  3.487991  5.979789
H    -5.086391  1.181264  5.038898
H    -6.096545  2.249278  4.161215
N    -2.203054  2.976613  -0.101371
C    -3.544787  2.441060  -0.305597
H    -1.952332  3.810695  -0.635481
H    -3.586587  1.376293  -0.056583
H    -3.806973  2.558374  -1.362873
H    -4.285482  2.986782  0.295581
Hg    2.294486  2.690292  0.844749
