34
Energy: -571606.525368 eV PBE+vdW (tier 2 basis)
C    0.293484  1.364892  1.381512
C    -0.342248  1.571722  2.718363
O    -0.219056  2.693192  3.286287
H    1.179063  2.006389  1.306403
H    -0.406221  1.697516  0.598405
H    0.569955  0.320179  1.203347
N    -1.028777  0.576044  3.331058
C    -1.924316  -0.366829  2.666548
C    -3.251306  0.397708  2.364548
O    -3.400771  1.611500  2.663206
H    -1.316220  0.813938  4.281426
H    -1.479489  -0.640000  1.697306
C    -2.139899  -1.634951  3.511625
C    -0.969488  -2.641157  3.561729
C    0.172043  -2.284086  4.518913
C    1.162872  -3.514482  4.657270
N    2.225049  -3.280077  5.560535
H    -3.006625  -2.170618  3.098808
H    -2.446581  -1.342964  4.529563
H    -0.578180  -2.804602  2.545239
H    -1.401679  -3.603403  3.873366
H    -0.214624  -2.053738  5.522194
H    0.755150  -1.419380  4.175196
H    1.572799  -3.735231  3.661404
H    0.570282  -4.372003  5.009818
H    3.118624  -2.906882  5.253035
H    2.129011  -3.468008  6.554856
N    -4.219225  -0.267093  1.734414
C    -5.511765  0.318168  1.371443
H    -4.016734  -1.200815  1.386578
H    -5.442659  0.848882  0.412463
H    -5.820262  1.025233  2.147278
H    -6.247534  -0.486866  1.286314
Hg    -2.337244  3.399475  4.114322
