34
Energy: -571606.435921 eV PBE+vdW (tier 2 basis)
C    0.264755  0.317810  0.908816
C    -0.516239  0.961106  2.005358
O    -0.153449  2.033155  2.570884
H    0.283260  0.988796  0.038737
H    -0.117775  -0.662927  0.613480
H    1.304246  0.201484  1.247102
N    -1.686130  0.453340  2.466669
C    -2.631856  -0.477830  1.830919
C    -2.068301  -1.939811  1.967010
O    -1.565343  -2.482667  0.982274
H    -2.048391  0.980013  3.263879
H    -3.537087  -0.410759  2.450329
C    -3.001623  -0.108928  0.383354
C    -4.342068  -0.673356  -0.132889
C    -4.331532  -2.155422  -0.519988
C    -5.657003  -2.500536  -1.338644
N    -5.719895  -3.847673  -1.745178
H    -2.189906  -0.397105  -0.296746
H    -3.084048  0.987551  0.352498
H    -4.597804  -0.075998  -1.020736
H    -5.141241  -0.474190  0.598698
H    -4.301978  -2.825769  0.348717
H    -3.471850  -2.399083  -1.157938
H    -5.662100  -1.849968  -2.225630
H    -6.516827  -2.269901  -0.693544
H    -6.144662  -4.564517  -1.162450
H    -5.284994  -4.163824  -2.608666
N    -2.166389  -2.536657  3.169060
C    -2.768311  -2.026276  4.399724
H    -1.782770  -3.480095  3.191572
H    -2.200882  -1.181997  4.811935
H    -2.751257  -2.831103  5.140275
H    -3.816895  -1.735131  4.253656
Hg    2.092505  2.837240  2.898991
