34
Energy: -571606.95895 eV PBE+vdW (tier 2 basis)
C    0.168272  1.583487  0.693841
C    0.051805  1.350654  2.173329
O    0.797018  2.034736  2.927478
H    0.119668  2.661570  0.495936
H    -0.607959  1.068602  0.117055
H    1.159312  1.242512  0.363587
N    -0.838602  0.428140  2.591694
C    -1.288527  0.163687  3.964101
C    -0.398391  -0.923836  4.615797
O    0.670558  -0.619966  5.229781
H    -1.343629  -0.058276  1.854736
H    -1.105389  1.074858  4.554507
C    -2.793698  -0.153009  3.985217
C    -3.734137  1.008830  3.611112
C    -3.820004  2.124939  4.662575
C    -5.057683  3.038051  4.468471
N    -5.011740  3.848954  3.294336
H    -3.049839  -0.512432  4.993191
H    -2.998543  -0.990354  3.295206
H    -4.732235  0.565734  3.479114
H    -3.467777  1.431132  2.630023
H    -2.913591  2.751203  4.669411
H    -3.911533  1.693208  5.670563
H    -5.116194  3.686440  5.370675
H    -5.978347  2.441347  4.448829
H    -5.861478  4.017703  2.763094
H    -4.302772  4.573138  3.210150
N    -0.750386  -2.195585  4.515040
C    0.033127  -3.309227  5.063228
H    -1.650040  -2.411457  4.094543
H    -0.305690  -4.234811  4.590441
H    -0.109110  -3.379781  6.149044
H    1.095569  -3.151245  4.851743
Hg    1.525802  1.518351  5.081427
