34
Energy: -571606.651319 eV PBE+vdW (tier 2 basis)
C    0.004062  0.098953  0.173990
C    0.225134  -0.270953  1.606372
O    1.325119  -0.668240  2.068570
H    -0.528845  1.053097  0.073913
H    -0.588572  -0.678233  -0.331080
H    0.964982  0.167240  -0.342679
N    -0.805285  -0.243495  2.496491
C    -2.226046  -0.201815  2.224762
C    -2.838398  0.779797  3.294380
O    -2.997286  0.366110  4.439586
H    -0.533581  -0.501954  3.449479
H    -2.373927  0.191416  1.210131
C    -2.917709  -1.583115  2.377394
C    -4.380361  -1.558116  1.949314
C    -5.117630  -2.902466  2.064726
C    -5.415954  -3.321942  3.532934
N    -4.292859  -3.809844  4.248020
H    -2.824499  -1.862670  3.441934
H    -2.355624  -2.316897  1.780087
H    -4.446780  -1.269424  0.884818
H    -4.935472  -0.787882  2.507643
H    -4.562276  -3.707103  1.559664
H    -6.087524  -2.826692  1.556710
H    -6.173719  -4.136427  3.440756
H    -5.884866  -2.509948  4.101981
H    -4.174574  -3.591874  5.234396
H    -3.805027  -4.640566  3.918789
N    -3.122428  2.020794  2.868174
C    -3.755867  3.022821  3.726145
H    -3.020604  2.233791  1.880992
H    -3.426520  4.017043  3.406984
H    -3.454868  2.840005  4.762753
H    -4.850827  2.969254  3.658165
Hg    3.581155  0.110099  1.534523
