34
Energy: -571606.415568 eV PBE+vdW (tier 2 basis)
C    -0.110748  0.143729  -0.200145
C    -0.047869  0.098605  1.291873
O    1.071179  -0.074606  1.854897
H    0.154262  1.153834  -0.548922
H    -1.097057  -0.136236  -0.584652
H    0.650410  -0.535289  -0.603718
N    -1.164945  0.219906  2.051352
C    -2.224327  1.211624  1.837672
C    -1.635292  2.545765  2.361742
O    -0.859396  2.526245  3.361329
H    -0.985656  0.058651  3.044044
H    -2.439778  1.269409  0.763658
C    -3.481911  0.768262  2.620846
C    -4.709377  1.669093  2.474642
C    -5.944527  1.211016  3.272127
C    -6.681596  -0.017192  2.693167
N    -6.034424  -1.266539  2.922365
H    -3.209640  0.688288  3.686213
H    -3.715057  -0.253669  2.278543
H    -4.982482  1.779322  1.413059
H    -4.473532  2.681747  2.840401
H    -6.673584  2.031524  3.286731
H    -5.680546  1.023101  4.324651
H    -6.881390  0.090059  1.618002
H    -7.683301  -0.028580  3.187646
H    -5.817930  -1.542063  3.878647
H    -6.200216  -2.041121  2.283598
N    -1.938489  3.716609  1.795331
C    -2.867930  4.036934  0.716974
H    -1.466598  4.509878  2.235753
H    -3.761103  4.538598  1.112587
H    -3.173899  3.136730  0.178889
H    -2.371354  4.718725  0.015622
Hg    1.376227  1.414367  3.686423
