34
Energy: -571606.565455 eV PBE+vdW (tier 2 basis)
C    -1.565641  -1.687231  2.139004
C    -0.184836  -1.225979  1.794528
O    0.840824  -1.940266  2.015235
H    -1.577441  -2.028656  3.181810
H    -1.818229  -2.547630  1.501786
H    -2.337298  -0.924210  2.010322
N    0.051799  -0.022277  1.242702
C    -0.858035  1.120134  1.079987
C    -0.358820  1.824031  -0.213396
O    0.743854  2.399399  -0.177417
H    1.040390  0.177552  1.070691
H    -1.873864  0.743326  0.919053
C    -0.834018  2.044805  2.309883
C    -1.768732  3.261253  2.281199
C    -1.363314  4.490169  1.431214
C    -0.079756  5.182254  1.894801
N    1.124387  4.537579  1.540038
H    0.206489  2.346648  2.516507
H    -1.122919  1.417102  3.167981
H    -1.904994  3.593428  3.320190
H    -2.773343  2.958289  1.942134
H    -2.172785  5.227510  1.510468
H    -1.289012  4.246993  0.361744
H    -0.072708  5.424770  2.973662
H    -0.075080  6.202272  1.418322
H    1.164050  3.881583  0.744652
H    1.991853  4.758826  2.026283
N    -1.116344  1.775055  -1.313178
C    -2.394214  1.086936  -1.517216
H    -0.702737  2.238453  -2.121599
H    -3.179322  1.489007  -0.865090
H    -2.297379  0.003850  -1.370115
H    -2.702567  1.256784  -2.552732
Hg    0.932081  -4.284200  2.375336
