34
Energy: -571608.223947 eV PBE+vdW (tier 2 basis)
C    0.004826  1.444526  -0.453508
C    -0.245476  0.696262  0.813809
O    -0.349695  1.408417  1.875725
H    0.105154  0.783987  -1.321519
H    0.918608  2.043520  -0.340534
H    -0.821237  2.148707  -0.623618
N    -0.340261  -0.643224  0.761706
C    -0.614787  -1.510731  1.908353
C    0.662821  -1.710410  2.759051
O    0.849883  -0.946141  3.740363
H    -0.228895  -1.066701  -0.157197
H    -1.276599  -0.908683  2.544690
C    -1.492668  -2.737793  1.675370
C    -2.045480  -3.257262  3.028875
C    -2.795708  -2.218006  3.917481
C    -2.036419  -1.752047  5.185920
N    -2.022674  -0.249878  5.412330
H    -0.964658  -3.551846  1.156887
H    -2.327242  -2.442051  1.021585
H    -1.230890  -3.715383  3.610287
H    -2.730402  -4.081183  2.797104
H    -3.744899  -2.662516  4.239700
H    -3.109591  -1.346624  3.314820
H    -0.986204  -2.063681  5.175403
H    -2.494476  -2.183365  6.087275
H    -1.581592  -0.040620  6.316252
H    -2.976904  0.127297  5.458634
N    1.517292  -2.663412  2.403468
C    2.791624  -2.929247  3.077769
H    1.270124  -3.264179  1.621627
H    3.586909  -3.009139  2.328544
H    2.732756  -3.869013  3.640761
H    3.009512  -2.105625  3.761767
Hg    -0.919749  0.743043  3.824820
