34
Energy: -571606.434124 eV PBE+vdW (tier 2 basis)
C    -0.720342  0.974682  0.095686
C    -0.081085  0.090025  1.112755
O    1.172401  -0.067331  1.078188
H    -1.609520  1.482876  0.477712
H    -0.981390  0.384386  -0.795091
H    0.022599  1.717530  -0.219154
N    -0.770280  -0.499550  2.140814
C    -1.982944  -1.312090  2.030467
C    -1.501924  -2.622939  1.320944
O    -0.700589  -2.510887  0.362808
H    -0.121404  -0.862538  2.842915
H    -2.267823  -1.551700  3.066328
C    -3.186372  -0.651761  1.328949
C    -4.519267  -1.364450  1.601587
C    -5.685607  -0.628828  0.917893
C    -7.053586  -1.298837  1.141169
N    -7.569749  -1.150223  2.458360
H    -3.009358  -0.598390  0.246043
H    -3.250350  0.380849  1.701843
H    -4.705259  -1.416586  2.687024
H    -4.483610  -2.402186  1.232167
H    -5.517929  -0.584480  -0.167560
H    -5.734249  0.415912  1.263416
H    -7.048282  -2.366788  0.878806
H    -7.759716  -0.822910  0.415762
H    -7.590799  -0.231806  2.897580
H    -8.229492  -1.828602  2.831505
N    -1.940438  -3.790641  1.790224
C    -1.516195  -5.091901  1.275390
H    -2.575642  -3.781786  2.584608
H    -2.359835  -5.788088  1.330083
H    -0.689959  -5.496175  1.877338
H    -1.193518  -4.979702  0.236798
Hg    1.822228  -2.314585  0.603909
