34
Energy: -571608.491564 eV PBE+vdW (tier 2 basis)
C    -0.406616  0.543761  -0.081701
C    -0.633739  0.007161  1.296824
O    0.260534  -0.811459  1.718158
H    -0.382695  -0.290684  -0.795188
H    0.585132  1.016577  -0.112917
H    -1.160543  1.274040  -0.393658
N    -1.712089  0.439767  1.961956
C    -2.201278  0.332812  3.367573
C    -1.067609  0.412396  4.409461
O    -0.415709  -0.602495  4.762886
H    -2.283917  1.066310  1.400056
H    -2.780779  1.258659  3.482231
C    -3.218130  -0.814094  3.653718
C    -3.033654  -2.213789  3.015655
C    -3.045973  -3.426695  3.971753
C    -1.927751  -3.601420  5.001241
N    -0.577104  -3.926105  4.391877
H    -4.199494  -0.434990  3.343084
H    -3.278610  -0.894003  4.748988
H    -2.163752  -2.238197  2.330428
H    -3.861307  -2.382483  2.313468
H    -3.127297  -4.344740  3.368380
H    -3.978851  -3.392824  4.554370
H    -2.174881  -4.439513  5.668105
H    -1.780103  -2.709051  5.622264
H    -0.618695  -4.797287  3.849716
H    0.120451  -4.069005  5.131566
N    -0.862189  1.608053  4.959098
C    0.136368  1.880319  5.993740
H    -1.462660  2.379582  4.681704
H    -0.341632  1.926735  6.980739
H    0.616393  2.841630  5.782418
H    0.882883  1.082456  5.990250
Hg    0.020293  -2.299423  3.161754
