34
Energy: -571606.956324 eV PBE+vdW (tier 2 basis)
C    1.026557  1.445443  1.745883
C    0.073262  0.577596  2.516324
O    0.120106  0.639650  3.776505
H    2.046779  1.068218  1.903742
H    0.996518  2.462826  2.155216
H    0.808119  1.473741  0.672662
N    -0.766366  -0.206788  1.811054
C    -1.921033  -0.969338  2.303971
C    -1.489924  -2.420933  2.624863
O    -0.880936  -2.702045  3.703693
H    -0.660586  -0.163792  0.800151
H    -2.210161  -0.536360  3.274882
C    -3.102691  -0.844428  1.328443
C    -3.723623  0.559914  1.196857
C    -4.506297  1.030284  2.431797
C    -5.454247  2.217930  2.125132
N    -4.784592  3.440208  1.816170
H    -3.883487  -1.550534  1.649239
H    -2.780513  -1.167923  0.323163
H    -4.407668  0.514319  0.336721
H    -2.959061  1.303896  0.925648
H    -3.834844  1.315398  3.257475
H    -5.144387  0.218133  2.811446
H    -6.089571  2.355948  3.028096
H    -6.131452  1.968372  1.298579
H    -4.222997  3.900696  2.528031
H    -5.162399  4.057446  1.102679
N    -1.735647  -3.384054  1.752363
C    -1.339871  -4.784386  1.949390
H    -2.222539  -3.142092  0.894131
H    -0.249599  -4.885164  1.884030
H    -1.810381  -5.387778  1.169330
H    -1.671987  -5.129970  2.934595
Hg    -0.423578  -1.067182  5.265339
