34
Energy: -571606.566546 eV PBE+vdW (tier 2 basis)
C    -0.400413  -1.313857  -0.469300
C    -0.298183  -0.126520  0.427982
O    0.178968  0.975490  0.050932
H    -0.934592  -1.028744  -1.384493
H    -0.872769  -2.184114  -0.006766
H    0.620546  -1.597196  -0.769049
N    -0.721098  -0.147163  1.725409
C    -1.683957  -1.014613  2.396150
C    -1.062611  -2.440988  2.637332
O    -1.399118  -3.385714  1.927945
H    -0.493560  0.723852  2.209657
H    -1.837643  -0.538449  3.375303
C    -3.066569  -1.155426  1.704192
C    -4.150721  -1.531039  2.708476
C    -5.565697  -1.689474  2.128988
C    -5.745581  -2.986806  1.294015
N    -5.155200  -2.942943  0.004620
H    -2.970467  -1.934358  0.926484
H    -3.314810  -0.202249  1.215302
H    -4.229335  -0.734797  3.470761
H    -3.872002  -2.446246  3.254554
H    -5.848705  -0.817354  1.520422
H    -6.287775  -1.740988  2.953870
H    -6.851386  -3.100600  1.189127
H    -5.382709  -3.872023  1.830683
H    -5.475606  -2.249716  -0.668645
H    -4.739957  -3.781065  -0.394627
N    -0.165014  -2.520612  3.637997
C    0.445391  -3.779990  4.054984
H    -0.027616  -1.708258  4.233158
H    1.432848  -3.569165  4.479031
H    0.534605  -4.437158  3.183833
H    -0.166658  -4.285069  4.815740
Hg    2.063582  1.337786  -1.468058
