34
Energy: -571608.226088 eV PBE+vdW (tier 2 basis)
C    -0.128241  1.129872  0.838341
C    0.181311  -0.250014  1.323201
O    1.452901  -0.576129  1.288354
H    0.700608  1.802317  1.086023
H    -1.059522  1.522418  1.260168
H    -0.212666  1.115848  -0.258747
N    -0.653662  -1.168759  1.760242
C    -2.099261  -1.119162  1.655656
C    -2.649363  -0.982984  3.078632
O    -1.789909  -1.044073  4.058028
H    -0.903062  -1.123263  3.601498
H    -2.458209  -0.243101  1.088612
C    -2.634913  -2.405532  0.948674
C    -1.948571  -3.730308  1.364901
C    -0.938544  -4.223812  0.308142
C    0.081741  -5.275416  0.735019
N    1.126938  -4.767246  1.723104
H    -2.513937  -2.245527  -0.131447
H    -3.719079  -2.473799  1.111468
H    -2.712440  -4.506255  1.504619
H    -1.471225  -3.612246  2.351059
H    -0.395587  -3.369368  -0.138877
H    -1.493403  -4.655879  -0.538541
H    0.637536  -5.623483  -0.142944
H    -0.397047  -6.148610  1.199649
H    0.842339  -4.971932  2.686791
H    2.013044  -5.264505  1.580936
N    -3.913927  -0.808108  3.347258
C    -4.507804  -0.656742  4.684257
H    -4.550804  -0.759709  2.553189
H    -5.150178  -1.520003  4.895564
H    -5.112338  0.257015  4.698842
H    -3.715979  -0.590189  5.433130
Hg    1.404201  -2.639605  1.607237
