34
Energy: -571607.029357 eV PBE+vdW (tier 2 basis)
C    0.872893  -3.447317  2.248102
C    0.796817  -2.174347  3.032570
O    1.756935  -1.957393  3.844665
H    1.784967  -3.422308  1.633418
H    0.006578  -3.590727  1.592758
H    0.973468  -4.295998  2.936285
N    -0.251225  -1.357549  2.828005
C    -0.377837  0.094113  3.088881
C    -1.200542  0.378737  4.367411
O    -0.708213  0.112461  5.536208
H    -0.943463  -1.717378  2.173424
H    0.632545  0.476329  3.316012
C    -0.855811  0.805716  1.813850
C    -2.079289  0.177736  1.115844
C    -2.900163  1.182741  0.291128
C    -3.419826  2.379089  1.090690
N    -4.047859  1.967459  2.360281
H    -0.009248  0.842317  1.114417
H    -1.045876  1.852584  2.089784
H    -2.747634  -0.302635  1.849892
H    -1.753411  -0.623024  0.435120
H    -3.745641  0.646059  -0.163481
H    -2.303468  1.568219  -0.547690
H    -4.134249  2.945510  0.468238
H    -2.615526  3.088410  1.335671
H    -4.823613  1.316977  2.204728
H    -4.427056  2.776019  2.859046
N    -2.398131  0.911105  4.339241
C    -3.144662  1.202001  5.571265
H    -2.912299  1.217757  3.439403
H    -4.088929  1.674099  5.288106
H    -2.574850  1.878976  6.219271
H    -3.353766  0.278028  6.123438
Hg    1.339647  -0.656912  5.587372
