34
Energy: -571606.256604 eV PBE+vdW (tier 2 basis)
C    -0.332384  0.238561  -0.107336
C    -0.187509  0.068051  1.369418
O    0.933396  0.324801  1.897672
H    0.428344  0.951769  -0.444855
H    -1.326897  0.595794  -0.388575
H    -0.126173  -0.719858  -0.606343
N    -1.224303  -0.281269  2.184194
C    -2.171887  -1.381825  1.986492
C    -1.322238  -2.686522  2.057298
O    -0.111776  -2.639574  1.711935
H    -0.975563  -0.149562  3.166264
H    -2.826851  -1.344215  2.869738
C    -3.077980  -1.324442  0.736061
C    -4.004259  -0.103327  0.752329
C    -5.109848  -0.081916  -0.317965
C    -4.640223  0.223033  -1.753024
N    -4.034897  -0.874395  -2.433150
H    -3.685383  -2.241893  0.742823
H    -2.475047  -1.377842  -0.181149
H    -3.415354  0.826163  0.699485
H    -4.517284  -0.061485  1.727757
H    -5.828151  0.703217  -0.047851
H    -5.680544  -1.024148  -0.310276
H    -3.964678  1.090241  -1.797537
H    -5.555058  0.539957  -2.313349
H    -3.440372  -0.691031  -3.238768
H    -4.536900  -1.759746  -2.475287
N    -1.870467  -3.825291  2.486543
C    -3.251030  -4.117839  2.857707
H    -1.211845  -4.605790  2.525413
H    -3.778621  -4.611494  2.029162
H    -3.788330  -3.205322  3.133116
H    -3.248998  -4.795978  3.718333
Hg    1.872236  -1.604952  2.895848
