34
Energy: -571606.671184 eV PBE+vdW (tier 2 basis)
C    -1.413983  2.020897  -0.964504
C    -0.803070  1.909374  0.395466
O    0.239792  2.560443  0.726736
H    -0.642158  1.846668  -1.724727
H    -1.785142  3.048527  -1.097232
H    -2.247536  1.335311  -1.136836
N    -1.302289  1.101830  1.341194
C    -2.313400  0.059061  1.231798
C    -2.801084  -0.156442  2.696015
O    -1.993174  -0.020647  3.617602
H    -0.851684  1.140294  2.264045
H    -3.145181  0.424418  0.613906
C    -1.794626  -1.266549  0.615278
C    -0.617439  -1.978160  1.314195
C    -1.048467  -3.003966  2.370485
C    0.233329  -3.719993  2.978406
N    -0.095254  -4.716029  3.921600
H    -1.485538  -1.021184  -0.413022
H    -2.653118  -1.946081  0.505060
H    0.069635  -1.240848  1.755842
H    -0.040425  -2.499156  0.536818
H    -1.686102  -3.779502  1.924028
H    -1.593428  -2.543868  3.203993
H    0.854296  -2.951662  3.458792
H    0.777948  -4.176811  2.137571
H    -0.163438  -4.510593  4.914988
H    -0.339608  -5.660851  3.634782
N    -4.085034  -0.522465  2.843386
C    -4.716756  -0.701093  4.148868
H    -4.684682  -0.531886  2.023064
H    -3.943760  -0.937269  4.886213
H    -5.444563  -1.517336  4.083985
H    -5.235748  0.214643  4.463244
Hg    0.899503  4.654505  -0.114061
