34
Energy: -571606.795127 eV PBE+vdW (tier 2 basis)
C    -0.853434  0.194158  -0.376089
C    -0.717030  0.290506  1.114746
O    0.210055  0.877261  1.682258
H    0.117664  0.383010  -0.842531
H    -1.546183  0.980807  -0.715366
H    -1.254410  -0.770162  -0.711290
N    -1.712010  -0.325473  1.859487
C    -1.718320  -0.466556  3.289768
C    -2.036470  0.897221  4.029419
O    -3.073342  0.826746  4.735051
H    -2.464837  -0.779508  1.347242
H    -2.569538  -1.111150  3.539896
C    -0.441775  -1.102039  3.944420
C    -0.267484  -2.579214  3.583917
C    0.651178  -2.875428  2.386210
C    2.152631  -2.776403  2.771336
N    2.604777  -1.460591  3.045506
H    -0.548460  -0.989613  5.031556
H    0.428827  -0.494776  3.646321
H    -1.242030  -3.052100  3.372695
H    0.098284  -3.115147  4.473019
H    0.456067  -2.213256  1.531116
H    0.478395  -3.899998  2.032117
H    2.698882  -3.189729  1.888807
H    2.395364  -3.426915  3.621296
H    2.523887  -0.737969  2.331365
H    3.336170  -1.310000  3.736476
N    -1.219053  1.914457  3.843873
C    -1.356858  3.248104  4.427121
H    -0.459354  1.735708  3.168002
H    -0.562420  3.877280  4.014990
H    -1.237411  3.217259  5.518223
H    -2.323104  3.696970  4.162841
Hg    -4.166966  2.294727  6.332769
