34
Energy: -571606.560522 eV PBE+vdW (tier 2 basis)
C    0.495458  1.784367  0.924496
C    0.198892  1.866834  2.386879
O    1.089899  2.308495  3.167727
H    0.340530  2.772219  0.463675
H    -0.120967  1.038275  0.412272
H    1.557536  1.543273  0.794110
N    -0.992703  1.457973  2.888740
C    -2.297620  1.752580  2.292685
C    -2.687245  3.164795  2.810999
O    -2.165789  3.639697  3.855572
H    -1.021159  1.490426  3.909767
H    -2.178910  1.787682  1.200565
C    -3.369894  0.709054  2.668711
C    -3.184598  -0.702197  2.076980
C    -2.214595  -1.613529  2.843546
C    -2.184470  -3.061755  2.271946
N    -3.373460  -3.802631  2.500883
H    -4.338355  1.096122  2.319550
H    -3.454680  0.663539  3.766699
H    -2.877631  -0.626338  1.021347
H    -4.174788  -1.180248  2.065764
H    -2.490068  -1.658995  3.908767
H    -1.182452  -1.240672  2.800274
H    -1.334356  -3.568169  2.783630
H    -1.962461  -3.066521  1.197719
H    -3.792190  -4.371294  1.770126
H    -3.704685  -3.975199  3.447440
N    -3.627092  3.834571  2.140659
C    -4.120285  5.159788  2.508931
H    -4.096911  3.362352  1.370853
H    -4.368221  5.712119  1.596673
H    -3.348835  5.687332  3.076452
H    -5.021522  5.073749  3.132328
Hg    0.201412  3.886074  4.712091
