34
Energy: -571606.518417 eV PBE+vdW (tier 2 basis)
C    -1.352761  2.280355  1.472017
C    -0.740401  1.616029  2.662809
O    -0.316418  2.335580  3.611790
H    -0.833737  3.230419  1.295576
H    -2.401673  2.531981  1.691664
H    -1.301464  1.657724  0.572755
N    -0.618087  0.268687  2.733066
C    -1.650297  -0.692974  2.341542
C    -2.640574  -0.765774  3.529048
O    -2.261334  -0.462576  4.696412
H    -0.084704  -0.040809  3.547595
H    -2.160778  -0.310423  1.448094
C    -1.026158  -2.080647  2.080514
C    0.017781  -2.147219  0.950509
C    -0.572206  -2.125485  -0.463512
C    0.557459  -2.409152  -1.531550
N    0.073882  -2.460626  -2.861654
H    -1.833284  -2.802043  1.889726
H    -0.550458  -2.412419  3.017351
H    0.575312  -3.084467  1.092190
H    0.754105  -1.337773  1.069774
H    -1.031989  -1.157671  -0.712957
H    -1.344652  -2.899989  -0.576258
H    1.010814  -3.379161  -1.274493
H    1.318372  -1.620475  -1.451917
H    0.094285  -1.649504  -3.472623
H    -0.311603  -3.315292  -3.253865
N    -3.889372  -1.200985  3.345229
C    -4.499048  -1.782860  2.153978
H    -4.445399  -1.223874  4.202345
H    -3.994865  -1.437760  1.246583
H    -5.547723  -1.467696  2.110089
H    -4.467948  -2.880813  2.193154
Hg    -1.011394  1.464056  5.712491
