34
Energy: -571606.897719 eV PBE+vdW (tier 2 basis)
C    0.072633  -0.407398  -0.043943
C    0.042762  -0.250634  1.446702
O    1.042832  -0.052198  2.133643
H    1.036471  -0.836019  -0.336954
H    0.008276  0.592162  -0.501979
H    -0.748589  -1.016135  -0.439489
N    -1.221227  -0.322859  2.043084
C    -1.500255  -0.327796  3.449382
C    -1.213830  1.091563  4.150281
O    -2.232170  1.559058  4.710411
H    -2.023374  -0.347882  1.417230
H    -2.582223  -0.458288  3.561068
C    -0.770492  -1.407460  4.288541
C    -1.287247  -2.840172  4.029714
C    -0.836485  -3.464211  2.721771
C    -0.955052  -5.067031  2.730552
N    -2.265514  -5.570742  2.801812
H    -0.934005  -1.174460  5.349861
H    0.310536  -1.339594  4.109537
H    -2.383348  -2.889992  4.128703
H    -0.888926  -3.426363  4.875365
H    0.228251  -3.269277  2.527701
H    -1.415530  -3.118557  1.854725
H    -0.364933  -5.435611  3.578662
H    -0.485189  -5.378385  1.783798
H    -2.650218  -5.943504  3.664551
H    -2.835293  -5.683886  1.968121
N    0.010860  1.566784  4.083733
C    0.476761  2.828161  4.658747
H    0.659930  1.004254  3.502511
H    1.529571  2.947466  4.386072
H    0.405250  2.812214  5.753891
H    -0.082330  3.681584  4.252801
Hg    -2.682278  3.546275  6.053314
