34
Energy: -571606.808492 eV PBE+vdW (tier 2 basis)
C    -1.488247  -3.008410  1.325044
C    -1.256194  -1.770202  2.142113
O    -0.319880  -1.000145  1.818400
H    -0.547673  -3.568852  1.254059
H    -1.763564  -2.713392  0.303478
H    -2.268977  -3.655408  1.740893
N    -2.071140  -1.552837  3.203608
C    -2.062451  -0.351915  4.026247
C    -0.786494  -0.253922  4.912774
O    0.028707  0.694304  4.717539
H    -2.805802  -2.235143  3.367210
H    -1.962640  0.518732  3.355096
C    -3.361423  -0.165723  4.831622
C    -4.521271  0.526637  4.084578
C    -5.226975  -0.312430  3.015873
C    -6.530087  0.426586  2.517185
N    -7.264089  -0.306739  1.550874
H    -3.120106  0.463178  5.701447
H    -3.695230  -1.130084  5.243532
H    -4.162723  1.473257  3.650785
H    -5.252434  0.811680  4.855506
H    -5.530588  -1.289629  3.421156
H    -4.589841  -0.494349  2.138031
H    -6.236076  1.396286  2.091589
H    -7.165689  0.601687  3.398601
H    -7.972922  -0.980954  1.822796
H    -7.148255  -0.145959  0.555591
N    -0.533180  -1.110609  5.899190
C    -1.364598  -2.172064  6.464423
H    0.330607  -0.899905  6.402527
H    -0.699764  -2.887285  6.959647
H    -1.912171  -2.705166  5.682769
H    -2.064641  -1.774979  7.211467
Hg    0.419289  1.200781  2.465648
