34
Energy: -571607.017144 eV PBE+vdW (tier 2 basis)
C    0.848297  2.899208  2.199238
C    -0.211012  2.100300  2.904204
O    -1.298161  2.679470  3.163684
H    1.072144  3.795343  2.791541
H    0.448010  3.241249  1.235224
H    1.768240  2.329276  2.026832
N    0.073830  0.813502  3.202988
C    -0.854807  -0.219312  3.673168
C    -0.926550  -0.211742  5.219963
O    -1.800849  0.471404  5.829865
H    1.010562  0.504107  2.956878
H    -1.864279  0.069013  3.339805
C    -0.523313  -1.586087  3.045095
C    -0.797074  -1.625479  1.531885
C    -0.381386  -2.919493  0.819277
C    -1.296942  -4.152971  1.160618
N    -0.981418  -5.306643  0.395318
H    -1.130015  -2.341894  3.565010
H    0.533892  -1.844416  3.234739
H    -0.251133  -0.806180  1.037761
H    -1.865073  -1.425086  1.349396
H    0.661133  -3.183246  1.050161
H    -0.437354  -2.758610  -0.265361
H    -2.340894  -3.868527  0.960711
H    -1.192109  -4.401092  2.227124
H    -0.252103  -5.952696  0.681228
H    -1.369326  -5.445517  -0.533180
N    -0.044398  -0.920224  5.910948
C    0.007259  -0.956428  7.376891
H    0.591956  -1.524639  5.399643
H    -0.756884  -1.637413  7.772703
H    -0.171212  0.047820  7.774134
H    0.998317  -1.304661  7.680166
Hg    -2.990350  2.121665  4.686341
