34
Energy: -571606.993036 eV PBE+vdW (tier 2 basis)
C    0.317245  0.235283  0.168791
C    0.038518  0.243760  1.644917
O    0.978324  0.582758  2.411851
H    -0.481603  -0.244655  -0.408303
H    1.268950  -0.275789  -0.016364
H    0.431297  1.274465  -0.171240
N    -1.201728  -0.106175  2.049388
C    -1.765764  0.028928  3.393693
C    -1.294886  -1.124945  4.317461
O    -0.420849  -0.929068  5.211059
H    -1.853234  -0.348490  1.306486
H    -1.352532  0.943630  3.848349
C    -3.296516  0.169894  3.292856
C    -4.049309  0.383361  4.616804
C    -3.870493  1.772696  5.245492
C    -4.798782  1.961523  6.466132
N    -4.722330  3.267683  7.030024
H    -3.710054  -0.720104  2.788072
H    -3.498070  1.012235  2.613050
H    -3.776951  -0.397841  5.344624
H    -5.116122  0.225296  4.401258
H    -4.096326  2.549710  4.497998
H    -2.835629  1.940143  5.581446
H    -4.585593  1.226658  7.254485
H    -5.842738  1.757506  6.130534
H    -4.862163  4.089649  6.447613
H    -4.854274  3.406839  8.027814
N    -1.834622  -2.326431  4.159944
C    -1.463711  -3.509677  4.939941
H    -2.608890  -2.418548  3.506965
H    -2.078093  -3.582902  5.846958
H    -0.411111  -3.437026  5.228878
H    -1.624822  -4.398776  4.322777
Hg    1.181114  0.715300  4.740576
