34
Energy: -571607.043913 eV PBE+vdW (tier 2 basis)
C    0.660131  -0.077463  0.593003
C    -0.299399  0.675623  1.485620
O    0.200419  0.952075  2.646262
H    1.346687  -0.680930  1.194158
H    1.264824  0.635323  0.013410
H    0.108761  -0.735435  -0.089793
N    -1.507905  0.961681  1.015580
C    -2.377898  1.849937  1.743460
C    -2.914036  1.218157  3.075426
O    -2.594283  1.681788  4.207124
H    -1.794720  0.756907  -0.653587
H    -1.825835  2.753237  2.109727
C    -3.542300  2.360322  0.875000
C    -3.197142  3.505834  -0.095755
C    -2.215136  3.248410  -1.252083
C    -2.574052  2.080674  -2.174884
N    -1.881001  0.802285  -1.739732
H    -4.332261  2.735748  1.541237
H    -3.986899  1.506022  0.336108
H    -2.825244  4.363059  0.485808
H    -4.150675  3.844332  -0.527544
H    -1.180651  3.130295  -0.890856
H    -2.194022  4.159192  -1.865671
H    -2.271189  2.269101  -3.210437
H    -3.652107  1.877582  -2.179288
H    -0.925447  0.775863  -2.114348
H    -2.361758  -0.032201  -2.095317
N    -3.752706  0.199004  2.977474
C    -4.393893  -0.461329  4.117734
H    -4.046358  -0.076377  2.043461
H    -4.610720  -1.497529  3.840732
H    -5.330756  0.047234  4.381089
H    -3.718680  -0.433451  4.978379
Hg    -0.463743  2.543025  4.056504
