34
Energy: -571606.476721 eV PBE+vdW (tier 2 basis)
C    -1.863254  -1.390057  -0.862637
C    -1.090965  -1.834691  0.334968
O    -1.231722  -3.029224  0.743179
H    -2.198446  -2.274882  -1.414281
H    -1.271117  -0.738659  -1.512396
H    -2.765227  -0.847054  -0.538523
N    -0.236300  -1.013773  1.001473
C    -0.469554  0.373647  1.450893
C    -1.613234  0.345230  2.496967
O    -1.616388  -0.600661  3.417583
H    0.392239  -1.530810  1.616474
H    0.442369  0.613423  2.020959
C    -0.620976  1.427010  0.346921
C    -0.091287  2.797330  0.815391
C    -0.676355  4.015222  0.086963
C    -2.186941  4.190677  0.213753
N    -2.636410  4.075416  1.658667
H    -0.049016  1.103415  -0.532197
H    -1.674059  1.481918  0.035442
H    1.000090  2.818819  0.690851
H    -0.247609  2.906390  1.901318
H    -0.452247  3.970154  -0.988945
H    -0.172852  4.921989  0.454580
H    -2.753793  3.427565  -0.333183
H    -2.505672  5.173123  -0.152797
H    -2.111748  4.721181  2.263452
H    -3.631679  4.311496  1.754441
N    -2.476580  1.312645  2.574429
C    -3.640472  1.201400  3.438602
H    -2.489935  3.081218  2.013388
H    -4.459735  1.798397  3.015111
H    -3.409771  1.627050  4.429465
H    -3.974523  0.167598  3.585736
Hg    -1.549749  -2.784131  3.050763
