34
Energy: -571608.60492 eV PBE+vdW (tier 2 basis)
C    -0.182209  0.511645  -0.185099
C    -0.518874  -0.005825  1.181132
O    0.250730  -0.940809  1.598423
H    0.857195  0.867749  -0.177729
H    -0.836929  1.324739  -0.515587
H    -0.232064  -0.315795  -0.905086
N    -1.554507  0.561412  1.810477
C    -2.196323  0.507963  3.162703
C    -1.176122  0.562090  4.311774
O    -0.389212  -0.383172  4.568783
H    -1.997288  1.265324  1.224776
H    -2.731299  1.466907  3.185711
C    -3.332814  -0.542035  3.303295
C    -3.049867  -2.055035  3.321049
C    -2.737074  -2.677942  4.702237
C    -2.003153  -4.020475  4.648924
N    -0.498397  -3.860466  4.499324
H    -4.021842  -0.332535  2.472630
H    -3.889537  -0.268474  4.213197
H    -2.286368  -2.299026  2.552541
H    -3.942931  -2.559500  2.925596
H    -3.689640  -2.852570  5.220701
H    -2.179006  -1.985916  5.350554
H    -2.342470  -4.636945  3.806991
H    -2.161139  -4.593693  5.572047
H    -0.068138  -4.742031  4.197876
H    -0.081146  -3.624334  5.407315
N    -1.199209  1.669384  5.053603
C    -0.336587  1.895716  6.214129
H    -1.868204  2.398077  4.823310
H    -0.851162  1.605208  7.139327
H    -0.083850  2.959411  6.264002
H    0.576095  1.303880  6.105765
Hg    -0.015657  -2.270927  3.171309
