34
Energy: -571606.799053 eV PBE+vdW (tier 2 basis)
C    -0.703459  2.384368  1.513320
C    -0.210663  1.454761  2.582518
O    0.984901  1.268039  2.815644
H    -0.030152  2.319075  0.651546
H    -0.639454  3.415104  1.894237
H    -1.735214  2.192676  1.199056
N    -1.186265  0.809418  3.336667
C    -0.970764  -0.239844  4.297736
C    -0.252915  0.275693  5.625380
O    -0.917517  0.013076  6.661222
H    -2.151767  1.072622  3.156853
H    -1.961904  -0.558756  4.639016
C    -0.170686  -1.481426  3.808364
C    -0.819142  -2.241351  2.628733
C    -2.001235  -3.124227  3.007142
C    -2.383526  -4.149132  1.862770
N    -2.988801  -3.569470  0.725039
H    -0.061907  -2.148857  4.675943
H    0.839619  -1.175048  3.512729
H    -0.009834  -2.869458  2.222120
H    -1.089803  -1.545821  1.820447
H    -2.903771  -2.547408  3.256495
H    -1.759884  -3.748741  3.879405
H    -3.098805  -4.844267  2.345132
H    -1.493508  -4.712086  1.559895
H    -3.949867  -3.238997  0.755624
H    -2.564864  -3.634709  -0.195849
N    0.917645  0.861861  5.503957
C    1.735822  1.400512  6.587964
H    1.226373  0.996237  4.519437
H    2.627683  1.848489  6.139158
H    2.059709  0.604821  7.271467
H    1.202123  2.186110  7.140284
Hg    -0.572023  0.435955  9.005145
