34
Energy: -571607.014842 eV PBE+vdW (tier 2 basis)
C    2.493318  1.406779  2.155003
C    1.522345  1.307909  3.307045
O    1.559483  2.326032  4.101398
H    2.806281  0.408395  1.826557
H    3.377150  1.979725  2.451426
H    2.019412  1.936552  1.315935
N    0.751715  0.226830  3.398955
C    -0.314771  0.198913  4.363111
C    0.179450  0.173266  5.856923
O    -0.068730  1.125857  6.647826
H    0.771334  -0.894707  2.053951
H    -0.897352  1.156449  4.338967
C    -1.342469  -0.916509  4.074584
C    -0.759263  -2.315762  3.763396
C    -1.149241  -2.894157  2.390966
C    -0.815080  -2.024495  1.182957
N    0.626037  -1.563120  1.211828
H    -1.949049  -0.559468  3.229720
H    -2.041947  -0.968788  4.919617
H    -1.084268  -3.033991  4.526441
H    0.342437  -2.293600  3.825839
H    -2.232702  -3.080027  2.354759
H    -0.676987  -3.881480  2.275026
H    -1.416915  -1.107780  1.143180
H    -0.978569  -2.571156  0.247280
H    1.270807  -2.359641  1.290029
H    0.867248  -1.061875  0.348629
N    0.825694  -0.901092  6.283659
C    1.275095  -1.098292  7.664321
H    0.925953  -1.677065  5.634593
H    0.473560  -1.535839  8.274034
H    1.560136  -0.132427  8.092896
H    2.133731  -1.776413  7.655070
Hg    -0.086841  3.080977  5.415078
