34
Energy: -571606.898826 eV PBE+vdW (tier 2 basis)
C    0.127248  -1.264704  0.618440
C    -0.011552  -0.610585  1.972153
O    1.065018  0.018236  2.333814
H    1.152380  -1.618917  0.470106
H    -0.085322  -0.530883  -0.172248
H    -0.561824  -2.112952  0.530313
N    -1.157199  -0.736764  2.627691
C    -1.368782  0.019846  3.838577
C    -0.477418  -0.410428  5.049182
O    0.329662  0.421878  5.571108
H    -2.548137  -1.203706  1.671330
H    -1.053911  1.084908  3.687646
C    -2.854372  0.097786  4.235642
C    -3.707377  0.792071  3.144447
C    -4.914869  -0.015315  2.639522
C    -4.623157  -1.428094  2.142425
N    -3.471820  -1.453694  1.160240
H    -2.930901  0.645717  5.183987
H    -3.231297  -0.912595  4.440415
H    -3.063231  1.063159  2.292133
H    -4.083935  1.748586  3.526958
H    -5.411346  0.557615  1.841529
H    -5.665611  -0.116623  3.437032
H    -5.500312  -1.858344  1.645664
H    -4.334045  -2.109618  2.952669
H    -3.624836  -0.785382  0.394620
H    -3.373515  -2.383364  0.735305
N    -0.574638  -1.614945  5.595546
C    -1.454091  -2.730157  5.253993
H    0.021666  -1.744278  6.415463
H    -0.888955  -3.658162  5.399527
H    -1.754130  -2.670466  4.205350
H    -2.333052  -2.751435  5.911671
Hg    1.205187  1.640424  3.842293
