34
Energy: -571606.929582 eV PBE+vdW (tier 2 basis)
C    -1.164222  -0.377461  -0.198912
C    -0.235544  -0.293095  0.981465
O    0.951145  -0.673538  0.801074
H    -2.125115  0.120673  -0.026571
H    -1.344047  -1.437762  -0.425423
H    -0.672234  0.063257  -1.073899
N    -0.753221  0.191758  2.130529
C    -0.192215  0.282852  3.495135
C    0.982635  1.299927  3.559614
O    2.196359  0.984599  3.429027
H    -1.730158  0.459308  2.057688
H    -1.004595  0.737372  4.078974
C    0.117443  -1.080242  4.139272
C    0.297736  -1.058492  5.666120
C    -1.031017  -1.035079  6.434943
C    -0.776387  -1.161978  7.985833
N    -1.974153  -1.193765  8.743114
H    1.036727  -1.521057  3.698898
H    -0.684907  -1.774401  3.848832
H    0.936366  -0.213159  5.967768
H    0.852089  -1.964937  5.947887
H    -1.667206  -1.877165  6.127347
H    -1.601576  -0.110964  6.258152
H    -0.163702  -0.309274  8.311534
H    -0.213047  -2.091389  8.157576
H    -2.477038  -2.061079  8.904496
H    -2.398329  -0.347849  9.109872
N    0.652362  2.567785  3.789123
C    1.618805  3.667413  3.847287
H    -0.321792  2.785559  3.979039
H    2.075155  3.729451  4.843745
H    1.094817  4.602549  3.630014
H    2.407146  3.499831  3.106815
Hg    2.796050  -0.902568  2.184013
