34
Energy: -571608.309696 eV PBE+vdW (tier 2 basis)
C    -1.552225  -0.265467  -0.107050
C    -1.127769  -0.031127  1.311202
O    -0.141972  0.770049  1.460424
H    -1.824521  0.703358  -0.549610
H    -2.402171  -0.949485  -0.201618
H    -0.700897  -0.650137  -0.683193
N    -1.821423  -0.659312  2.271008
C    -1.976858  -0.593563  3.758783
C    -1.787528  0.809326  4.349029
O    -0.685490  1.420009  4.312029
H    -2.531755  -1.267415  1.870133
H    -3.041141  -0.834495  3.861931
C    -1.274690  -1.710906  4.597585
C    0.166779  -1.560169  5.121745
C    1.285163  -2.006830  4.159834
C    2.678953  -1.465069  4.478081
N    2.764608  0.050503  4.363504
H    -1.381758  -2.651556  4.035880
H    -1.925192  -1.829067  5.476393
H    0.243715  -2.176808  6.028146
H    0.315334  -0.528667  5.477771
H    1.049273  -1.762818  3.103169
H    1.353102  -3.104901  4.161402
H    3.414754  -1.874595  3.777138
H    2.991612  -1.730707  5.497181
H    2.631478  0.500035  5.275668
H    3.691773  0.336751  4.031500
N    -2.821432  1.358805  4.986819
C    -4.184810  0.849153  5.171897
H    -2.607072  2.264940  5.403375
H    -4.683523  0.678695  4.209704
H    -4.754626  1.611275  5.710858
H    -4.196153  -0.067481  5.775150
Hg    1.193416  0.740463  3.078152
