34
Energy: -571607.000044 eV PBE+vdW (tier 2 basis)
C    0.872917  0.070085  0.531206
C    0.450545  0.288013  1.956193
O    1.252293  0.896425  2.713481
H    0.870443  1.040084  0.013833
H    0.212129  -0.622458  -0.002948
H    1.901529  -0.307877  0.512762
N    -0.761903  -0.177227  2.327742
C    -1.468558  0.097801  3.579752
C    -0.929865  -0.786607  4.734550
O    -0.189978  -0.299295  5.637885
H    -1.296388  -0.641761  1.597264
H    -1.237026  1.131613  3.882884
C    -2.987143  -0.023209  3.347833
C    -3.886524  0.289405  4.554304
C    -3.914749  1.767840  4.973790
C    -4.964693  2.057358  6.066385
N    -6.312199  1.932773  5.611432
H    -3.219878  -1.039013  2.983888
H    -3.237823  0.652094  2.514943
H    -3.607372  -0.337614  5.416429
H    -4.906452  -0.019279  4.282881
H    -4.118187  2.408118  4.100315
H    -2.942824  2.091083  5.375429
H    -4.785398  3.096405  6.427707
H    -4.828929  1.407028  6.941708
H    -7.045454  1.665024  6.262501
H    -6.625432  2.465934  4.803241
N    -1.268441  -2.068792  4.764936
C    -0.808795  -3.022833  5.777087
H    -1.949709  -2.397323  4.084993
H    -1.493448  -3.035917  6.635323
H    0.187599  -2.731766  6.122388
H    -0.775654  -4.019720  5.327141
Hg    1.195971  1.472020  4.981827
