34
Energy: -571606.39168 eV PBE+vdW (tier 2 basis)
C    0.089177  0.548087  0.359582
C    -0.007638  0.259970  1.835070
O    1.107203  0.225535  2.450394
H    1.138007  0.534232  0.051274
H    -0.319841  1.548850  0.157224
H    -0.467766  -0.197945  -0.221541
N    -1.179462  0.074088  2.428370
C    -2.521428  0.087893  1.832591
C    -3.432144  0.532302  2.995738
O    -3.115644  0.240584  4.146917
H    -1.219431  -0.082426  3.442862
H    -2.541718  0.801449  0.999469
C    -2.919146  -1.342945  1.373141
C    -4.314679  -1.511274  0.753511
C    -4.446385  -0.972002  -0.678167
C    -5.923443  -0.986802  -1.165831
N    -6.725056  0.079048  -0.616104
H    -2.845969  -1.993617  2.257728
H    -2.151949  -1.693800  0.666850
H    -5.080517  -1.071435  1.409729
H    -4.534754  -2.588222  0.740402
H    -3.863067  -1.595756  -1.369643
H    -4.061563  0.053727  -0.786580
H    -6.385633  -1.949095  -0.914693
H    -5.902338  -0.882113  -2.266054
H    -7.617315  -0.164261  -0.188585
H    -6.765657  0.950268  -1.143003
N    -4.601138  1.202982  2.752367
C    -5.092306  1.781364  1.536909
H    -5.152236  1.340219  3.602383
H    -5.736396  1.056934  0.954171
H    -4.278796  2.091252  0.871811
H    -5.722390  2.647408  1.770510
Hg    1.614088  -0.067353  4.703113
