34
Energy: -571606.825457 eV PBE+vdW (tier 2 basis)
C    -0.647548  -0.940461  -0.081039
C    -0.281853  -0.448668  1.307307
O    0.817831  0.298916  1.204290
H    -0.066720  -1.845846  -0.311063
H    -0.389348  -0.190642  -0.835284
H    -1.719550  -1.154193  -0.143633
N    -1.025771  -0.812972  2.307953
C    -0.865440  -0.792720  3.777362
C    -0.937644  0.556044  4.553196
O    0.036506  1.391796  4.700461
H    -1.782110  -2.239418  1.997473
H    -1.776061  -1.304514  4.133763
C    0.312396  -1.656245  4.301066
C    0.149690  -3.175824  4.095197
C    0.289111  -3.711939  2.649119
C    -0.970794  -4.265925  1.987647
N    -2.134979  -3.283610  1.960417
H    0.410649  -1.470079  5.381044
H    1.266477  -1.336503  3.848634
H    -0.803546  -3.497854  4.548103
H    0.919733  -3.651120  4.715704
H    0.994547  -4.554371  2.647135
H    0.753013  -2.956838  1.999456
H    -1.329260  -5.167084  2.499287
H    -0.763244  -4.537632  0.946459
H    -2.710114  -3.419959  1.121993
H    -2.755373  -3.434413  2.762250
N    -2.054362  0.811948  5.207656
C    -2.280785  1.989590  6.052525
H    -2.796183  0.117856  5.165540
H    -1.749894  2.849298  5.633370
H    -1.913963  1.802031  7.070147
H    -3.355533  2.190128  6.084435
Hg    1.289119  1.255226  2.977029
