34
Energy: -571607.04759 eV PBE+vdW (tier 2 basis)
C    0.808384  0.720263  0.441233
C    -0.210869  1.309677  1.398160
O    0.427007  1.852505  2.419851
H    1.008926  1.432851  -0.371796
H    0.426026  -0.224029  0.033302
H    1.755050  0.520714  0.951060
N    -1.481290  1.227659  1.096893
C    -2.546682  1.985084  1.765469
C    -3.121046  1.267317  3.017485
O    -2.753096  1.582223  4.209422
H    -1.798937  0.778549  -0.520444
H    -2.175333  2.956882  2.158448
C    -3.664478  2.344014  0.765323
C    -3.328476  3.440519  -0.263104
C    -2.317854  3.148290  -1.387538
C    -2.596344  1.886624  -2.205236
N    -1.904237  0.674240  -1.603157
H    -4.527518  2.706462  1.342688
H    -4.006984  1.426055  0.254897
H    -2.998773  4.342786  0.274001
H    -4.281869  3.720080  -0.735140
H    -1.282428  3.127244  -1.013767
H    -2.350024  3.999586  -2.080847
H    -2.235633  1.979035  -3.235175
H    -3.668307  1.658221  -2.252501
H    -0.955378  0.587585  -1.984204
H    -2.393133  -0.198671  -1.831720
N    -4.035450  0.329196  2.872713
C    -4.656750  -0.411884  3.976391
H    -4.394178  0.167266  1.935362
H    -3.919167  -0.577029  4.767307
H    -5.014222  -1.371064  3.591287
H    -5.502562  0.154506  4.387202
Hg    -0.743374  2.447246  4.083138
