34
Energy: -571606.455967 eV PBE+vdW (tier 2 basis)
C    -1.064412  0.271044  -0.550117
C    -0.415778  -0.193695  0.707434
O    0.688720  -0.822976  0.628826
H    -0.481004  1.092478  -0.991690
H    -2.106525  0.569586  -0.399781
H    -1.025208  -0.553429  -1.277415
N    -0.980084  0.010416  1.922366
C    -1.576599  1.247666  2.410845
C    -0.481674  2.103595  3.086253
O    0.714194  1.707487  3.342137
H    -0.623101  -0.604785  2.656226
H    -1.914126  1.820969  1.535131
C    -2.776174  0.979371  3.352580
C    -4.127742  0.949583  2.633184
C    -4.595358  2.287036  2.028815
C    -4.671822  3.461816  3.015477
N    -3.464320  4.305519  3.037473
H    -2.788969  1.730864  4.152369
H    -2.603673  0.021148  3.864876
H    -4.880396  0.605493  3.357195
H    -4.119141  0.186438  1.838823
H    -5.596894  2.122637  1.609811
H    -3.978165  2.583771  1.162765
H    -4.870172  3.118002  4.040629
H    -5.535564  4.098343  2.740642
H    -3.321235  4.782804  2.143183
H    -3.521872  5.021465  3.767161
N    -0.839220  3.311250  3.473192
C    0.057256  4.284839  4.098205
H    -1.863085  3.594695  3.351438
H    1.027698  4.297016  3.591222
H    0.212353  4.039759  5.157637
H    -0.407716  5.272677  4.027337
Hg    1.943717  0.037109  2.363980
