34
Energy: -571606.966955 eV PBE+vdW (tier 2 basis)
C    -1.721048  0.183444  -0.389572
C    -1.584116  -0.364136  1.001316
O    -0.610950  0.055398  1.689710
H    -1.612099  1.274059  -0.357697
H    -2.674793  -0.077580  -0.862066
H    -0.897539  -0.208080  -1.003619
N    -2.518939  -1.252743  1.405610
C    -2.603617  -2.054582  2.640964
C    -2.850041  -1.147519  3.872536
O    -1.928228  -0.612367  4.549632
H    -3.234192  -1.449015  0.711265
H    -3.522335  -2.644059  2.521518
C    -1.425747  -3.063947  2.745774
C    -1.158528  -3.696927  4.135238
C    0.292815  -3.548635  4.598031
C    0.664686  -4.217895  5.979964
N    0.781737  -5.617539  5.814297
H    -0.506034  -2.594092  2.363666
H    -1.635837  -3.845003  2.002401
H    -1.401566  -4.766439  4.078193
H    -1.824309  -3.277299  4.902521
H    0.543453  -2.447317  4.803357
H    1.003225  -3.888039  3.830519
H    -0.123229  -3.975559  6.708399
H    1.613234  -3.802391  6.337287
H    -0.032670  -6.219845  5.759938
H    1.675226  -6.047646  5.596534
N    -4.120810  -0.944660  4.204730
C    -4.549765  -0.076490  5.304705
H    -4.842245  -1.442089  3.690393
H    -3.876523  0.783235  5.375231
H    -4.534228  -0.623241  6.256359
H    -5.569028  0.264185  5.101505
Hg    0.234043  -0.613190  3.701363
