34
Energy: -571607.090885 eV PBE+vdW (tier 2 basis)
C    -1.660435  0.496865  0.008659
C    -1.103027  0.189819  1.385972
O    0.216121  0.283094  1.350278
H    -2.135749  1.487034  0.006221
H    -2.395477  -0.272373  -0.263250
H    -0.867807  0.497086  -0.744400
N    -1.936134  -0.094447  2.353562
C    -1.607535  -0.101781  3.787500
C    -1.145889  -1.482136  4.326265
O    0.100933  -1.799775  4.408815
H    -3.549694  0.196842  1.989878
H    -0.752990  0.571964  4.012390
C    -2.797548  0.464688  4.587127
C    -3.120281  1.947994  4.265265
C    -4.513735  2.232123  3.678575
C    -4.696379  2.010620  2.182019
N    -4.563377  0.558143  1.776672
H    -2.565385  0.366530  5.656153
H    -3.689192  -0.161631  4.412536
H    -2.352386  2.366713  3.595917
H    -3.035571  2.519108  5.197454
H    -4.747477  3.294024  3.842664
H    -5.287421  1.682864  4.240312
H    -3.941937  2.558516  1.602244
H    -5.686474  2.350960  1.855960
H    -5.249614  -0.022920  2.272499
H    -4.747902  0.442932  0.773146
N    -2.034278  -2.356572  4.751805
C    -1.709907  -3.683975  5.288306
H    -3.004965  -2.057271  4.787245
H    -1.425847  -3.607821  6.345823
H    -0.877011  -4.114464  4.724225
H    -2.594038  -4.320383  5.193732
Hg    1.206765  -0.551358  3.012847
