34
Energy: -571606.932748 eV PBE+vdW (tier 2 basis)
C    -0.419669  -1.396235  -0.075940
C    -0.416285  -0.850577  1.322598
O    0.670184  -0.430187  1.795577
H    -0.285268  -0.560772  -0.777767
H    -1.347596  -1.925668  -0.321250
H    0.436033  -2.069220  -0.203170
N    -1.588155  -0.844826  2.000288
C    -1.805662  -0.199362  3.289895
C    -1.120630  -0.963302  4.453419
O    -0.198460  -0.392294  5.106841
H    -2.407555  -1.159514  1.486977
H    -1.278156  0.769482  3.277944
C    -3.299091  0.107128  3.514219
C    -3.588632  0.828866  4.838909
C    -5.068887  1.216282  4.960240
C    -5.375002  1.939212  6.292326
N    -6.732994  2.348500  6.399874
H    -3.894755  -0.815046  3.448979
H    -3.615245  0.742883  2.672519
H    -2.962008  1.732021  4.911216
H    -3.305301  0.188038  5.689538
H    -5.710054  0.324235  4.901395
H    -5.353252  1.869960  4.120873
H    -4.710188  2.832779  6.354135
H    -5.127786  1.314263  7.161114
H    -7.228461  2.303096  7.285362
H    -7.180521  2.882594  5.659389
N    -1.481690  -2.193044  4.815706
C    -2.580831  -3.035356  4.347780
H    -0.936988  -2.556005  5.599949
H    -2.300920  -4.078939  4.526065
H    -2.747996  -2.909026  3.275389
H    -3.506941  -2.827911  4.900399
Hg    1.320322  0.784101  3.741669
