34
Energy: -571606.643009 eV PBE+vdW (tier 2 basis)
C    -0.370677  2.408780  -0.299158
C    -0.191756  1.625616  0.960913
O    0.926518  1.666159  1.550653
H    0.581923  2.422379  -0.842741
H    -0.604539  3.455279  -0.049713
H    -1.156425  1.994276  -0.939456
N    -1.189489  0.860895  1.464740
C    -2.596269  1.254170  1.552092
C    -2.740692  2.009507  2.901447
O    -1.887572  1.871834  3.816062
H    -0.894738  0.309346  2.272868
H    -2.814248  1.945828  0.725852
C    -3.524453  0.022019  1.468008
C    -3.401838  -0.712045  0.126181
C    -4.100515  -2.072695  0.042387
C    -5.682640  -1.968824  0.034379
N    -6.309559  -3.220537  -0.163789
H    -4.557811  0.359037  1.638291
H    -3.282885  -0.656612  2.302477
H    -2.335335  -0.909380  -0.075030
H    -3.745171  -0.059122  -0.692472
H    -3.805649  -2.725425  0.876290
H    -3.805268  -2.575066  -0.887782
H    -5.972014  -1.287795  -0.778620
H    -6.009278  -1.556271  1.000586
H    -6.467365  -3.865529  0.605919
H    -6.496822  -3.577210  -1.097327
N    -3.820185  2.776956  3.068777
C    -4.111178  3.534666  4.284757
H    -4.525241  2.783321  2.335538
H    -4.636078  4.455453  4.011111
H    -3.172927  3.771037  4.794454
H    -4.743980  2.947338  4.964345
Hg    0.684753  1.882897  3.903492
