34
Energy: -571608.417373 eV PBE+vdW (tier 2 basis)
C    -2.867215  0.070136  -0.803891
C    -2.413290  0.736762  0.458524
O    -1.163144  0.636835  0.715989
H    -3.936425  0.195753  -1.004292
H    -2.620821  -0.998709  -0.760842
H    -2.296092  0.494282  -1.642071
N    -3.336636  1.382585  1.182633
C    -3.357008  2.369815  2.309276
C    -2.127815  3.292334  2.354250
O    -0.974742  2.892052  2.663606
H    -4.265309  1.281272  0.778953
H    -4.205204  3.002338  2.014065
C    -3.788171  1.821452  3.707525
C    -2.775912  1.229523  4.707267
C    -2.443578  -0.265026  4.531091
C    -1.155285  -0.732463  5.208715
N    0.088315  -0.067929  4.635157
H    -4.612309  1.111937  3.535585
H    -4.255057  2.687057  4.199092
H    -3.208152  1.356799  5.709702
H    -1.870870  1.856410  4.716576
H    -2.401821  -0.561364  3.462326
H    -3.265789  -0.874198  4.935155
H    -1.024684  -1.811935  5.074146
H    -1.167336  -0.520260  6.286576
H    0.362134  0.749490  5.190698
H    0.885478  -0.712841  4.654755
N    -2.356233  4.581203  2.110584
C    -1.316502  5.610785  2.181493
H    -3.301324  4.880883  1.891572
H    -1.100310  5.869947  3.225841
H    -1.672821  6.500090  1.654910
H    -0.400541  5.243387  1.707756
Hg    -0.346534  0.627599  2.652277
