34
Energy: -571607.025498 eV PBE+vdW (tier 2 basis)
C    -0.310751  -1.784201  0.237813
C    -0.502076  -1.143158  1.579599
O    -0.070800  -1.614393  2.631716
H    -0.153101  -2.858135  0.375207
H    0.600680  -1.370652  -0.222205
H    -1.145055  -1.609301  -0.451787
N    -1.194977  0.069025  1.582970
C    -1.623988  0.796939  2.738098
C    -0.404517  1.463413  3.538460
O    -0.518690  2.708574  3.620744
H    -1.470707  0.444456  0.678379
H    -2.205607  1.653308  2.379910
C    -2.481005  0.022638  3.792431
C    -3.838788  -0.409763  3.210895
C    -4.618134  -1.149772  4.298575
C    -6.071036  -1.587835  3.823995
N    -6.115637  -2.689711  2.952701
H    -2.633309  0.708076  4.638030
H    -1.919406  -0.844091  4.161708
H    -3.687284  -1.060996  2.337954
H    -4.402942  0.472990  2.874642
H    -4.783340  -0.508496  5.175494
H    -4.080418  -2.044599  4.642434
H    -6.595185  -0.734329  3.380498
H    -6.562545  -1.857446  4.781337
H    -6.506310  -2.619465  2.018114
H    -5.893597  -3.626113  3.281233
N    0.524978  0.663428  4.013919
C    1.718205  1.074834  4.751683
H    0.413872  -0.331636  3.738697
H    2.303215  0.175034  4.964083
H    1.448128  1.544140  5.706101
H    2.341227  1.755849  4.156125
Hg    0.825436  4.485876  4.616220
