34
Energy: -571606.192508 eV PBE+vdW (tier 2 basis)
C    1.760643  1.407402  0.475371
C    0.741611  0.391684  0.090305
O    0.933368  -0.229177  -1.008668
H    1.634258  1.767623  1.497935
H    1.772773  2.233126  -0.248125
H    2.743601  0.917026  0.393477
N    -0.294562  0.012003  0.880463
C    -1.364427  0.739911  1.579053
C    -2.611901  0.760769  0.647124
O    -2.746186  0.003355  -0.383013
H    -0.595025  -0.939620  0.660974
H    -1.653266  0.071504  2.407729
C    -1.034198  2.101004  2.212839
C    -0.974559  3.346005  1.304004
C    -1.493592  4.621336  1.998947
C    -3.010693  4.815861  1.968271
N    -3.774864  3.776804  2.672154
H    -0.109802  1.991451  2.796245
H    -1.805084  2.240301  2.982116
H    -1.542360  3.186265  0.373063
H    0.058760  3.532144  0.989729
H    -1.059255  5.500959  1.505155
H    -1.126853  4.658676  3.037438
H    -3.378155  4.855502  0.931847
H    -3.240866  5.805204  2.410911
H    -4.783633  3.938919  2.620790
H    -3.521685  3.697107  3.660755
N    -3.652343  1.489783  1.002339
C    -4.904050  1.515740  0.241961
H    -3.598161  2.170617  1.812622
H    -5.451306  0.573565  0.374953
H    -4.708606  1.660124  -0.826941
H    -5.517237  2.337660  0.620819
Hg    -1.136006  -0.780702  -1.812393
