34
Energy: -571606.663188 eV PBE+vdW (tier 2 basis)
C    -0.546009  0.399107  -0.240081
C    -0.368280  0.104564  1.219967
O    0.717493  -0.216066  1.718844
H    0.413793  0.706022  -0.664951
H    -1.301695  1.173728  -0.422044
H    -0.873208  -0.515877  -0.757106
N    -1.507059  0.186530  2.001776
C    -1.685523  -0.262966  3.360577
C    -0.847080  0.554816  4.430422
O    -1.557616  0.893718  5.411973
H    -2.350084  0.512261  1.532958
H    -2.714368  0.009304  3.621801
C    -1.621444  -1.812348  3.622696
C    -0.462791  -2.689034  3.166778
C    0.799344  -2.715195  4.046642
C    1.783107  -3.779546  3.531890
N    1.282808  -5.105993  3.642733
H    -2.523207  -2.174015  3.103134
H    -1.814928  -1.943387  4.697999
H    -0.197925  -2.484067  2.119624
H    -0.848406  -3.728468  3.154277
H    0.533484  -2.935746  5.092595
H    1.322566  -1.751644  4.046222
H    2.719749  -3.684050  4.134362
H    2.080731  -3.597469  2.489712
H    0.911697  -5.444985  4.528367
H    1.566796  -5.825055  2.981342
N    0.427120  0.798566  4.209699
C    1.313281  1.581502  5.066531
H    0.781166  0.419929  3.307885
H    2.287462  1.643689  4.571938
H    1.451490  1.100254  6.043780
H    0.935792  2.604452  5.199623
Hg    -1.204150  2.160551  7.442959
