34
Energy: -571606.597366 eV PBE+vdW (tier 2 basis)
C    0.933808  1.904701  0.865786
C    0.453598  1.201817  2.094015
O    1.213210  1.151208  3.104038
H    0.443284  1.538845  -0.042296
H    2.018429  1.764065  0.782674
H    0.764839  2.987174  0.973750
N    -0.760623  0.602625  2.137063
C    -2.006181  1.171348  1.618432
C    -2.492856  2.172585  2.698875
O    -2.209982  1.996003  3.912091
H    -0.907783  0.067370  2.994578
H    -1.786855  1.708141  0.684633
C    -3.011514  0.027804  1.351143
C    -4.322840  0.451827  0.679551
C    -5.322409  -0.684035  0.427493
C    -4.860740  -1.686449  -0.707748
N    -5.828124  -2.679428  -0.986922
H    -3.228620  -0.478350  2.305813
H    -2.473710  -0.699166  0.723413
H    -4.115351  0.981008  -0.265348
H    -4.857080  1.168700  1.325972
H    -6.283336  -0.259714  0.109617
H    -5.505325  -1.259940  1.345754
H    -3.933349  -2.178165  -0.372691
H    -4.662643  -1.109195  -1.620887
H    -6.522476  -2.554751  -1.718761
H    -5.939585  -3.496221  -0.392037
N    -3.245147  3.203270  2.300936
C    -3.795781  4.217254  3.198090
H    -3.500408  3.259347  1.317916
H    -3.799651  5.183458  2.683137
H    -3.180337  4.269791  4.100437
H    -4.824089  3.960695  3.487967
Hg    0.020488  1.566582  5.118270
