34
Energy: -571606.782758 eV PBE+vdW (tier 2 basis)
C    1.418665  -1.265874  1.960471
C    0.578243  -0.285071  2.729986
O    1.129809  0.316224  3.689279
H    0.922626  -1.643845  1.059257
H    1.664298  -2.110387  2.619182
H    2.365036  -0.784962  1.684801
N    -0.697695  -0.115898  2.321078
C    -1.799409  0.662880  2.915841
C    -1.487362  2.186790  2.887415
O    -1.044606  2.828226  3.882313
H    -0.959428  -0.688224  1.523791
H    -2.631665  0.532862  2.211047
C    -2.303271  0.136694  4.269811
C    -3.588147  0.812001  4.752707
C    -4.262840  0.118060  5.946050
C    -4.995801  -1.189589  5.584417
N    -4.113667  -2.270631  5.236025
H    -1.525592  0.187169  5.059543
H    -2.475041  -0.952051  4.148475
H    -4.304822  0.877469  3.915593
H    -3.383041  1.853275  5.043493
H    -5.011491  0.797588  6.373784
H    -3.536441  -0.076309  6.751160
H    -5.701509  -1.032063  4.757573
H    -5.609026  -1.471164  6.468844
H    -3.503761  -2.626547  5.971017
H    -4.486137  -3.008356  4.641152
N    -1.753546  2.857559  1.769722
C    -2.353049  2.369565  0.524804
H    -1.541159  3.854569  1.821705
H    -1.745253  1.575855  0.074503
H    -2.386785  3.207540  -0.177263
H    -3.382584  2.021016  0.680739
Hg    0.372253  1.742611  5.360211
