34
Energy: -571606.800489 eV PBE+vdW (tier 2 basis)
C    -0.905065  2.233875  -0.038015
C    -1.109284  2.173745  1.448466
O    -1.109978  3.251425  2.094521
H    -1.754922  2.762458  -0.491177
H    -0.807594  1.242683  -0.495384
H    -0.007151  2.826745  -0.251261
N    -1.276802  0.954434  2.012778
C    -1.613699  0.713218  3.410648
C    -0.422052  1.016007  4.360805
O    -0.520389  1.966664  5.193622
H    -1.275636  0.156888  1.383481
H    -2.367904  1.460510  3.710417
C    -2.232343  -0.680501  3.646150
C    -3.754439  -0.781456  3.429336
C    -4.234079  -0.714713  1.973917
C    -5.763047  -0.958259  1.842633
N    -6.164515  -2.292044  2.142982
H    -2.033320  -0.954440  4.692853
H    -1.708915  -1.432813  3.036264
H    -4.257621  -0.004511  4.026861
H    -4.072222  -1.741542  3.861228
H    -3.703696  -1.458137  1.356627
H    -4.038407  0.270318  1.524688
H    -6.030729  -0.715030  0.790928
H    -6.326890  -0.267605  2.482243
H    -7.011935  -2.469703  2.674069
H    -5.833873  -3.067322  1.573883
N    0.694873  0.292992  4.364640
C    1.018386  -0.948158  3.662990
H    1.375429  0.608266  5.058566
H    2.109077  -1.021819  3.602989
H    0.622897  -0.941292  2.643790
H    0.640912  -1.823883  4.207365
Hg    -1.547172  3.886198  4.358081
