34
Energy: -571606.246013 eV PBE+vdW (tier 2 basis)
C    0.367688  -0.223972  0.346127
C    0.258932  -0.141453  1.832621
O    1.332511  -0.108812  2.509929
H    1.394212  0.012961  0.047705
H    -0.342428  0.444778  -0.150375
H    0.164802  -1.259919  0.027937
N    -0.936263  -0.087824  2.478525
C    -2.133019  -0.920022  2.264366
C    -1.784792  -2.376766  2.658979
O    -0.974116  -2.653913  3.617186
H    -0.858347  0.285737  3.424563
H    -2.827201  -0.581557  3.051309
C    -2.862360  -0.748954  0.919681
C    -4.395489  -0.870036  1.084098
C    -5.136536  -1.310132  -0.192919
C    -5.368088  -2.819051  -0.261482
N    -4.137248  -3.610584  -0.246947
H    -2.471937  -1.461502  0.180623
H    -2.630602  0.249712  0.528975
H    -4.780213  0.104750  1.412860
H    -4.645338  -1.569657  1.898578
H    -4.606826  -0.957486  -1.091828
H    -6.125843  -0.835972  -0.229555
H    -5.943635  -3.048690  -1.183075
H    -5.994338  -3.156156  0.577491
H    -4.318162  -4.614833  -0.185088
H    -3.536120  -3.435191  -1.055718
N    -2.395949  -3.390281  2.073369
C    -2.158143  -4.786894  2.451608
H    -3.093636  -3.245961  1.297292
H    -2.613084  -5.002949  3.426954
H    -1.083929  -4.993505  2.511861
H    -2.613182  -5.428318  1.692529
Hg    0.881600  -1.487084  4.330253
