34
Energy: -571606.429158 eV PBE+vdW (tier 2 basis)
C    -0.601707  0.703659  -0.180635
C    -0.092994  -0.098824  0.987908
O    0.765546  -0.992830  0.709943
H    -0.175332  1.717178  -0.138991
H    -1.696590  0.772909  -0.169608
H    -0.277342  0.233789  -1.113068
N    -0.528990  0.130438  2.225557
C    -1.441514  1.176649  2.685328
C    -0.906459  1.536064  4.090728
O    -0.443593  0.617880  4.775537
H    -0.128883  -0.395230  3.012947
H    -1.405106  2.021937  1.987622
C    -2.901179  0.630942  2.798699
C    -3.950275  1.679979  3.154204
C    -5.400765  1.171617  3.159450
C    -5.751647  0.275769  4.381147
N    -5.228851  -1.041891  4.320453
H    -2.883144  -0.178386  3.549864
H    -3.152336  0.165171  1.833604
H    -3.924782  2.495817  2.409377
H    -3.722191  2.150899  4.123793
H    -5.637303  0.630525  2.230796
H    -6.082545  2.030824  3.199186
H    -6.867242  0.228409  4.381674
H    -5.454742  0.741258  5.329339
H    -4.930652  -1.515724  5.169704
H    -5.492097  -1.652299  3.549111
N    -0.981162  2.806688  4.548909
C    -1.259251  4.034315  3.816068
H    -0.598373  2.909277  5.490424
H    -0.349951  4.433999  3.341344
H    -1.631696  4.784833  4.521619
H    -2.020841  3.875176  3.045920
Hg    2.321006  -2.154690  2.037811
