34
Energy: -571607.08949 eV PBE+vdW (tier 2 basis)
C    -1.318213  1.871257  0.744581
C    -1.177122  0.442860  1.187929
O    -0.180711  -0.203571  0.774089
H    -0.542681  2.469793  1.243455
H    -2.302611  2.291401  0.981071
H    -1.136430  1.934150  -0.334310
N    -2.129751  -0.054318  2.009221
C    -2.086950  -1.332879  2.717564
C    -2.444899  -2.508793  1.769697
O    -1.555953  -3.302444  1.351174
H    -2.868520  0.593273  2.272232
H    -1.044232  -1.524037  3.020941
C    -2.943690  -1.261946  3.994083
C    -2.851920  -2.515977  4.875740
C    -3.664633  -2.363356  6.169041
C    -3.568702  -3.616121  7.069105
N    -4.279189  -3.471968  8.293676
H    -3.996883  -1.054010  3.735639
H    -2.595323  -0.386031  4.562914
H    -1.795841  -2.708765  5.123135
H    -3.206444  -3.398781  4.319866
H    -4.726434  -2.186855  5.941525
H    -3.308466  -1.486301  6.731806
H    -2.489697  -3.801131  7.282159
H    -3.936629  -4.514623  6.555313
H    -4.775021  -4.255040  8.708878
H    -4.132979  -2.663281  8.892262
N    -3.712356  -2.669011  1.409022
C    -4.183170  -3.713357  0.495847
H    -4.410805  -2.069848  1.841061
H    -4.415488  -4.634408  1.046204
H    -3.402561  -3.928687  -0.240002
H    -5.085886  -3.355381  -0.008039
Hg    0.603190  -2.402808  1.107124
