34
Energy: -571606.99758 eV PBE+vdW (tier 2 basis)
C    -0.677401  1.490173  0.817929
C    -0.571111  0.047211  1.220650
O    0.541021  -0.523261  1.046200
H    0.160908  2.045986  1.256844
H    -1.622877  1.951470  1.123949
H    -0.569467  1.558318  -0.273346
N    -1.668477  -0.537997  1.742662
C    -1.766087  -1.839975  2.416009
C    -2.170460  -2.928286  1.392783
O    -1.309504  -3.464782  0.629211
H    -2.497267  0.050123  1.789055
H    -0.751651  -2.117047  2.743758
C    -2.680315  -1.736214  3.648503
C    -2.144859  -0.865444  4.802756
C    -1.034952  -1.520846  5.634593
C    -0.659757  -0.651098  6.861106
N    0.317291  -1.262256  7.698039
H    -2.870380  -2.753623  4.021648
H    -3.658011  -1.327826  3.339185
H    -2.999913  -0.644788  5.457886
H    -1.806522  0.109940  4.418608
H    -0.118433  -1.681197  5.046201
H    -1.368507  -2.509648  5.986639
H    -1.593911  -0.473521  7.441100
H    -0.291623  0.336742  6.554873
H    1.042544  -0.706321  8.141336
H    0.147759  -2.177538  8.107264
N    -3.439128  -3.289824  1.291841
C    -3.928707  -4.284732  0.328895
H    -4.112317  -2.863935  1.922171
H    -4.993503  -4.446272  0.513178
H    -3.385860  -5.228456  0.455284
H    -3.783769  -3.923752  -0.696323
Hg    0.902522  -2.796149  0.690440
