34
Energy: -571606.280446 eV PBE+vdW (tier 2 basis)
C    -0.020198  0.182396  -0.195847
C    0.069404  -0.112065  1.268745
O    1.192519  -0.058710  1.837445
H    -0.902343  0.782260  -0.438492
H    -0.058182  -0.755971  -0.766839
H    0.887383  0.716764  -0.496099
N    -1.040623  -0.342673  2.045667
C    -2.102061  -1.297444  1.740137
C    -1.388039  -2.693781  1.569508
O    -0.195439  -2.712520  1.200377
H    -0.783392  -0.341769  3.034823
H    -2.707614  -1.352325  2.657457
C    -3.064035  -0.975682  0.576114
C    -4.087400  0.122268  0.917062
C    -3.660638  1.586390  0.747021
C    -3.895886  2.098395  -0.742671
N    -3.679751  3.486053  -0.884023
H    -3.619212  -1.900789  0.362968
H    -2.508030  -0.764064  -0.346165
H    -4.409875  0.000170  1.965095
H    -4.998525  -0.066020  0.330148
H    -2.606589  1.759973  1.004277
H    -4.261910  2.225148  1.406542
H    -4.943935  1.871217  -0.988663
H    -3.234312  1.548632  -1.425964
H    -2.776107  3.871028  -1.143199
H    -4.401228  4.158268  -0.635090
N    -2.103146  -3.783208  1.852746
C    -1.574041  -5.145428  1.826554
H    -3.071901  -3.665922  2.142356
H    -0.663416  -5.163910  1.222427
H    -2.327450  -5.809986  1.388070
H    -1.351696  -5.492095  2.845544
Hg    1.969190  -2.217322  2.570188
