34
Energy: -571606.936982 eV PBE+vdW (tier 2 basis)
C    1.277616  2.698871  2.163563
C    0.138914  2.241207  3.028345
O    -0.638224  3.127005  3.479716
H    0.869669  3.270633  1.319068
H    1.881624  1.869305  1.779450
H    1.910666  3.385372  2.740418
N    0.015907  0.916331  3.252383
C    -1.138750  0.201529  3.806832
C    -0.937816  -0.045268  5.319388
O    -0.893338  0.931970  6.125679
H    0.749232  0.339317  2.850920
H    -1.990939  0.900862  3.767397
C    -1.538638  -1.001637  2.922187
C    -0.445420  -1.993759  2.478027
C    -1.059345  -3.139009  1.658704
C    0.031775  -4.119807  1.104582
N    -0.511072  -5.177965  0.326071
H    -2.003724  -0.579028  2.019848
H    -2.351760  -1.533600  3.440703
H    0.115421  -2.411932  3.331064
H    0.303023  -1.479398  1.852756
H    -1.625257  -2.734203  0.807369
H    -1.766939  -3.717398  2.270016
H    0.588600  -4.549749  1.949637
H    0.730661  -3.540939  0.480560
H    -0.725051  -5.056601  -0.659051
H    -0.772276  -6.066420  0.741741
N    -0.814896  -1.281038  5.783820
C    -0.644138  -1.610811  7.201575
H    -0.785868  -2.040905  5.111439
H    0.414863  -1.556460  7.485558
H    -1.015515  -2.625518  7.370990
H    -1.210680  -0.899147  7.809874
Hg    -1.743327  3.014189  5.514371
