34
Energy: -571606.37166 eV PBE+vdW (tier 2 basis)
C    -0.643652  -0.576239  -0.675236
C    -0.091773  -0.185175  0.652261
O    1.165133  -0.024652  0.769014
H    -0.585674  0.277405  -1.367649
H    -1.667938  -0.955740  -0.611906
H    0.008305  -1.353496  -1.100123
N    -0.891605  -0.012191  1.732894
C    -2.179817  0.686102  1.740915
C    -1.932440  2.047795  2.441263
O    -0.829174  2.693918  2.325864
H    -0.406788  -0.069412  2.629586
H    -2.395097  0.953381  0.692387
C    -3.355165  -0.139301  2.289257
C    -4.693239  0.211655  1.599551
C    -5.943384  -0.087824  2.448574
C    -6.432510  1.117056  3.251097
N    -5.437205  1.658678  4.176178
H    -3.411170  -0.027216  3.381283
H    -3.126484  -1.198984  2.117322
H    -4.751066  -0.352104  0.658393
H    -4.712362  1.273211  1.301921
H    -5.761946  -0.948932  3.110941
H    -6.773617  -0.388358  1.796433
H    -7.342379  0.824520  3.816627
H    -6.745303  1.931356  2.580648
H    -5.749702  2.519940  4.629306
H    -5.149382  0.992501  4.897093
N    -2.908443  2.626574  3.117110
C    -2.763105  3.943371  3.744572
H    -3.834727  2.151349  3.272349
H    -1.848635  3.986441  4.347067
H    -3.632990  4.114262  4.383694
H    -2.718368  4.729411  2.979946
Hg    1.331759  1.903034  2.037731
