34
Energy: -571606.653454 eV PBE+vdW (tier 2 basis)
C    -0.256268  -0.325534  -0.999235
C    -0.089727  -0.211059  0.482516
O    0.994319  -0.433226  1.089432
H    0.719275  -0.449725  -1.476481
H    -0.759179  0.555920  -1.418482
H    -0.861075  -1.210121  -1.247123
N    -1.145429  0.102951  1.272201
C    -2.551740  0.035881  0.963405
C    -3.212429  1.071284  1.937395
O    -2.847906  1.048918  3.110841
H    -0.938543  0.203056  2.274054
H    -2.710788  0.285385  -0.091674
C    -3.128236  -1.387247  1.292134
C    -4.622121  -1.556808  1.002103
C    -5.061712  -2.970183  1.405118
C    -6.625096  -3.160958  1.175773
N    -7.070990  -4.441425  1.561777
H    -2.918690  -1.578342  2.354773
H    -2.540026  -2.109849  0.705759
H    -4.829568  -1.392641  -0.066524
H    -5.205655  -0.813621  1.566407
H    -4.851697  -3.159611  2.466708
H    -4.541555  -3.737098  0.814991
H    -6.830103  -3.005629  0.107226
H    -7.141803  -2.397140  1.774627
H    -7.326883  -4.647542  2.524196
H    -7.046887  -5.230435  0.920798
N    -4.142324  1.916073  1.453530
C    -4.547135  2.135597  0.066962
H    -4.461696  2.595560  2.143800
H    -3.777651  2.669984  -0.507822
H    -5.450689  2.752899  0.074419
H    -4.792638  1.191177  -0.431769
Hg    3.207016  0.301116  0.500039
