34
Energy: -571606.57498 eV PBE+vdW (tier 2 basis)
C    -0.229950  0.907442  0.581094
C    -0.682330  0.722421  1.996558
O    0.085021  0.802227  2.993784
H    -0.135377  -0.073013  0.090864
H    0.753706  1.384311  0.562249
H    -0.932796  1.513411  -0.002929
N    -1.972489  0.405192  2.267556
C    -2.984291  -0.099734  1.335878
C    -4.359051  0.510680  1.767879
O    -5.186885  -0.198870  2.357083
H    -2.156103  0.257036  3.262096
H    -2.738293  0.271175  0.331570
C    -3.049960  -1.634366  1.335671
C    -4.038460  -2.197639  0.296724
C    -4.623138  -3.562755  0.615246
C    -5.506491  -3.640310  1.974518
N    -6.542618  -2.708377  2.039854
H    -3.323829  -1.954784  2.351280
H    -2.038846  -2.022801  1.149977
H    -3.519918  -2.305195  -0.672144
H    -4.855435  -1.487297  0.108211
H    -3.849725  -4.327833  0.775414
H    -5.285107  -3.897937  -0.193219
H    -4.796535  -3.452780  2.795690
H    -5.896657  -4.664886  2.011415
H    -7.478660  -2.932284  1.706911
H    -6.338325  -1.737676  2.303375
N    -4.595076  1.804955  1.496408
C    -3.734824  2.764721  0.811917
H    -5.499195  2.138290  1.828679
H    -2.832034  2.987311  1.396079
H    -4.295945  3.695239  0.688641
H    -3.455038  2.410273  -0.189149
Hg    2.198435  1.965875  3.257949
