34
Energy: -571606.566976 eV PBE+vdW (tier 2 basis)
C    0.133388  0.696975  0.294655
C    -0.057875  0.409602  1.748653
O    0.942382  0.067035  2.441939
H    0.918875  0.036623  -0.092717
H    0.500077  1.727420  0.169124
H    -0.785978  0.556352  -0.283384
N    -1.280216  0.486742  2.329320
C    -2.252877  1.558469  2.104705
C    -1.851793  2.695750  3.075656
O    -1.178832  2.436447  4.111834
H    -1.275372  0.171836  3.301315
H    -2.156423  1.899090  1.064984
C    -3.689746  1.057383  2.369945
C    -4.115394  -0.042096  1.387531
C    -5.407604  -0.786316  1.738165
C    -6.709699  0.103676  1.584673
N    -7.899623  -0.630504  1.797409
H    -4.371347  1.918364  2.317190
H    -3.741674  0.689666  3.407870
H    -3.326094  -0.811730  1.350234
H    -4.180441  0.369845  0.367560
H    -5.378462  -1.173278  2.766718
H    -5.523031  -1.647338  1.067222
H    -6.718214  0.516450  0.565693
H    -6.661351  0.922594  2.317712
H    -8.263031  -0.797346  2.731931
H    -8.352930  -1.135081  1.040045
N    -2.247358  3.951189  2.847007
C    -3.148714  4.466399  1.822013
H    -1.930828  4.615264  3.556145
H    -2.785154  5.448538  1.498753
H    -4.166557  4.588221  2.218391
H    -3.174869  3.804232  0.951610
Hg    1.003681  1.191325  4.539244
