34
Energy: -571606.422873 eV PBE+vdW (tier 2 basis)
C    -0.188023  -1.208906  -0.900910
C    0.409666  -0.398185  0.201373
O    1.610242  -0.012859  0.070047
H    0.393647  -1.032383  -1.812649
H    -1.240226  -0.970157  -1.078815
H    -0.090363  -2.278002  -0.656819
N    -0.283997  -0.002551  1.304955
C    -1.156159  -0.826870  2.153675
C    -0.239846  -1.913316  2.797559
O    0.865875  -2.194751  2.270154
H    0.249044  0.682441  1.842381
H    -1.488208  -0.148002  2.953028
C    -2.403059  -1.433343  1.475888
C    -3.367380  -0.418134  0.838197
C    -4.194043  0.399722  1.844140
C    -5.192577  1.356277  1.157792
N    -6.278748  0.700945  0.514682
H    -2.941778  -2.013991  2.240512
H    -2.093666  -2.171115  0.724423
H    -4.053907  -0.978955  0.186905
H    -2.811680  0.266564  0.178649
H    -3.550663  1.024021  2.481246
H    -4.746117  -0.270925  2.522009
H    -4.700023  2.019637  0.433077
H    -5.591582  2.027774  1.956950
H    -6.831184  0.006289  1.013203
H    -6.720877  1.111673  -0.303870
N    -0.683859  -2.527961  3.896554
C    0.055916  -3.542668  4.642097
H    -1.620469  -2.305994  4.227643
H    0.063049  -3.281039  5.707009
H    1.076177  -3.597618  4.256340
H    -0.428359  -4.521646  4.521616
Hg    2.945051  -0.826541  1.828728
