34
Energy: -571606.465878 eV PBE+vdW (tier 2 basis)
C    -0.098588  0.931536  0.592276
C    -0.845277  0.629516  1.850941
O    -0.190194  0.457799  2.917302
H    -0.633326  1.634692  -0.052634
H    0.088912  -0.002483  0.042496
H    0.876828  1.349162  0.865973
N    -2.211539  0.610465  1.920639
C    -3.122231  -0.088810  1.015292
C    -2.784345  -1.610753  1.167057
O    -1.616172  -1.930891  1.493515
H    -2.522215  0.577906  2.893206
H    -4.123814  0.086370  1.435277
C    -3.137103  0.352892  -0.461704
C    -3.573510  1.818334  -0.639621
C    -3.605128  2.214361  -2.117841
C    -4.062645  3.721608  -2.291422
N    -4.108010  4.127764  -3.644815
H    -3.844205  -0.304119  -0.988312
H    -2.160705  0.168358  -0.927670
H    -2.892872  2.480579  -0.082620
H    -4.570537  1.958804  -0.193289
H    -4.306983  1.584874  -2.682553
H    -2.614713  2.104680  -2.582025
H    -3.353382  4.359415  -1.745208
H    -5.064687  3.819996  -1.848085
H    -4.927301  3.962304  -4.223507
H    -3.296771  4.525177  -4.110696
N    -3.732896  -2.529679  0.968624
C    -5.111004  -2.369361  0.516985
H    -3.413979  -3.486349  1.132638
H    -5.482573  -1.362635  0.732065
H    -5.742060  -3.092844  1.044423
H    -5.190496  -2.560572  -0.562658
Hg    -0.414744  -1.760619  3.760898
