34
Energy: -571606.514659 eV PBE+vdW (tier 2 basis)
C    -0.657697  0.511501  -0.477674
C    -0.245171  0.162059  0.918421
O    0.924757  0.287360  1.358994
H    -1.310466  -0.252326  -0.918709
H    0.226891  0.635855  -1.108407
H    -1.199015  1.470001  -0.473972
N    -1.174146  -0.281109  1.808533
C    -2.607263  -0.152292  1.696376
C    -3.074854  1.332201  1.937645
O    -2.539010  1.992798  2.827302
H    -0.791651  -0.438870  2.741581
H    -2.882030  -0.403999  0.662600
C    -3.353914  -1.125985  2.635459
C    -2.921638  -1.266893  4.111722
C    -3.171525  -0.041489  4.992780
C    -2.864065  -0.327435  6.529549
N    -3.772598  -1.217274  7.133454
H    -3.248562  -2.121890  2.178299
H    -4.423590  -0.876534  2.589233
H    -1.865278  -1.576216  4.179982
H    -3.491821  -2.122309  4.502382
H    -4.212998  0.301778  4.909535
H    -2.529235  0.812615  4.734860
H    -2.941621  0.662869  7.011692
H    -1.841920  -0.709928  6.632517
H    -4.713795  -0.921228  7.380818
H    -3.521598  -2.172933  7.369786
N    -4.056811  1.804749  1.149868
C    -4.727023  1.142427  0.031551
H    -4.308364  2.773620  1.341881
H    -4.032689  0.918202  -0.791180
H    -5.484109  1.829475  -0.358049
H    -5.236019  0.223552  0.347378
Hg    3.037825  0.055063  0.140069
