34
Energy: -571606.591791 eV PBE+vdW (tier 2 basis)
C    -0.021648  2.098790  1.109062
C    0.272853  0.975924  2.049601
O    1.404221  0.838424  2.614006
H    0.042757  3.046426  1.665289
H    -1.010108  2.045112  0.645567
H    0.744941  2.126167  0.324257
N    -0.629574  0.024684  2.338354
C    -1.889935  -0.287849  1.688738
C    -2.644751  -1.161932  2.732908
O    -1.995443  -1.871943  3.499868
H    -0.359007  -0.666238  3.051917
H    -2.441478  0.643127  1.497319
C    -1.737372  -1.052463  0.336091
C    -0.944493  -2.366026  0.366886
C    -1.737649  -3.661609  0.667042
C    -2.492928  -4.207603  -0.552984
N    -1.640068  -4.713801  -1.571022
H    -1.240477  -0.342506  -0.343145
H    -2.745880  -1.195310  -0.080703
H    -0.118332  -2.287901  1.087464
H    -0.466444  -2.494047  -0.618015
H    -2.457514  -3.521779  1.482999
H    -1.039401  -4.432290  1.025565
H    -3.186106  -3.481033  -1.003923
H    -3.149566  -5.035085  -0.182018
H    -0.849938  -5.309147  -1.329149
H    -1.956403  -4.769331  -2.536190
N    -3.990617  -1.102732  2.695629
C    -4.835842  -1.788651  3.668898
H    -4.430261  -0.417216  2.087135
H    -4.307241  -2.674175  4.035540
H    -5.776194  -2.073654  3.184358
H    -5.062614  -1.136544  4.524440
Hg    2.835265  2.568327  3.319737
