34
Energy: -571606.537853 eV PBE+vdW (tier 2 basis)
C    0.595115  -0.713994  0.807219
C    -0.185435  0.416244  1.394226
O    -0.026288  1.592841  0.988417
H    0.659167  -1.581983  1.471933
H    1.603978  -0.350048  0.577163
H    0.140077  -1.021884  -0.145150
N    -1.061054  0.195794  2.435151
C    -2.029378  -0.889034  2.405719
C    -3.097423  -0.395621  1.345398
O    -2.621981  0.030477  0.267535
H    -1.421940  1.074678  2.816530
H    -1.553501  -1.767310  1.946822
C    -2.573567  -1.254344  3.789531
C    -1.545902  -1.914552  4.735389
C    -0.457913  -0.988781  5.263109
C    0.267239  -1.560845  6.570756
N    0.984500  -2.758520  6.381075
H    -3.391721  -1.978841  3.657324
H    -3.006857  -0.361446  4.270285
H    -1.099892  -2.796773  4.250046
H    -2.135040  -2.305875  5.580190
H    -0.873168  -0.022364  5.586739
H    0.331079  -0.791267  4.525996
H    -0.512862  -1.712537  7.329431
H    0.953494  -0.764082  6.893357
H    1.965022  -2.751898  6.115129
H    0.587165  -3.663333  6.614938
N    -4.391916  -0.416022  1.638387
C    -5.435888  0.080614  0.740142
H    -4.681341  -0.789417  2.538213
H    -5.103536  -0.030378  -0.295973
H    -5.656248  1.137408  0.946696
H    -6.345644  -0.506024  0.903691
Hg    -1.950495  2.410039  -0.293236
