34
Energy: -571606.522751 eV PBE+vdW (tier 2 basis)
C    0.169220  0.400496  0.686584
C    -0.093137  0.147154  2.137792
O    0.830473  -0.213049  2.939745
H    0.748573  1.332260  0.594002
H    -0.735618  0.503027  0.082078
H    0.779214  -0.415076  0.280026
N    -1.312605  0.267034  2.673163
C    -2.594486  0.490176  2.011248
C    -3.507325  1.079270  3.119842
O    -3.324853  0.713701  4.286365
H    -1.385330  0.141604  3.689346
H    -2.450164  1.226025  1.210848
C    -3.245436  -0.785931  1.398628
C    -4.073174  -1.716973  2.309233
C    -3.297733  -2.408468  3.429729
C    -4.205560  -3.416486  4.259113
N    -4.612150  -4.554462  3.533099
H    -2.444025  -1.358218  0.907789
H    -3.912545  -0.443753  0.594186
H    -4.515966  -2.474626  1.646034
H    -4.919613  -1.156539  2.735484
H    -2.945907  -1.694654  4.188783
H    -2.428817  -2.960248  3.041827
H    -5.084888  -2.880435  4.634711
H    -3.572572  -3.731261  5.107966
H    -3.966766  -5.316619  3.340365
H    -5.567501  -4.677189  3.209219
N    -4.488390  1.930611  2.766200
C    -4.720701  2.558574  1.469115
H    -5.018473  2.289260  3.560772
H    -5.717909  3.009169  1.484367
H    -4.696073  1.820768  0.658673
H    -3.991477  3.356103  1.264213
Hg    3.115294  0.304324  2.735355
