34
Energy: -571606.91922 eV PBE+vdW (tier 2 basis)
C    -0.086723  3.180791  1.212201
C    -0.065255  2.015257  2.163607
O    0.995085  1.332526  2.190591
H    -0.998275  3.783854  1.291186
H    0.001832  2.795316  0.187143
H    0.791418  3.810760  1.399132
N    -1.176999  1.806219  2.897356
C    -1.591306  0.687912  3.777051
C    -0.849661  0.737948  5.137999
O    0.278624  0.208702  5.347717
H    -1.902440  2.498522  2.736655
H    -2.641629  0.918943  4.001943
C    -1.574370  -0.694645  3.101351
C    -2.385777  -1.775486  3.830113
C    -3.905484  -1.668229  3.618288
C    -4.677568  -2.840548  4.268780
N    -4.455993  -4.097392  3.631892
H    -0.534503  -1.063976  2.993614
H    -1.933196  -0.565313  2.069566
H    -2.149376  -1.773031  4.906741
H    -2.055018  -2.755673  3.456865
H    -4.136862  -1.641320  2.542021
H    -4.315236  -0.740746  4.045747
H    -5.757109  -2.573241  4.212597
H    -4.436158  -2.938546  5.335318
H    -4.456227  -4.951505  4.182228
H    -4.706190  -4.216568  2.652886
N    -1.466737  1.372310  6.129251
C    -0.897074  1.546964  7.468625
H    -2.404786  1.726278  5.965004
H    -1.029190  0.636013  8.066365
H    -1.409925  2.379692  7.957687
H    0.172492  1.765213  7.386441
Hg    1.708897  -0.335910  3.600972
