34
Energy: -571606.692068 eV PBE+vdW (tier 2 basis)
C    -1.444679  0.162952  0.162364
C    -0.869635  0.001116  1.556616
O    0.457953  0.047684  1.463474
H    -1.381272  -0.796973  -0.370678
H    -0.859727  0.888982  -0.411796
H    -2.484753  0.501330  0.211187
N    -1.693578  -0.168005  2.547817
C    -1.484256  -0.583373  3.951583
C    -0.794049  0.422559  4.911206
O    0.476821  0.440892  5.152044
H    -3.079330  -0.904792  2.078866
H    -2.506002  -0.632209  4.359512
C    -0.922666  -2.016059  4.131080
C    -1.871008  -3.142114  3.671431
C    -2.059866  -3.321368  2.144464
C    -3.438580  -2.999725  1.572594
N    -3.923919  -1.592381  1.896059
H    -0.712292  -2.162547  5.200829
H    0.042710  -2.142067  3.610894
H    -2.842035  -3.021765  4.181392
H    -1.461800  -4.073690  4.081755
H    -1.891009  -4.375295  1.883800
H    -1.287863  -2.768537  1.591184
H    -4.201087  -3.692048  1.949004
H    -3.424627  -3.085257  0.480139
H    -4.507968  -1.223618  1.137651
H    -4.511235  -1.596632  2.736087
N    -1.531127  1.257281  5.621985
C    -2.989000  1.409399  5.654811
H    -0.995097  1.846211  6.263506
H    -3.400082  1.415704  4.640317
H    -3.210330  2.375153  6.119085
H    -3.455573  0.621521  6.260826
Hg    1.471967  0.053288  3.282590
