34
Energy: -571606.787154 eV PBE+vdW (tier 2 basis)
C    0.351978  -0.773177  0.121363
C    0.244224  -0.779654  1.614878
O    1.127386  -1.465752  2.234295
H    0.324046  -1.814026  -0.232979
H    1.328675  -0.364911  -0.170294
H    -0.453176  -0.210467  -0.363491
N    -0.755904  -0.085924  2.184439
C    -1.407911  -0.172184  3.523262
C    -0.836474  0.831492  4.540671
O    0.418517  0.922164  4.843058
H    -1.294855  0.456574  1.513792
H    -2.425450  0.175083  3.308159
C    -1.546953  -1.613503  4.086219
C    -2.901674  -1.897633  4.763552
C    -3.189365  -1.183114  6.107118
C    -4.389896  -0.228077  6.133597
N    -4.306249  0.889831  5.157686
H    -0.735014  -1.850063  4.798529
H    -1.423638  -2.314122  3.249544
H    -2.944134  -2.983048  4.920096
H    -3.698377  -1.692532  4.029050
H    -2.297234  -0.645687  6.463881
H    -3.388448  -1.939751  6.877120
H    -4.470327  0.211950  7.135052
H    -5.318619  -0.797059  5.962509
H    -4.671697  0.615867  4.242529
H    -4.880429  1.679645  5.463102
N    -1.682927  1.634279  5.135817
C    -1.305315  2.575257  6.191057
H    -2.749086  1.443280  5.000229
H    -0.814972  3.455475  5.755705
H    -0.617549  2.109442  6.906617
H    -2.217653  2.897119  6.701545
Hg    1.652495  -0.773772  4.256294
