34
Energy: -571607.062576 eV PBE+vdW (tier 2 basis)
C    -0.696161  1.615408  -0.702994
C    -1.091882  2.247154  0.601573
O    -0.915556  3.488894  0.719358
H    0.374014  1.791843  -0.871806
H    -1.237041  2.116117  -1.516873
H    -0.902821  0.539870  -0.736407
N    -1.611389  1.441859  1.552765
C    -2.264256  1.838866  2.804681
C    -1.216073  1.967048  3.939451
O    -0.630527  3.067249  4.168605
H    -1.658732  0.454963  1.313111
H    -2.657541  2.858470  2.663744
C    -3.449020  0.914743  3.130670
C    -4.639199  1.067519  2.167185
C    -5.837636  0.215124  2.613423
C    -7.090168  0.403598  1.734555
N    -6.984721  -0.181714  0.436167
H    -3.780831  1.149578  4.153133
H    -3.118127  -0.139088  3.143584
H    -4.349809  0.793380  1.141115
H    -4.938154  2.127579  2.134581
H    -6.123567  0.480008  3.641580
H    -5.567255  -0.852613  2.635749
H    -7.353176  1.464624  1.623458
H    -7.939011  -0.063106  2.287089
H    -6.781444  -1.175627  0.354206
H    -7.525389  0.206257  -0.332506
N    -0.919908  0.902064  4.668772
C    0.074410  0.899457  5.748358
H    -1.462541  0.055705  4.522726
H    0.957647  1.465525  5.435690
H    0.353353  -0.136502  5.958682
H    -0.341839  1.357410  6.654617
Hg    -0.802648  4.810335  2.643961
