34
Energy: -571606.639546 eV PBE+vdW (tier 2 basis)
C    0.531690  1.091607  0.480673
C    -0.009271  -0.156404  1.106102
O    0.617768  -1.269523  1.110571
H    1.468935  1.372635  0.982737
H    -0.165947  1.932260  0.551926
H    0.750377  0.902169  -0.579014
N    -1.211823  -0.119100  1.673838
C    -1.896456  -1.283703  2.246057
C    -3.367511  -1.126476  1.791909
O    -3.811063  0.032627  1.811435
H    -1.792077  0.721514  1.596879
H    -1.426340  -2.184573  1.830731
C    -1.800577  -1.263471  3.791581
C    -2.517595  -2.421593  4.493280
C    -2.276299  -2.469031  6.017332
C    -3.035800  -1.397112  6.827548
N    -4.428807  -1.636551  6.945837
H    -0.728524  -1.287623  4.039818
H    -2.185412  -0.291408  4.134505
H    -2.156109  -3.377472  4.083846
H    -3.601248  -2.383796  4.300618
H    -1.205978  -2.354571  6.238927
H    -2.556823  -3.462352  6.397824
H    -2.879181  -0.372366  6.463096
H    -2.579585  -1.414599  7.850542
H    -4.771844  -2.558395  7.210319
H    -5.085680  -0.868050  7.057828
N    -4.105765  -2.181257  1.420027
C    -3.748040  -3.593346  1.342144
H    -5.065050  -1.936386  1.172211
H    -2.663245  -3.724120  1.306534
H    -4.173909  -4.015146  0.424436
H    -4.147528  -4.149869  2.200758
Hg    2.866743  -1.490490  0.418515
