34
Energy: -571606.962958 eV PBE+vdW (tier 2 basis)
C    0.981767  -0.041894  1.092628
C    -0.117775  0.645131  1.862837
O    0.073456  0.673506  3.140039
H    0.597039  -0.441372  0.146910
H    1.404270  -0.859783  1.684958
H    1.794732  0.670261  0.889063
N    -1.153824  1.139169  1.188573
C    -2.125203  1.947173  1.871190
C    -2.939392  1.182571  2.979800
O    -2.867591  1.517772  4.195956
H    -0.968719  1.475771  -0.482579
H    -1.621254  2.743415  2.480809
C    -3.039138  2.705969  0.885884
C    -3.750911  1.881973  -0.220315
C    -3.378150  2.248857  -1.671196
C    -2.192885  1.497370  -2.264078
N    -0.897020  1.768209  -1.529061
H    -2.414062  3.488001  0.427851
H    -3.781377  3.259580  1.476689
H    -4.833119  2.014113  -0.105966
H    -3.564013  0.801377  -0.101605
H    -3.233002  3.336725  -1.767443
H    -4.227272  2.014005  -2.328474
H    -2.036084  1.773039  -3.313840
H    -2.345118  0.411026  -2.218255
H    -0.120987  1.252750  -1.961585
H    -0.653990  2.765429  -1.574395
N    -3.746194  0.202093  2.603940
C    -4.618155  -0.543380  3.514521
H    -3.836658  0.025950  1.606574
H    -5.578913  -0.026642  3.640683
H    -4.131489  -0.630028  4.491006
H    -4.795013  -1.535690  3.088537
Hg    -0.697955  2.203552  4.587343
