34
Energy: -571608.137371 eV PBE+vdW (tier 2 basis)
C    -3.073667  1.673294  0.873527
C    -1.705237  1.177382  1.224765
O    -0.694372  1.515511  0.583669
H    -3.047417  2.766781  0.792498
H    -3.852602  1.373979  1.582852
H    -3.333302  1.287274  -0.122509
N    -1.606152  0.332308  2.302089
C    -0.436224  -0.480865  2.656696
C    0.775110  0.364310  3.104938
O    1.424766  0.103241  4.232868
H    -2.458147  0.137166  2.817380
H    -0.755293  -1.022150  3.561839
C    -0.089103  -1.512163  1.541175
C    0.889629  -2.641770  1.906732
C    0.309078  -3.772701  2.795572
C    1.350400  -4.587401  3.572337
N    1.732174  -3.944207  4.904857
H    0.299829  -0.967550  0.671508
H    -1.045679  -1.952629  1.224219
H    1.827445  -2.214255  2.322757
H    1.241077  -3.100202  0.971582
H    -0.236581  -4.472339  2.147602
H    -0.461654  -3.407933  3.499333
H    2.279210  -4.703061  3.000461
H    0.973607  -5.588801  3.817397
H    1.075224  -4.237464  5.638611
H    2.663119  -4.255007  5.210394
N    1.148677  1.377090  2.387270
C    2.257408  2.284126  2.670753
H    0.504677  1.542196  1.531049
H    2.984435  1.817126  3.340165
H    1.868888  3.198254  3.139779
H    2.728042  2.555226  1.719911
Hg    1.639097  -1.841156  4.743130
