34
Energy: -571608.465073 eV PBE+vdW (tier 2 basis)
C    -0.942000  1.115163  0.649767
C    -1.832087  0.149294  1.373969
O    -2.740175  -0.451974  0.755682
H    -0.185025  1.585566  1.285898
H    -1.565474  1.898575  0.198363
H    -0.445145  0.587871  -0.175111
N    -1.602479  -0.013713  2.698507
C    -2.321968  -0.791859  3.726726
C    -2.106188  -2.309791  3.565634
O    -2.505648  -3.040922  2.581160
H    -0.824458  0.527386  3.063488
H    -1.748349  -0.541377  4.628635
C    -3.761971  -0.317877  4.135527
C    -5.078228  -0.752859  3.456812
C    -5.566388  0.037731  2.215777
C    -6.500850  -0.752763  1.292147
N    -5.752074  -1.661409  0.328150
H    -3.707777  0.781008  4.156271
H    -3.848035  -0.620699  5.189009
H    -5.857962  -0.650299  4.225797
H    -5.077731  -1.850215  3.293519
H    -4.733155  0.444149  1.625481
H    -6.128687  0.913700  2.565274
H    -7.104864  -0.076821  0.672843
H    -7.186447  -1.392374  1.861970
H    -6.361838  -2.406291  -0.025718
H    -5.430454  -1.123337  -0.485153
N    -1.423330  -2.921207  4.516842
C    -1.127506  -4.358369  4.537112
H    -1.037061  -2.355033  5.267788
H    -0.800427  -4.627013  5.544834
H    -0.331228  -4.591872  3.818938
H    -2.025389  -4.926662  4.274020
Hg    -3.988743  -2.404808  1.260389
