34
Energy: -571606.553566 eV PBE+vdW (tier 2 basis)
C    -0.140376  -1.298346  0.904069
C    -0.101746  -1.098328  2.384055
O    0.916372  -1.472274  3.031880
H    -1.164228  -1.371415  0.522297
H    0.412198  -2.213299  0.658555
H    0.386333  -0.469029  0.407188
N    -1.142065  -0.539514  3.050962
C    -1.896528  0.638639  2.619630
C    -0.990361  1.841621  2.983782
O    -0.261058  1.772865  4.012270
H    -1.017812  -0.563188  4.064768
H    -2.058625  0.575785  1.536638
C    -3.248141  0.642545  3.374078
C    -4.233329  1.762300  3.005324
C    -5.545589  1.585114  3.779122
C    -6.586207  2.720273  3.420297
N    -7.813028  2.576167  4.110286
H    -3.032907  0.681912  4.454050
H    -3.709497  -0.336392  3.178802
H    -4.438484  1.744379  1.923716
H    -3.799929  2.747273  3.238138
H    -5.370179  1.617078  4.863563
H    -6.008861  0.616374  3.545638
H    -6.774013  2.676885  2.337151
H    -6.138523  3.690485  3.679557
H    -7.957080  2.980196  5.031843
H    -8.557479  1.982596  3.753905
N    -0.967898  2.949286  2.235272
C    -1.771448  3.324688  1.077499
H    -0.304667  3.649617  2.574232
H    -2.304743  2.462165  0.670987
H    -1.108651  3.728193  0.302135
H    -2.499861  4.101089  1.346811
Hg    1.618164  0.149142  4.643129
