34
Energy: -571606.761852 eV PBE+vdW (tier 2 basis)
C    0.350791  0.977493  0.411532
C    0.076500  0.870226  1.883681
O    0.804186  1.557437  2.653651
H    -0.320139  0.355626  -0.191709
H    0.236646  2.027867  0.109732
H    1.394373  0.698424  0.218958
N    -0.929044  0.061861  2.277342
C    -1.613146  0.030188  3.574019
C    -1.022944  -1.083056  4.470577
O    0.182543  -1.014925  4.863387
H    -1.402622  -0.427379  1.523193
H    -1.325751  0.953601  4.106143
C    -3.152590  0.114693  3.396416
C    -3.862831  -0.642493  2.256869
C    -4.011544  -2.166351  2.376656
C    -4.904829  -2.766128  1.264906
N    -6.271070  -2.349615  1.347043
H    -3.365425  1.181748  3.239349
H    -3.620422  -0.119759  4.365519
H    -3.411511  -0.390600  1.281706
H    -4.872353  -0.209447  2.198259
H    -4.458884  -2.429073  3.352352
H    -3.041434  -2.684003  2.312795
H    -4.834711  -3.872933  1.343565
H    -4.519491  -2.502807  0.270729
H    -6.811982  -2.239430  0.493886
H    -6.820767  -2.591509  2.168240
N    -1.770799  -2.106773  4.851370
C    -1.303980  -3.182652  5.729770
H    -2.710098  -2.176398  4.471575
H    -2.169724  -3.619363  6.235820
H    -0.607397  -2.772515  6.467513
H    -0.788402  -3.959227  5.149840
Hg    1.304526  1.009552  4.832349
