34
Energy: -571606.402788 eV PBE+vdW (tier 2 basis)
C    -0.264230  -0.803455  -0.546133
C    -0.031649  -0.307951  0.843713
O    1.128901  0.092171  1.150337
H    -1.259486  -0.549090  -0.920794
H    -0.129068  -1.895158  -0.570895
H    0.502111  -0.367911  -1.197246
N    -1.022833  -0.201509  1.775275
C    -2.021002  -1.217273  2.127859
C    -1.219215  -2.403129  2.744478
O    -0.023696  -2.578570  2.388752
H    -0.700492  0.327191  2.587573
H    -2.623238  -0.752068  2.922589
C    -2.982639  -1.677881  1.014595
C    -3.875523  -0.550081  0.473607
C    -4.884161  -1.077955  -0.558165
C    -5.898418  -0.005891  -1.027732
N    -5.354374  0.983591  -1.891023
H    -3.619843  -2.462353  1.448699
H    -2.427775  -2.170959  0.205787
H    -3.264546  0.249594  0.027511
H    -4.417711  -0.085450  1.312927
H    -5.473208  -1.900573  -0.128003
H    -4.366329  -1.497020  -1.435103
H    -6.391397  0.489999  -0.181470
H    -6.698030  -0.564478  -1.571179
H    -4.897889  0.709817  -2.758562
H    -5.687691  1.943452  -1.853737
N    -1.792747  -3.216397  3.634431
C    -3.169094  -3.251858  4.116913
H    -1.164995  -3.941153  3.987778
H    -3.649109  -2.273951  4.011698
H    -3.162746  -3.525251  5.177775
H    -3.754683  -4.003839  3.568848
Hg    2.052698  -1.229380  2.888284
