34
Energy: -571606.736286 eV PBE+vdW (tier 2 basis)
C    -0.509296  -1.298087  0.462030
C    -0.257276  -0.423306  1.659685
O    0.782002  -0.661096  2.333739
H    -1.527564  -1.212334  0.066923
H    -0.307334  -2.341151  0.732410
H    0.209398  -1.023848  -0.323659
N    -1.177360  0.531885  1.909249
C    -1.370014  1.529400  2.981319
C    -0.392877  2.711961  2.894467
O    0.833123  2.585460  2.603593
H    -1.920206  0.549305  1.216601
H    -2.351853  1.951395  2.729728
C    -1.583279  0.978350  4.424232
C    -0.477274  0.236632  5.184762
C    -0.763612  0.030516  6.673070
C    -1.988501  -0.949349  6.938131
N    -2.158899  -1.221662  8.313592
H    -2.460887  0.318167  4.354706
H    -1.899954  1.845029  5.026086
H    0.478828  0.832688  5.174285
H    -0.248540  -0.725328  4.706969
H    -0.971646  0.985971  7.175069
H    0.114585  -0.413873  7.158041
H    -1.802955  -1.888263  6.398969
H    -2.903247  -0.480679  6.547264
H    -2.623619  -0.560248  8.928494
H    -1.646546  -1.971387  8.768613
N    -0.866439  3.941736  3.105677
C    -2.255041  4.393725  3.231166
H    -0.147978  4.665396  3.053989
H    -2.811317  4.243669  2.295915
H    -2.240139  5.465585  3.447529
H    -2.769684  3.889999  4.057960
Hg    2.098157  0.862659  3.456690
