34
Energy: -571606.935373 eV PBE+vdW (tier 2 basis)
C    -0.842061  -1.056274  0.184757
C    -1.099957  -1.042720  1.658877
O    -1.234929  -2.184776  2.215770
H    -1.628688  -1.631007  -0.319984
H    0.106868  -1.583404  0.004320
H    -0.774418  -0.049101  -0.241386
N    -1.161424  0.143008  2.290476
C    -0.953144  0.459124  3.728995
C    -2.314296  0.711935  4.408626
O    -3.095108  -0.284103  4.715364
H    -1.079342  0.949875  1.674130
H    -0.530727  -0.441653  4.207041
C    0.117709  1.563333  3.814128
C    0.792347  1.782052  5.184590
C    0.007931  2.431429  6.333347
C    -0.375530  3.907868  6.161847
N    -1.336136  4.166754  5.051438
H    -0.285490  2.494723  3.390639
H    0.910994  1.247013  3.120694
H    1.689962  2.388488  4.989647
H    1.178552  0.811216  5.532833
H    0.651144  2.389524  7.224143
H    -0.884817  1.846234  6.601867
H    0.532662  4.510172  6.004141
H    -0.836624  4.260227  7.091882
H    -2.094515  2.814997  4.684177
H    -2.015635  4.883491  5.314596
N    -2.746750  1.913953  4.679208
C    -4.063868  2.151450  5.283624
H    -0.864500  4.515804  4.215006
H    -4.212304  3.232775  5.350131
H    -4.119910  1.712217  6.288214
H    -4.856272  1.714780  4.665515
Hg    -2.419727  -2.243402  4.075350
