34
Energy: -571606.356795 eV PBE+vdW (tier 2 basis)
C    -0.581376  0.107890  -0.182186
C    -0.432412  -0.113500  1.287554
O    0.712740  -0.379135  1.755589
H    -0.305874  1.145267  -0.427410
H    -1.596820  -0.101433  -0.534222
H    0.132994  -0.537470  -0.708035
N    -1.496510  -0.051424  2.124422
C    -2.540282  0.979572  2.094626
C    -1.865439  2.250115  2.666490
O    -1.012083  2.133504  3.594755
H    -1.270852  -0.346029  3.076302
H    -2.855007  1.129002  1.054538
C    -3.715401  0.495943  2.978397
C    -4.981657  1.364012  2.996558
C    -5.903893  1.241308  1.766231
C    -6.815281  -0.002808  1.788062
N    -7.844609  0.063778  2.769377
H    -3.333421  0.406010  4.007427
H    -3.950838  -0.527453  2.648895
H    -4.715588  2.420388  3.144639
H    -5.557178  1.093705  3.893674
H    -5.330708  1.207098  0.827464
H    -6.538603  2.136887  1.691975
H    -6.258151  -0.940362  1.928172
H    -7.277468  -0.084347  0.774374
H    -8.425786  0.895895  2.848724
H    -8.235972  -0.785647  3.168414
N    -2.172039  3.471200  2.221055
C    -3.179742  3.903497  1.259168
H    -1.636200  4.212593  2.678470
H    -2.710712  4.578908  0.532567
H    -3.985794  4.450144  1.766618
H    -3.606488  3.051261  0.725797
Hg    1.157117  0.892840  3.707781
