34
Energy: -571607.571472 eV PBE+vdW (tier 2 basis)
C    -0.210091  -0.039079  -0.227684
C    0.163672  0.562495  1.112315
O    1.372947  0.618015  1.433352
H    -0.106061  0.750553  -0.986462
H    -1.232106  -0.428097  -0.248172
H    0.506393  -0.828279  -0.475131
N    -0.790945  0.990752  1.965886
C    -2.063254  1.581993  1.715004
C    -2.024900  3.113613  2.128761
O    -1.233941  3.571748  2.979274
H    -2.926987  -3.087257  3.637146
H    -2.280298  1.580905  0.631604
C    -3.200373  0.877016  2.493139
C    -3.461821  -0.559445  2.014926
C    -4.703581  -1.210731  2.656616
C    -4.545625  -1.761568  4.070578
N    -3.858795  -3.126245  4.072246
H    -4.124140  1.464643  2.384232
H    -2.941573  0.903694  3.563608
H    -2.556422  -1.172638  2.165710
H    -3.627725  -0.548279  0.927424
H    -5.090565  -2.008885  2.002522
H    -5.518812  -0.473486  2.702256
H    -5.517178  -1.925610  4.551084
H    -3.943469  -1.118137  4.723851
H    -4.414076  -3.817208  3.546705
H    -3.741023  -3.490154  5.028719
N    -2.927686  3.887541  1.531659
C    -3.093097  5.314177  1.827272
H    -3.548202  3.466392  0.847009
H    -3.661691  5.772467  1.013591
H    -2.110041  5.790528  1.901750
H    -3.630462  5.456871  2.773130
Hg    0.623626  2.024969  3.349674
