34
Energy: -571606.767695 eV PBE+vdW (tier 2 basis)
C    -0.297563  0.634375  -0.300525
C    -0.082699  0.541996  1.178210
O    0.985261  0.932912  1.759273
H    -0.255573  1.689263  -0.608470
H    -1.262420  0.220382  -0.610762
H    0.503891  0.091178  -0.819348
N    -1.040812  0.010546  1.933783
C    -0.926846  -0.222046  3.377583
C    -1.520868  -1.633976  3.598336
O    -2.546741  -1.911382  2.964579
H    -1.862851  -0.412361  1.494104
H    0.141684  -0.196302  3.639446
C    -1.723710  0.837659  4.171463
C    -1.700743  0.628182  5.689287
C    -2.299771  1.802985  6.494155
C    -3.832225  1.917868  6.423024
N    -4.525022  0.920357  7.156657
H    -1.284882  1.816404  3.923598
H    -2.754044  0.843673  3.785071
H    -0.658684  0.509610  6.026759
H    -2.230298  -0.298721  5.961608
H    -1.875855  2.756284  6.148787
H    -2.000456  1.706487  7.548518
H    -4.229787  1.947247  5.397805
H    -4.086331  2.922323  6.851228
H    -4.223782  0.672350  8.097486
H    -5.477909  0.660658  6.912707
N    -0.908520  -2.455535  4.461548
C    -1.421828  -3.779728  4.804794
H    -0.077669  -2.120079  4.939882
H    -2.063139  -4.131173  3.990244
H    -2.010462  -3.748013  5.732020
H    -0.578161  -4.464226  4.942530
Hg    2.683553  2.166678  0.666825
