34
Energy: -571608.005534 eV PBE+vdW (tier 2 basis)
C    -0.149018  0.479647  0.051823
C    -0.238435  0.070470  1.473452
O    0.737518  -0.695648  1.922278
H    -0.384109  -0.377931  -0.596940
H    0.891459  0.756833  -0.170099
H    -0.812932  1.316806  -0.182465
N    -1.204213  0.413232  2.295770
C    -2.593226  0.826142  2.116702
C    -2.928984  1.351881  3.547079
O    -2.184305  0.983355  4.479946
H    -1.086520  0.385436  3.353075
H    -2.685632  1.637365  1.381913
C    -3.484834  -0.383455  1.687455
C    -3.098665  -1.782115  2.213279
C    -3.248466  -2.067969  3.724273
C    -2.581016  -3.371727  4.181075
N    -1.131720  -3.198246  4.641924
H    -3.471435  -0.432498  0.589861
H    -4.524314  -0.153343  1.963212
H    -2.071578  -2.015897  1.866363
H    -3.719609  -2.507233  1.667317
H    -4.318544  -2.156632  3.959025
H    -2.893133  -1.234977  4.351301
H    -2.566285  -4.129039  3.387174
H    -3.101635  -3.801396  5.047944
H    -0.682720  -4.117195  4.749442
H    -1.117409  -2.758491  5.571523
N    -3.995272  2.134495  3.678167
C    -4.454016  2.694922  4.951579
H    -4.503114  2.402377  2.839223
H    -4.498324  3.787426  4.876949
H    -3.746556  2.411990  5.734685
H    -5.451266  2.310005  5.196231
Hg    0.020433  -1.964967  3.368737
