34
Energy: -571606.722729 eV PBE+vdW (tier 2 basis)
C    -2.048298  2.127980  2.253470
C    -1.257104  1.049873  2.940514
O    -0.031879  0.971475  2.659640
H    -3.069321  2.226259  2.639178
H    -2.087733  1.902260  1.178796
H    -1.520130  3.082852  2.363842
N    -1.922987  0.260139  3.811362
C    -1.484920  -0.939539  4.551430
C    -0.409051  -0.570090  5.615187
O    0.834313  -0.680586  5.421291
H    -2.906168  0.492865  3.913088
H    -2.367858  -1.231614  5.134645
C    -1.123431  -2.145297  3.672657
C    -0.929702  -3.457160  4.440448
C    -2.232152  -4.189897  4.831267
C    -2.926512  -4.865817  3.636881
N    -3.525481  -3.936752  2.709875
H    -0.228944  -1.947037  3.040305
H    -1.931240  -2.265966  2.921168
H    -0.338897  -3.289490  5.353922
H    -0.320576  -4.133313  3.824207
H    -2.942392  -3.519231  5.342984
H    -1.988380  -4.974300  5.560112
H    -3.706263  -5.541805  4.049927
H    -2.219770  -5.502134  3.088747
H    -3.591352  -4.233715  1.737807
H    -4.370774  -3.461696  3.022961
N    -0.827803  -0.153180  6.807239
C    -2.199273  -0.010579  7.303195
H    -0.074482  0.070352  7.458644
H    -2.143159  0.367924  8.327833
H    -2.722136  -0.975574  7.332298
H    -2.766535  0.714418  6.707093
Hg    1.637427  -0.519072  3.258713
