34
Energy: -571606.996864 eV PBE+vdW (tier 2 basis)
C    0.766718  -0.828025  0.216844
C    0.500404  0.024604  1.424792
O    0.758939  1.253751  1.336420
H    0.060223  -0.543003  -0.575435
H    0.661278  -1.899155  0.423971
H    1.776235  -0.618994  -0.155957
N    -0.004504  -0.583621  2.520752
C    -0.532440  0.063938  3.722986
C    0.618445  0.473824  4.680849
O    1.002651  1.676280  4.764372
H    -0.159363  -1.585088  2.435157
H    -1.001327  1.014882  3.421338
C    -1.617978  -0.813152  4.371309
C    -2.304777  -0.147369  5.572841
C    -3.324957  -1.049642  6.294301
C    -4.661015  -1.258759  5.565576
N    -5.477134  -0.086116  5.530447
H    -1.189646  -1.785788  4.673155
H    -2.351314  -1.042125  3.583084
H    -2.798596  0.782451  5.249074
H    -1.546858  0.150117  6.313335
H    -3.531701  -0.622726  7.287089
H    -2.887809  -2.040347  6.486517
H    -5.200893  -2.076361  6.100415
H    -4.539913  -1.631917  4.537077
H    -6.242360  -0.029612  4.863012
H    -5.622954  0.441378  6.389110
N    1.199139  -0.463817  5.417338
C    2.313528  -0.218026  6.337144
H    0.798535  -1.398095  5.401683
H    1.940598  0.092843  7.321822
H    2.949295  0.575139  5.932283
H    2.888351  -1.142786  6.442639
Hg    0.690580  3.016186  2.879301
