34
Energy: -571606.476106 eV PBE+vdW (tier 2 basis)
C    -0.176686  -0.416133  0.024558
C    -0.169534  -0.319361  1.515515
O    0.917450  -0.489984  2.138264
H    0.142270  0.544674  -0.408144
H    -1.159922  -0.694479  -0.369245
H    0.568512  -1.160165  -0.282254
N    -1.305052  -0.073152  2.214314
C    -2.310360  0.934146  1.863296
C    -1.698227  2.280513  2.325285
O    -0.976701  2.301650  3.362326
H    -1.166956  -0.139126  3.224316
H    -2.458211  0.917076  0.776489
C    -3.632241  0.587741  2.588391
C    -4.825117  1.492068  2.258612
C    -6.183604  0.970786  2.746891
C    -6.335707  0.983995  4.321797
N    -7.628794  0.596256  4.745170
H    -3.429584  0.595725  3.671859
H    -3.866374  -0.452105  2.314982
H    -4.926121  1.584236  1.164359
H    -4.660052  2.511718  2.640741
H    -6.360952  -0.054879  2.393569
H    -6.983128  1.601134  2.336756
H    -6.129241  2.001808  4.680763
H    -5.598390  0.284925  4.746036
H    -8.371438  1.278002  4.876149
H    -7.898963  -0.382278  4.801200
N    -1.923056  3.416479  1.657528
C    -2.777018  3.685122  0.505474
H    -1.442660  4.222286  2.063861
H    -3.028102  2.762521  -0.023825
H    -2.239077  4.349059  -0.181714
H    -3.704375  4.186067  0.814177
Hg    1.241667  1.132938  3.856511
