34
Energy: -571606.65844 eV PBE+vdW (tier 2 basis)
C    0.049982  -0.804089  1.863438
C    -0.423536  -0.645442  3.271327
O    0.371823  -0.905530  4.219204
H    0.598893  0.099880  1.557620
H    -0.774592  -0.993541  1.168034
H    0.765243  -1.634603  1.824207
N    -1.687529  -0.249549  3.554176
C    -2.426549  0.813863  2.876840
C    -1.950331  2.132774  3.540598
O    -1.523387  2.138234  4.723564
H    -1.900426  -0.289845  4.552559
H    -2.155614  0.812017  1.811850
C    -3.942763  0.544729  3.041492
C    -4.879353  1.486698  2.268141
C    -6.332733  1.013558  2.391963
C    -7.321708  1.971735  1.613624
N    -8.670217  1.552423  1.697421
H    -4.187670  0.572530  4.115253
H    -4.104203  -0.490647  2.707693
H    -4.590942  1.512796  1.204464
H    -4.795244  2.514235  2.655098
H    -6.647949  0.984024  3.444350
H    -6.450296  0.001500  1.980552
H    -7.013674  1.988636  0.557473
H    -7.230373  2.980283  2.041715
H    -9.274406  1.848277  2.459428
H    -9.055458  0.866795  1.053213
N    -2.030406  3.256528  2.821578
C    -1.621743  4.573701  3.304924
H    -2.455362  3.205664  1.898954
H    -0.866904  4.450535  4.086577
H    -2.479133  5.115481  3.727615
H    -1.211366  5.148303  2.468315
Hg    0.244738  0.706164  5.966894
