34
Energy: -571606.414667 eV PBE+vdW (tier 2 basis)
C    -1.601594  -1.002269  -0.196066
C    -0.538625  -1.091553  0.844026
O    0.531785  -1.724289  0.573903
H    -2.568624  -0.694510  0.213710
H    -1.703606  -1.990942  -0.666696
H    -1.282171  -0.317194  -0.996080
N    -0.689325  -0.531615  2.067634
C    -1.240846  0.801528  2.330145
C    -0.030393  1.719846  2.642327
O    1.102677  1.570080  2.065556
H    -0.040815  -0.887751  2.770860
H    -1.620628  1.183116  1.368295
C    -2.388381  0.819615  3.342172
C    -2.023525  0.375274  4.767766
C    -2.999651  0.880754  5.844067
C    -3.280468  2.389384  5.809755
N    -2.081404  3.211779  5.724353
H    -3.193790  0.189048  2.940206
H    -2.803744  1.838341  3.333869
H    -1.006393  0.711895  5.024998
H    -1.996129  -0.722439  4.822316
H    -2.606963  0.598568  6.831613
H    -3.970578  0.373455  5.753043
H    -3.850594  2.648097  6.727696
H    -3.944114  2.673742  4.979552
H    -2.276094  4.213475  5.670787
H    -1.397855  3.028744  6.462215
N    -0.187456  2.761143  3.442868
C    0.877844  3.729598  3.713860
H    -1.069458  2.885793  3.981464
H    1.069115  4.344376  2.825243
H    1.805801  3.216361  3.991942
H    0.551329  4.375961  4.532563
Hg    2.231802  -0.360500  1.356013
