34
Energy: -571606.913559 eV PBE+vdW (tier 2 basis)
C    1.126565  2.114247  1.898533
C    0.668188  1.053007  2.855116
O    1.348400  0.648735  3.800726
H    0.593735  3.052164  2.121055
H    0.921031  1.854412  0.852312
H    2.197217  2.284711  2.037783
N    -0.603043  0.540426  2.623261
C    -1.247790  -0.558508  3.286334
C    -1.515858  -0.342969  4.818640
O    -2.734464  -0.516397  5.093016
H    -1.104539  0.930115  1.827468
H    -2.260369  -0.598545  2.861700
C    -0.694733  -2.018090  3.008023
C    0.747867  -2.361115  3.362841
C    1.011241  -3.805220  2.884310
C    2.505346  -4.231449  3.226818
N    2.776110  -5.544294  2.792737
H    -0.864086  -2.164025  1.929833
H    -1.394667  -2.690786  3.526199
H    0.925240  -2.291902  4.445161
H    1.456798  -1.683423  2.871948
H    0.876300  -3.893591  1.797595
H    0.328923  -4.518958  3.366589
H    2.631973  -4.166573  4.316643
H    3.182197  -3.525695  2.726206
H    2.540563  -6.352529  3.363265
H    3.086153  -5.737148  1.843458
N    -0.523472  -0.032989  5.626312
C    -0.631050  0.233799  7.058352
H    0.376729  0.143549  5.138383
H    0.359721  0.524302  7.420269
H    -0.948274  -0.663375  7.605540
H    -1.324248  1.062325  7.257883
Hg    -4.072096  -0.459993  7.125831
