34
Energy: -571606.704088 eV PBE+vdW (tier 2 basis)
C    -0.748978  0.120814  -0.169701
C    -0.556810  -0.144547  1.298509
O    0.611974  -0.433233  1.673046
H    -1.761952  0.458486  -0.416515
H    -0.530598  -0.802439  -0.723578
H    -0.020609  0.873783  -0.494865
N    -1.645571  -0.044398  2.087539
C    -1.832186  -0.370227  3.517004
C    -1.018595  0.589343  4.420145
O    0.096583  0.283428  4.936769
H    -2.496351  0.199043  1.589434
H    -2.885619  -0.122606  3.705712
C    -1.652955  -1.861254  3.852513
C    -2.160805  -2.249678  5.252809
C    -3.687754  -2.432233  5.380721
C    -4.204738  -3.802048  4.906316
N    -3.810310  -4.877339  5.759406
H    -0.594980  -2.156185  3.756014
H    -2.174326  -2.430321  3.068500
H    -1.827332  -1.503259  5.988785
H    -1.668990  -3.186233  5.552130
H    -4.238121  -1.658991  4.823027
H    -3.979908  -2.292878  6.432154
H    -3.893777  -4.042115  3.878726
H    -5.318058  -3.741901  4.868981
H    -3.959028  -4.802914  6.763687
H    -3.782446  -5.827139  5.397952
N    -1.539959  1.778952  4.713794
C    -2.853353  2.320272  4.356782
H    -0.944381  2.358201  5.307258
H    -2.928055  3.324166  4.783924
H    -3.667918  1.714976  4.775913
H    -2.965014  2.404611  3.268932
Hg    1.649409  -0.898557  3.694746
