34
Energy: -571606.627757 eV PBE+vdW (tier 2 basis)
C    -0.329492  1.193243  0.009516
C    -0.283332  0.695040  1.420939
O    0.799826  0.540165  2.072207
H    0.059798  2.221702  -0.022005
H    -1.343032  1.195391  -0.404647
H    0.312163  0.564008  -0.621075
N    -1.432974  0.383819  2.025561
C    -1.528550  -0.171914  3.378002
C    -2.347477  -1.482960  3.230233
O    -3.440351  -1.384823  2.657527
H    -2.298510  0.391644  1.483740
H    -0.504129  -0.392460  3.705565
C    -2.208420  0.834694  4.328207
C    -2.757937  0.272550  5.662344
C    -4.278269  0.076329  5.608463
C    -4.822490  -0.440558  7.018035
N    -6.225260  -0.547693  7.046580
H    -3.012281  1.346816  3.779385
H    -1.457902  1.607676  4.548427
H    -2.514372  0.983060  6.463431
H    -2.255336  -0.668382  5.933114
H    -4.584667  -0.647751  4.842378
H    -4.780715  1.029154  5.392570
H    -4.493449  0.289999  7.772638
H    -4.371651  -1.422487  7.215416
H    -6.815459  0.258285  7.240316
H    -6.703509  -1.404197  6.777912
N    -1.857665  -2.632070  3.715373
C    -0.547093  -2.873714  4.323215
H    -2.445197  -3.444010  3.531280
H    0.267340  -2.746684  3.597986
H    -0.528145  -3.909329  4.675085
H    -0.376534  -2.223639  5.189542
Hg    2.886273  1.499779  1.393992
