34
Energy: -571608.34748 eV PBE+vdW (tier 2 basis)
C    -0.091398  -0.666318  0.874356
C    -0.563171  -0.779285  2.292447
O    0.007058  -1.550159  3.095298
H    -0.677624  0.030705  0.266259
H    -0.115028  -1.660072  0.408296
H    0.958825  -0.344537  0.879049
N    -1.624847  -0.013828  2.653759
C    -2.253170  0.087934  3.977780
C    -1.210917  0.527040  5.035484
O    -0.549080  -0.278845  5.793314
H    -2.027815  0.570484  1.928061
H    -2.918206  0.951540  3.868815
C    -3.185702  -1.087617  4.448991
C    -3.626655  -2.162879  3.432114
C    -2.761213  -3.419186  3.179691
C    -2.534989  -4.370376  4.371964
N    -1.118279  -4.324761  4.927057
H    -4.096563  -0.594429  4.814386
H    -2.799808  -1.558279  5.372129
H    -3.814042  -1.688577  2.458579
H    -4.614487  -2.509644  3.768428
H    -1.793157  -3.168772  2.721188
H    -3.286314  -3.997178  2.407174
H    -2.704076  -5.414710  4.077034
H    -3.208733  -4.155560  5.211468
H    -0.457172  -4.707926  4.240140
H    -1.041738  -4.910037  5.767554
N    -0.981088  1.814484  5.212082
C    -1.609393  2.960916  4.543531
H    -0.269417  2.023834  5.914643
H    -1.410131  2.945697  3.465519
H    -1.167443  3.869857  4.960505
H    -2.689319  2.990127  4.734805
Hg    -0.563897  -2.311210  5.303445
