34
Energy: -571606.688822 eV PBE+vdW (tier 2 basis)
C    0.469792  0.226412  0.212600
C    0.159268  -0.092276  1.640592
O    1.064562  -0.388012  2.480357
H    0.997052  1.191630  0.175219
H    -0.409873  0.290706  -0.432748
H    1.144874  -0.540597  -0.186435
N    -1.098122  -0.095339  2.117601
C    -2.371545  -0.040697  1.385586
C    -3.349373  0.676218  2.360372
O    -3.681945  0.093806  3.406561
H    -1.174891  -0.337200  3.108896
H    -2.239807  0.580301  0.489912
C    -2.850893  -1.446922  0.983516
C    -4.162934  -1.534296  0.193599
C    -5.499275  -1.364006  0.956886
C    -5.774382  -2.443742  2.003727
N    -5.058372  -2.319046  3.214186
H    -2.883920  -2.085035  1.882822
H    -2.050535  -1.877715  0.360936
H    -4.177673  -2.512149  -0.308438
H    -4.163635  -0.791893  -0.621425
H    -6.309461  -1.418332  0.218013
H    -5.586535  -0.369950  1.418173
H    -5.672186  -3.474107  1.612964
H    -6.872204  -2.391045  2.245893
H    -4.665803  -1.411446  3.509409
H    -4.995186  -3.105487  3.858586
N    -3.761246  1.897376  2.012871
C    -4.681534  2.703812  2.817089
H    -3.435901  2.286084  1.132943
H    -4.349272  3.747183  2.801070
H    -4.675919  2.329790  3.844690
H    -5.701005  2.648006  2.413577
Hg    3.374097  0.123945  2.350292
