34
Energy: -571606.674545 eV PBE+vdW (tier 2 basis)
C    -0.108098  2.067015  0.333547
C    0.132033  0.921345  1.262306
O    1.323000  0.622953  1.567244
H    -0.069886  3.010643  0.899328
H    -1.066620  1.985506  -0.189548
H    0.710888  2.106353  -0.395074
N    -0.892863  0.190875  1.761726
C    -2.150814  0.733739  2.271549
C    -1.891130  1.079198  3.764375
O    -0.926773  0.568675  4.392871
H    -0.577297  -0.619904  2.297561
H    -2.379871  1.657287  1.721229
C    -3.305508  -0.279899  2.115860
C    -3.645175  -0.610109  0.656031
C    -4.737774  -1.688276  0.566340
C    -5.072371  -2.100663  -0.883151
N    -5.804774  -1.127723  -1.615983
H    -4.194601  0.122931  2.623299
H    -3.037995  -1.197643  2.665037
H    -2.739507  -0.960226  0.136479
H    -3.977540  0.299684  0.130568
H    -5.658677  -1.352713  1.068585
H    -4.415885  -2.597999  1.092841
H    -5.682362  -3.034362  -0.804323
H    -4.176777  -2.379431  -1.455517
H    -5.707247  -1.059785  -2.625931
H    -6.659289  -0.732369  -1.228830
N    -2.752376  1.901006  4.367746
C    -2.662298  2.305535  5.769535
H    -3.573909  2.202084  3.848370
H    -3.049699  3.324468  5.869390
H    -1.617731  2.263647  6.090567
H    -3.254398  1.631208  6.403902
Hg    1.541500  0.172246  3.888237
