34
Energy: -571606.741927 eV PBE+vdW (tier 2 basis)
C    0.170151  -0.394118  0.098435
C    0.182570  -0.366469  1.599045
O    1.129572  -0.958559  2.193814
H    -0.762590  -0.017895  -0.335423
H    0.339138  -1.425119  -0.237348
H    1.013658  0.205553  -0.271493
N    -0.834558  0.263528  2.215608
C    -1.213523  0.342174  3.639060
C    -0.459521  1.469390  4.356899
O    0.775018  1.679621  4.165353
H    -1.501154  0.697395  1.582626
H    -2.267475  0.640031  3.587930
C    -1.180498  -1.032079  4.392366
C    -0.205573  -1.262669  5.535070
C    -0.411469  -2.597345  6.259771
C    -1.713894  -2.646566  7.105576
N    -2.922385  -2.680301  6.337037
H    -1.083511  -1.827835  3.642088
H    -2.188421  -1.191048  4.835453
H    -0.210057  -0.431402  6.256507
H    0.864773  -1.315626  5.154552
H    0.419908  -2.772175  6.954214
H    -0.403555  -3.431615  5.542354
H    -1.759546  -1.805611  7.810229
H    -1.614657  -3.568488  7.717737
H    -3.097428  -3.520889  5.788063
H    -3.765519  -2.324506  6.782269
N    -1.123645  2.264239  5.196334
C    -2.566223  2.352095  5.438602
H    -0.536660  2.976234  5.634317
H    -3.082515  2.853942  4.609185
H    -2.720689  2.944278  6.345366
H    -3.001807  1.360262  5.604528
Hg    2.274022  -0.081040  3.981140
