34
Energy: -571606.772103 eV PBE+vdW (tier 2 basis)
C    0.064197  -0.608968  -0.100737
C    -0.150433  -0.458821  1.377520
O    0.829507  -0.103107  2.083025
H    0.214372  0.389043  -0.536354
H    -0.778965  -1.097350  -0.602816
H    0.982271  -1.181766  -0.275984
N    -1.384995  -0.716827  1.865191
C    -1.828630  -0.463860  3.232247
C    -1.231618  -1.477152  4.243229
O    -0.444769  -1.055341  5.144959
H    -2.097135  -0.956105  1.179755
H    -1.395986  0.498052  3.553475
C    -3.365446  -0.333916  3.293277
C    -3.939744  -0.107438  4.702980
C    -3.785353  1.314628  5.278170
C    -4.822438  2.325986  4.754639
N    -6.143414  2.075119  5.233493
H    -3.825542  -1.231793  2.858482
H    -3.637429  0.498230  2.625209
H    -3.489364  -0.822141  5.408644
H    -5.008444  -0.363559  4.676282
H    -2.785287  1.726628  5.076665
H    -3.863357  1.269489  6.374460
H    -4.854608  2.374936  3.656131
H    -4.491257  3.339278  5.083560
H    -6.948074  2.410778  4.710687
H    -6.301738  1.933889  6.229060
N    -1.529570  -2.773945  4.230093
C    -2.497198  -3.519623  3.426165
H    -1.055651  -3.300743  4.966351
H    -2.171024  -4.564485  3.398675
H    -2.529415  -3.147626  2.399000
H    -3.499632  -3.482865  3.873216
Hg    1.138171  0.480472  4.356927
