34
Energy: -571606.61056 eV PBE+vdW (tier 2 basis)
C    -0.015161  -0.443060  -0.148786
C    -0.427048  -0.693894  1.275938
O    0.548582  -0.574244  2.274590
H    0.538121  0.500246  -0.222057
H    -0.897866  -0.399486  -0.796492
H    0.625298  -1.258866  -0.504835
N    -1.291045  0.253683  1.934293
C    -2.339805  -0.363533  2.705267
C    -2.138265  -1.827502  2.332705
O    -1.156268  -1.929612  1.384350
H    -1.022920  1.233024  2.022418
H    -2.177981  -0.229951  3.788269
C    -3.703078  0.304512  2.331696
C    -4.893156  -0.181004  3.179691
C    -5.679724  -1.357851  2.563710
C    -6.225229  -2.358062  3.573516
N    -5.086741  -3.013496  4.348223
H    -3.894217  0.163083  1.259160
H    -3.562375  1.382909  2.489324
H    -5.572780  0.669784  3.319558
H    -4.531184  -0.416190  4.193676
H    -5.063361  -1.899977  1.833070
H    -6.536583  -0.972790  1.994551
H    -6.772867  -3.161294  3.068544
H    -6.900089  -1.897936  4.304993
H    -4.950152  -2.571268  5.263060
H    -5.282880  -4.003926  4.528814
N    -2.766762  -2.824845  2.807015
C    -2.430630  -4.180031  2.361267
H    -4.154509  -2.922671  3.792419
H    -2.477180  -4.857941  3.222310
H    -1.439015  -4.252030  1.901427
H    -3.175282  -4.518287  1.625776
Hg    2.455295  -1.621931  2.177902
