34
Energy: -571606.427189 eV PBE+vdW (tier 2 basis)
C    1.487063  1.013461  1.231721
C    1.898222  0.107064  2.341900
O    3.105149  -0.179301  2.589621
H    0.410507  1.004585  1.039747
H    2.012613  0.704614  0.317583
H    1.818074  2.036718  1.459626
N    1.006419  -0.463804  3.192016
C    -0.369342  -0.077037  3.528068
C    -1.321676  -0.643198  2.400682
O    -1.687875  0.110736  1.500629
H    1.454405  -1.117744  3.837059
H    -0.588876  -0.620966  4.456803
C    -0.584418  1.427537  3.775740
C    -1.794090  1.788243  4.654043
C    -3.179324  1.604293  4.010583
C    -4.307680  2.153415  4.912227
N    -4.346512  3.568580  5.000953
H    -0.648059  1.957111  2.816701
H    0.313676  1.788964  4.298603
H    -1.680170  2.848372  4.929484
H    -1.742438  1.230768  5.603786
H    -3.407984  0.544681  3.829935
H    -3.222307  2.095750  3.026833
H    -4.278594  1.733577  5.927380
H    -5.266660  1.792560  4.462486
H    -4.659555  4.033488  5.849763
H    -4.317991  4.142668  4.160519
N    -1.683601  -1.935092  2.486018
C    -1.355686  -2.913250  3.522914
H    -2.306976  -2.237110  1.738920
H    -0.275405  -3.094689  3.585557
H    -1.831348  -3.859730  3.249487
H    -1.745044  -2.619434  4.506742
Hg    4.921765  -0.380298  1.022352
