34
Energy: -571606.49573 eV PBE+vdW (tier 2 basis)
C    -0.752320  -0.084003  -0.607650
C    -0.313571  0.177226  0.810574
O    0.949472  0.245020  0.976127
H    -1.197428  0.832261  -1.022399
H    -1.489697  -0.895600  -0.643836
H    0.114533  -0.354563  -1.216224
N    -1.192646  0.329751  1.788721
C    -2.660169  0.316879  1.727721
C    -3.060332  1.278638  2.874782
O    -2.309997  1.370977  3.850467
H    -0.878492  0.577993  2.738914
H    -2.993690  0.694811  0.751527
C    -3.184180  -1.118301  2.005331
C    -4.704736  -1.355658  1.942948
C    -5.282883  -1.385922  0.523269
C    -6.779947  -1.909836  0.556381
N    -7.358428  -2.023251  -0.728127
H    -2.834497  -1.398315  3.010686
H    -2.678159  -1.799929  1.305016
H    -5.242565  -0.623365  2.563529
H    -4.882073  -2.330163  2.420791
H    -4.705984  -2.066237  -0.119546
H    -5.286359  -0.397322  0.040935
H    -7.372995  -1.212585  1.165192
H    -6.766114  -2.899397  1.036693
H    -7.255518  -2.867849  -1.284844
H    -7.876184  -1.259511  -1.154293
N    -4.230939  1.941592  2.767050
C    -4.715382  2.859781  3.791230
H    -4.721334  1.916438  1.877840
H    -4.397387  3.890925  3.576642
H    -4.300546  2.561744  4.759043
H    -5.809947  2.827018  3.817650
Hg    2.198632  0.875981  2.822010
