34
Energy: -571606.554416 eV PBE+vdW (tier 2 basis)
C    -0.961559  -1.197882  1.340243
C    -1.827154  -1.597820  2.505408
O    -2.049447  -2.841646  2.626849
H    0.038774  -0.927255  1.711220
H    -1.386607  -0.342800  0.800679
H    -0.855204  -2.044500  0.656628
N    -2.317486  -0.687872  3.347565
C    -2.033642  0.742800  3.398986
C    -2.109874  1.083300  4.909159
O    -2.780900  0.354735  5.645762
H    -2.816311  -0.997811  4.193355
H    -1.027159  0.931697  3.002486
C    -3.064067  1.601330  2.587951
C    -4.466779  1.666761  3.188051
C    -5.564080  2.193635  2.245263
C    -5.463523  3.709129  1.929635
N    -4.450960  4.060597  0.998855
H    -3.100245  1.173368  1.573756
H    -2.632137  2.608489  2.487407
H    -4.463266  2.257722  4.116221
H    -4.796433  0.656266  3.485010
H    -6.542259  2.037607  2.718032
H    -5.581243  1.624779  1.302789
H    -5.348460  4.313371  2.838617
H    -6.461174  3.971781  1.499590
H    -4.463534  3.651741  0.066334
H    -3.981626  4.960348  1.069387
N    -1.465056  2.191063  5.325396
C    -1.440197  2.614528  6.720454
H    -0.849135  2.669456  4.672979
H    -1.402467  3.708519  6.763119
H    -0.556676  2.211511  7.237544
H    -2.338058  2.239065  7.221319
Hg    -2.760639  -4.147635  4.455295
