34
Energy: -571606.898087 eV PBE+vdW (tier 2 basis)
C    0.890291  0.444952  0.493631
C    -0.060935  1.075697  1.468514
O    0.444730  1.384508  2.597744
H    0.353620  -0.000120  -0.351782
H    1.487361  -0.319024  1.004497
H    1.584866  1.214231  0.126597
N    -1.334388  1.240877  1.090609
C    -2.339085  2.054650  1.776012
C    -2.892073  1.359375  3.055928
O    -2.535174  1.732133  4.218195
H    -1.528776  1.033977  0.064572
H    -1.864667  2.983033  2.151629
C    -3.449954  2.463725  0.800283
C    -2.921104  3.338453  -0.363727
C    -3.404570  2.892932  -1.754946
C    -3.155232  1.424969  -2.098078
N    -1.787139  0.977669  -1.779044
H    -4.224551  2.997878  1.365331
H    -3.931091  1.556388  0.400450
H    -1.820661  3.352817  -0.351097
H    -3.225197  4.379968  -0.201773
H    -2.914978  3.536940  -2.501531
H    -4.482100  3.081670  -1.864366
H    -3.377004  1.269830  -3.170196
H    -3.853233  0.758267  -1.566903
H    -1.088363  1.574215  -2.230563
H    -1.631697  0.025246  -2.117915
N    -3.785620  0.396576  2.922179
C    -4.418693  -0.315704  4.037020
H    -4.134420  0.208337  1.984890
H    -5.313636  0.223692  4.374628
H    -3.711954  -0.391836  4.868793
H    -4.705827  -1.313218  3.691172
Hg    -0.443748  2.598893  4.262246
