34
Energy: -571607.183368 eV PBE+vdW (tier 2 basis)
C    -0.537917  1.388227  0.017027
C    -0.154239  0.923708  1.403818
O    0.983198  0.446066  1.593423
H    -0.170226  2.420271  -0.097365
H    -1.617920  1.372927  -0.159647
H    -0.012963  0.779558  -0.726470
N    -1.062900  0.965549  2.431853
C    -2.001964  2.037144  2.671346
C    -1.507794  2.962088  3.851047
O    -0.645994  2.598437  4.694696
H    -2.036583  -0.786241  2.290642
H    -2.033138  2.699205  1.790346
C    -3.424082  1.502922  2.952737
C    -3.579758  0.625119  4.222525
C    -4.241911  -0.747126  3.998801
C    -3.309034  -1.887445  3.613920
N    -2.615069  -1.664262  2.275936
H    -3.733395  0.957612  2.047520
H    -4.120346  2.348229  3.007053
H    -4.186935  1.174840  4.951276
H    -2.610287  0.476688  4.723276
H    -5.067626  -0.667389  3.273440
H    -4.716394  -1.075910  4.934783
H    -3.849827  -2.837403  3.526807
H    -2.503963  -2.019345  4.348596
H    -1.999468  -2.454938  2.042987
H    -3.304197  -1.583124  1.516611
N    -2.056573  4.168079  3.973936
C    -3.052797  4.845511  3.143457
H    -1.722671  4.686244  4.787452
H    -4.063912  4.715212  3.550544
H    -3.024940  4.489000  2.109227
H    -2.815389  5.914725  3.135250
Hg    0.561720  0.695406  4.016824
