34
Energy: -571607.721932 eV PBE+vdW (tier 2 basis)
C    -0.631516  -1.326291  0.291729
C    -0.965043  -1.039683  1.709892
O    -0.452083  -1.869895  2.602559
H    -0.883717  -0.496336  -0.374780
H    -1.145757  -2.240503  -0.039297
H    0.445669  -1.536253  0.223181
N    -1.701053  -0.028631  2.107900
C    -2.666067  0.855473  1.435406
C    -2.879277  1.954537  2.519509
O    -2.612986  1.647441  3.697725
H    -1.722742  0.266657  3.118085
H    -2.233139  1.273927  0.516959
C    -4.009561  0.136688  1.093800
C    -4.907972  -0.333289  2.265575
C    -4.144849  -1.282215  3.194556
C    -4.791864  -2.079732  4.328749
N    -3.675516  -2.774162  5.120156
H    -3.775743  -0.717733  0.439161
H    -4.591426  0.831888  0.472979
H    -5.783982  -0.834339  1.829919
H    -5.283245  0.526067  2.838681
H    -3.396377  -0.642423  3.694732
H    -3.646173  -2.023584  2.536926
H    -5.467949  -2.861098  3.964036
H    -5.333657  -1.432864  5.028948
H    -3.607993  -2.395185  6.072114
H    -3.856019  -3.779899  5.220477
N    -3.375759  3.122368  2.117037
C    -3.670611  4.241031  3.015338
H    -3.512625  3.272222  1.121254
H    -4.735002  4.498042  2.959133
H    -3.073433  5.114205  2.727882
H    -3.415469  3.946306  4.036126
Hg    -1.785668  -2.432380  4.086797
