34
Energy: -571606.787733 eV PBE+vdW (tier 2 basis)
C    -0.272712  0.456156  -0.204055
C    -0.156674  0.157390  1.262094
O    0.992149  -0.005680  1.748584
H    0.074657  1.484453  -0.379974
H    -1.299085  0.355450  -0.575632
H    0.391771  -0.212347  -0.763360
N    -1.298731  0.074952  1.982982
C    -1.364861  -0.031032  3.437880
C    -0.891787  -1.419397  3.934307
O    0.120804  -1.490391  4.692362
H    -2.160557  0.293079  1.488647
H    -0.618983  0.662466  3.863170
C    -2.743555  0.432835  3.953744
C    -2.854019  0.682327  5.470335
C    -3.063139  -0.560330  6.345015
C    -3.406504  -0.131131  7.820885
N    -3.655134  -1.226064  8.688977
H    -3.537921  -0.250438  3.621258
H    -2.933750  1.393286  3.449825
H    -3.712615  1.355559  5.608408
H    -1.975908  1.248685  5.818475
H    -2.171877  -1.201968  6.383954
H    -3.899108  -1.166448  5.965543
H    -4.303054  0.506992  7.779880
H    -2.566729  0.458331  8.215320
H    -2.930083  -1.610804  9.286250
H    -4.583074  -1.627684  8.784188
N    -1.520141  -2.548517  3.610252
C    -2.768308  -2.767235  2.882050
H    -1.079825  -3.380030  4.007758
H    -2.699981  -3.740113  2.383202
H    -2.920529  -2.003747  2.116327
H    -3.628339  -2.788493  3.564812
Hg    1.901349  -0.114961  3.944194
