34
Energy: -571606.616028 eV PBE+vdW (tier 2 basis)
C    0.434976  -0.208268  0.519396
C    0.083485  -0.338996  1.978702
O    1.065528  -0.564285  2.756409
H    0.343349  0.845262  0.216338
H    -0.229955  -0.821973  -0.101201
H    1.469834  -0.524082  0.363243
N    -1.170560  -0.221258  2.400958
C    -2.371508  0.103193  1.628422
C    -3.231040  0.917430  2.629078
O    -3.116860  0.672690  3.833551
H    -1.378661  -0.234595  3.409711
H    -2.099432  0.707681  0.752081
C    -3.095139  -1.202022  1.189309
C    -4.337882  -1.011162  0.311937
C    -4.847961  -2.373052  -0.193244
C    -6.083086  -2.259401  -1.119153
N    -7.290990  -1.931165  -0.453698
H    -3.351758  -1.770256  2.095966
H    -2.350659  -1.804366  0.645349
H    -4.096697  -0.368910  -0.551238
H    -5.139606  -0.507879  0.872992
H    -5.090026  -3.033253  0.653886
H    -4.064160  -2.884123  -0.769632
H    -6.190372  -3.268779  -1.589409
H    -5.924557  -1.556272  -1.947729
H    -8.005150  -1.371291  -0.912696
H    -7.600305  -2.474741  0.349841
N    -4.076516  1.837535  2.123337
C    -4.924770  2.676688  2.962126
H    -4.023527  2.051882  1.131535
H    -4.427249  3.629877  3.194022
H    -5.126622  2.151420  3.900748
H    -5.859813  2.888545  2.432467
Hg    1.275908  -0.388265  5.071339
