34
Energy: -571606.681332 eV PBE+vdW (tier 2 basis)
C    -0.175746  -1.268292  0.416725
C    -0.263376  -0.937689  1.871654
O    0.564712  -1.385856  2.720893
H    -1.047361  -0.961266  -0.167173
H    -0.022566  -2.347553  0.298028
H    0.708228  -0.761286  -0.001022
N    -1.239423  -0.156866  2.373262
C    -2.473820  0.281653  1.760389
C    -2.917807  1.502557  2.615529
O    -2.665512  1.488823  3.821556
H    -1.174878  0.071212  3.374650
H    -2.279819  0.559066  0.717510
C    -3.629421  -0.777583  1.775485
C    -4.013276  -1.325542  3.147541
C    -5.166279  -2.338758  3.016054
C    -5.542216  -2.971596  4.382711
N    -6.183083  -2.083705  5.279789
H    -3.303985  -1.593805  1.109749
H    -4.501137  -0.315929  1.288303
H    -4.323551  -0.518983  3.831560
H    -3.144335  -1.810856  3.619072
H    -4.892786  -3.161679  2.340562
H    -6.058599  -1.860999  2.584085
H    -4.675706  -3.425761  4.878973
H    -6.240138  -3.804864  4.126053
H    -7.042607  -1.608705  5.012472
H    -5.968196  -2.091355  6.273174
N    -3.591759  2.502561  2.012243
C    -3.822314  2.727464  0.588713
H    -3.794471  3.280748  2.640836
H    -4.081005  1.795696  0.074348
H    -2.948462  3.184921  0.102472
H    -4.667755  3.415708  0.485696
Hg    2.903231  -1.675243  2.371016
