34
Energy: -571606.825238 eV PBE+vdW (tier 2 basis)
C    -1.167797  -0.349909  -0.198046
C    -0.945052  0.431402  1.056558
O    -0.346980  1.548252  1.063914
H    -1.546606  -1.362585  -0.036468
H    -0.231810  -0.398819  -0.767194
H    -1.900953  0.191255  -0.816569
N    -1.354925  -0.013622  2.260851
C    -1.802769  -1.326252  2.658232
C    -2.545549  -1.090872  4.005889
O    -2.185839  -0.165507  4.730637
H    -1.234010  0.630850  3.055404
H    -2.477883  -1.727820  1.889215
C    -0.660794  -2.384408  2.878389
C    0.387565  -2.011355  3.928309
C    1.452491  -3.115700  4.006587
C    2.555724  -2.744272  5.087845
N    3.546975  -3.741600  5.199261
H    -0.191775  -2.541773  1.893714
H    -1.148950  -3.333945  3.141494
H    -0.077585  -1.877608  4.915715
H    0.860420  -1.051525  3.670772
H    1.956194  -3.259635  3.040477
H    1.006935  -4.076772  4.298511
H    2.039242  -2.626008  6.052611
H    3.021475  -1.794132  4.794942
H    3.398676  -4.577791  5.758735
H    4.395885  -3.715859  4.640634
N    -3.534553  -1.959462  4.297224
C    -4.384823  -1.817991  5.474418
H    -3.804109  -2.646185  3.597704
H    -4.670460  -2.815216  5.827531
H    -5.297720  -1.252966  5.236440
H    -3.829718  -1.278682  6.248175
Hg    -0.575988  3.269283  -0.578444
