34
Energy: -571606.714104 eV PBE+vdW (tier 2 basis)
C    -1.369316  -0.145474  -0.242771
C    -1.013926  -0.260037  1.213248
O    0.041719  -0.890775  1.504693
H    -2.391903  0.208471  -0.414318
H    -1.231783  -1.122700  -0.721361
H    -0.660476  0.544784  -0.722175
N    -1.858259  0.309185  2.094767
C    -1.936873  0.229565  3.565537
C    -1.005889  1.245097  4.246634
O    0.190537  1.448863  3.877847
H    -2.624248  0.817091  1.662378
H    -2.965065  0.545095  3.787817
C    -1.764022  -1.177224  4.187611
C    -2.931378  -2.164291  3.983119
C    -3.033069  -2.822886  2.602622
C    -4.063889  -4.012644  2.647221
N    -4.205166  -4.689518  1.407616
H    -1.656925  -1.017977  5.271847
H    -0.824401  -1.638111  3.855264
H    -3.881923  -1.668748  4.237748
H    -2.797341  -2.953051  4.738680
H    -2.058828  -3.224746  2.287591
H    -3.370134  -2.119191  1.829073
H    -5.042295  -3.621337  2.956856
H    -3.707615  -4.723822  3.410547
H    -3.565546  -5.428588  1.132065
H    -4.996432  -4.522296  0.794441
N    -1.473498  1.958359  5.270039
C    -2.844137  2.046616  5.781407
H    -0.779437  2.577940  5.691055
H    -3.521178  2.494244  5.041604
H    -2.830700  2.694043  6.662599
H    -3.217607  1.062027  6.088062
Hg    1.597164  -0.206210  3.093304
