34
Energy: -571606.404334 eV PBE+vdW (tier 2 basis)
C    0.045278  1.680991  0.461458
C    -0.347661  0.551512  1.349535
O    0.478954  0.105066  2.200683
H    -0.490294  1.669287  -0.493475
H    1.127654  1.636440  0.288774
H    -0.147520  2.631836  0.984833
N    -1.580032  -0.014968  1.274019
C    -2.846263  0.707279  1.153360
C    -2.958049  1.741170  2.296117
O    -2.313362  1.627721  3.381134
H    -1.638242  -0.911963  1.751421
H    -2.865158  1.237014  0.189003
C    -4.034463  -0.286201  1.177475
C    -4.464472  -0.903997  2.525913
C    -3.555367  -1.948813  3.182101
C    -4.263799  -2.855616  4.270449
N    -5.092122  -3.821546  3.654073
H    -3.814908  -1.072355  0.438090
H    -4.905377  0.251783  0.779563
H    -5.431423  -1.385367  2.316851
H    -4.692897  -0.112810  3.256795
H    -2.731426  -1.473506  3.793385
H    -3.072582  -2.607391  2.442771
H    -4.857475  -2.205525  4.929587
H    -3.486633  -3.355668  4.862158
H    -4.738508  -4.741880  3.408554
H    -6.058085  -3.628333  3.408219
N    -3.787250  2.761452  2.106920
C    -4.062588  3.805878  3.097814
H    -4.206802  2.868696  1.186231
H    -5.088380  4.160375  2.958564
H    -3.369915  4.648002  2.971184
H    -3.942966  3.393146  4.103372
Hg    -0.841306  -0.136527  4.141437
