34
Energy: -571606.818069 eV PBE+vdW (tier 2 basis)
C    -0.465797  2.054214  1.798099
C    -0.686517  0.590267  2.066126
O    0.248542  -0.188425  1.731229
H    -1.327935  2.676320  2.063172
H    -0.237558  2.186302  0.732273
H    0.416877  2.387428  2.359441
N    -1.856940  0.242934  2.637965
C    -2.505214  -1.072630  2.850709
C    -1.910335  -1.816336  4.067245
O    -0.858873  -2.522486  4.027891
H    -2.446943  1.038439  2.861334
H    -3.531280  -0.804972  3.140479
C    -2.609578  -1.954972  1.590649
C    -3.426961  -1.327063  0.446871
C    -4.959590  -1.396840  0.603706
C    -5.579547  -2.746127  0.199666
N    -5.519194  -2.993289  -1.206076
H    -3.043252  -2.917037  1.904036
H    -1.605933  -2.195405  1.208384
H    -3.144160  -1.825466  -0.491073
H    -3.127759  -0.276489  0.318678
H    -5.419349  -0.604235  -0.005381
H    -5.273176  -1.182727  1.636952
H    -6.643300  -2.736869  0.534938
H    -5.120085  -3.598699  0.721942
H    -5.842583  -2.278779  -1.854958
H    -5.577700  -3.946553  -1.554346
N    -2.577812  -1.721366  5.211856
C    -2.158304  -2.363320  6.461105
H    -3.463438  -1.223255  5.213638
H    -2.641901  -1.847203  7.295041
H    -1.070373  -2.294972  6.560633
H    -2.451198  -3.421145  6.467655
Hg    0.741340  -2.341576  2.385088
