34
Energy: -571606.919893 eV PBE+vdW (tier 2 basis)
C    1.129550  0.377684  0.613955
C    0.667717  0.301437  2.040519
O    1.500431  0.539986  2.950985
H    2.061534  -0.189954  0.507338
H    1.358512  1.425342  0.373633
H    0.384043  -0.000380  -0.094996
N    -0.625653  -0.027252  2.269000
C    -1.279844  0.006196  3.570851
C    -0.830710  -1.161326  4.491227
O    -0.196772  -0.894994  5.555508
H    -1.208154  -0.175424  1.449443
H    -0.915438  0.899549  4.105908
C    -2.810190  0.137786  3.454587
C    -3.268441  1.557056  3.076230
C    -4.795648  1.634775  2.928830
C    -5.305404  3.041034  2.552541
N    -5.219004  3.992605  3.611187
H    -3.246038  -0.139459  4.426021
H    -3.197469  -0.592539  2.728285
H    -2.793289  1.871456  2.132784
H    -2.933810  2.270344  3.845852
H    -5.288181  1.309181  3.858753
H    -5.137657  0.945076  2.143772
H    -6.371529  2.918157  2.247284
H    -4.787412  3.443942  1.671109
H    -5.658748  3.788847  4.506211
H    -5.120610  4.981221  3.395652
N    -1.112159  -2.435109  4.229410
C    -1.941406  -3.027160  3.180823
H    -0.761963  -3.078110  4.941949
H    -1.596651  -4.054610  3.024321
H    -1.831656  -2.486832  2.237022
H    -2.997945  -3.057555  3.477796
Hg    1.420037  0.783995  5.327942
