34
Energy: -571606.835449 eV PBE+vdW (tier 2 basis)
C    -0.433817  -0.643351  0.125808
C    -0.300854  -0.728694  1.621469
O    0.516170  -1.580521  2.071992
H    -1.282888  -0.032076  -0.199539
H    -0.533113  -1.657000  -0.281733
H    0.496297  -0.225243  -0.284247
N    -1.066315  0.105866  2.351077
C    -1.346405  0.173172  3.802123
C    -0.259513  0.964015  4.556784
O    0.955630  0.608133  4.634367
H    -1.612831  0.753100  1.790617
H    -2.261386  0.779993  3.862433
C    -1.673708  -1.169662  4.495126
C    -3.086513  -1.732607  4.242883
C    -3.343218  -2.339101  2.857102
C    -4.736854  -3.010675  2.761532
N    -4.861080  -4.198868  3.540042
H    -1.580677  -0.988873  5.577168
H    -0.927007  -1.936496  4.244720
H    -3.831527  -0.948095  4.454044
H    -3.255279  -2.512062  5.000521
H    -2.568337  -3.082384  2.609557
H    -3.310325  -1.575652  2.067133
H    -4.903864  -3.247712  1.686732
H    -5.533670  -2.314235  3.053651
H    -5.739050  -4.419843  4.001294
H    -4.253551  -4.993911  3.357476
N    -0.643883  2.078227  5.168083
C    0.246252  2.926699  5.965944
H    -1.598613  2.398452  5.031185
H    -0.361660  3.500679  6.670882
H    0.801714  3.616536  5.317576
H    0.957557  2.298726  6.511174
Hg    1.757496  -1.453349  4.022977
