34
Energy: -571606.943506 eV PBE+vdW (tier 2 basis)
C    -0.003502  1.181472  -0.350877
C    0.218536  0.777927  1.073505
O    1.319545  1.168597  1.594424
H    0.034615  2.275851  -0.429595
H    -0.946490  0.804699  -0.761562
H    0.829255  0.790750  -0.954309
N    -0.734808  0.052789  1.686901
C    -0.717503  -0.873550  2.857508
C    -1.130629  -0.238113  4.197114
O    -0.546545  0.783028  4.743558
H    -1.566054  -0.061073  1.112046
H    -1.528939  -1.570720  2.614227
C    0.553258  -1.739758  2.992544
C    0.328367  -2.984499  3.864550
C    -0.656547  -4.036099  3.283242
C    -1.884234  -4.345240  4.144509
N    -2.947154  -3.312113  4.073693
H    1.400491  -1.166860  3.413858
H    0.870854  -2.030601  1.980229
H    0.013977  -2.683387  4.875160
H    1.310158  -3.454455  4.002207
H    -0.115947  -4.981829  3.150802
H    -0.982198  -3.762296  2.264861
H    -1.595011  -4.456481  5.198359
H    -2.299465  -5.317077  3.828391
H    -3.406110  -3.330654  3.158063
H    -3.682459  -3.518082  4.756257
N    -2.111071  -0.812975  4.844376
C    -2.558903  -0.399317  6.176436
H    -2.501418  -1.754762  4.452308
H    -3.250834  -1.157771  6.552995
H    -3.081889  0.563454  6.120152
H    -1.709290  -0.298317  6.862407
Hg    1.278943  1.400464  3.767661
