34
Energy: -571606.830154 eV PBE+vdW (tier 2 basis)
C    -0.303649  1.077563  -0.001418
C    -0.181777  0.754280  1.459667
O    0.902920  0.713877  2.047265
H    0.322266  1.950169  -0.221984
H    -1.333117  1.266771  -0.324204
H    0.103401  0.236069  -0.580289
N    -1.359637  0.472360  2.134534
C    -1.457707  -0.094485  3.457974
C    -1.066279  0.930824  4.591629
O    -1.988069  1.088874  5.437562
H    -2.223124  0.557242  1.604674
H    -2.522346  -0.292595  3.631602
C    -0.651194  -1.415010  3.685882
C    -1.162450  -2.615074  2.893773
C    -2.483885  -3.229879  3.397546
C    -2.877114  -4.477414  2.596835
N    -1.976442  -5.567129  2.757893
H    -0.664902  -1.632689  4.763985
H    0.393894  -1.209703  3.412583
H    -0.383975  -3.395744  2.955273
H    -1.243204  -2.364203  1.824388
H    -3.318996  -2.517861  3.323310
H    -2.395655  -3.490348  4.464372
H    -2.989292  -4.269365  1.521941
H    -3.896617  -4.788507  2.937736
H    -1.906956  -6.288470  2.043572
H    -1.649586  -5.833410  3.684767
N    0.134062  1.471161  4.561481
C    0.683822  2.425384  5.520150
H    0.698287  1.207151  3.731356
H    1.694090  2.685525  5.189245
H    0.760269  1.982357  6.522555
H    0.087622  3.347225  5.552308
Hg    -2.162792  2.357504  7.472916
