34
Energy: -571608.07146 eV PBE+vdW (tier 2 basis)
C    -0.388092  -0.723571  0.375277
C    -0.232591  0.061407  1.658581
O    0.754871  0.007582  2.367464
H    -0.663075  -0.098046  -0.486163
H    -1.155841  -1.504103  0.477995
H    0.566540  -1.210496  0.160545
N    -1.279208  0.922428  2.033703
C    -2.648753  0.887900  1.533465
C    -3.207484  2.307174  1.573712
O    -4.200863  2.668897  2.155600
H    -1.146830  1.277231  2.981461
H    -2.608289  0.585135  0.472793
C    -3.550350  -0.095628  2.312645
C    -4.948775  -0.361985  1.732108
C    -5.663133  -1.473738  2.519372
C    -7.058393  -1.843086  2.031505
N    -8.093308  -0.770101  2.365154
H    -3.637115  0.261025  3.349945
H    -2.991516  -1.042131  2.357225
H    -4.867943  -0.664362  0.675245
H    -5.529766  0.573904  1.753567
H    -5.699575  -1.227605  3.594033
H    -5.074153  -2.401436  2.458517
H    -7.422778  -2.759758  2.509833
H    -7.103584  -1.977926  0.943368
H    -9.029223  -1.033826  2.025499
H    -8.163258  -0.626439  3.382731
N    -2.481509  3.378965  0.865245
C    -1.395854  3.353233  0.147962
H    -2.972368  4.272828  0.990159
H    -1.046330  4.278998  -0.309560
H    -7.853388  0.136236  1.941008
H    -0.842996  2.425862  0.026050
Hg    4.178032  -1.094253  3.295569
