34
Energy: -571606.471159 eV PBE+vdW (tier 2 basis)
C    0.288083  -0.228104  0.600556
C    0.101815  -0.877998  1.946579
O    1.138657  -1.438436  2.425818
H    1.268256  -0.496547  0.197534
H    0.246626  0.865054  0.715742
H    -0.492048  -0.548222  -0.101779
N    -1.068657  -0.844161  2.575039
C    -2.322959  -0.215367  2.145248
C    -2.978073  0.221685  3.475636
O    -2.839304  -0.489234  4.469637
H    -1.155653  -1.255378  3.512347
H    -2.100454  0.649671  1.505150
C    -3.190240  -1.254530  1.380263
C    -4.494049  -0.760887  0.726172
C    -5.686556  -0.597722  1.667841
C    -7.100953  -0.729376  0.942156
N    -7.353386  0.221396  -0.067547
H    -3.403458  -2.084098  2.072168
H    -2.549797  -1.673084  0.590859
H    -4.742720  -1.524136  -0.028865
H    -4.319369  0.165561  0.155630
H    -5.697548  0.371705  2.183322
H    -5.697932  -1.388849  2.431841
H    -7.866197  -0.648683  1.724131
H    -7.114785  -1.741617  0.504114
H    -7.050577  0.075414  -1.026411
H    -7.947733  1.028767  0.098937
N    -3.694929  1.373906  3.470280
C    -4.314393  1.913930  4.673698
H    -3.625955  1.979458  2.656427
H    -5.204989  2.488445  4.396858
H    -3.620142  2.580465  5.207596
H    -4.579820  1.086922  5.339585
Hg    1.555680  -2.418668  4.507532
