34
Energy: -571606.40606 eV PBE+vdW (tier 2 basis)
C    -0.830401  1.363041  0.937751
C    0.047398  0.328413  1.560497
O    1.298527  0.439723  1.427698
H    -1.754201  1.524902  1.498950
H    -1.065107  1.072085  -0.096755
H    -0.261971  2.299459  0.885033
N    -0.430619  -0.689841  2.342888
C    -1.491647  -1.641367  1.998016
C    -0.857801  -2.536163  0.882197
O    -0.178945  -1.970746  -0.008719
H    0.338326  -1.140531  2.844232
H    -1.640976  -2.250094  2.902765
C    -2.851907  -1.041433  1.591100
C    -3.969335  -2.094960  1.557577
C    -5.351482  -1.572677  1.147657
C    -6.034714  -0.669516  2.255796
N    -7.351933  -0.286486  1.911801
H    -2.776956  -0.555229  0.609226
H    -3.086163  -0.261135  2.330229
H    -4.038337  -2.605486  2.532433
H    -3.719760  -2.876211  0.819669
H    -6.021837  -2.422842  0.967971
H    -5.298610  -0.994023  0.214593
H    -5.424175  0.236755  2.389533
H    -6.059082  -1.239921  3.194635
H    -8.154932  -0.851618  2.175255
H    -7.534989  0.496976  1.290498
N    -1.045545  -3.854564  0.946389
C    -0.462438  -4.813762  0.009400
H    -1.594610  -4.225848  1.718239
H    -1.178535  -5.624852  -0.161214
H    0.461043  -5.244139  0.422234
H    -0.242894  -4.306819  -0.933931
Hg    2.279616  -1.374066  0.219097
