34
Energy: -571606.677986 eV PBE+vdW (tier 2 basis)
C    -0.232657  1.806735  1.039298
C    -0.198120  0.588795  1.905573
O    0.840448  0.247601  2.555961
H    0.637667  1.802459  0.371539
H    -0.152023  2.695086  1.684657
H    -1.142576  1.905123  0.441794
N    -1.253371  -0.229698  2.034729
C    -2.485405  -0.280045  1.264899
C    -3.479855  -1.053057  2.184624
O    -3.040141  -1.938840  2.919132
H    -1.154790  -1.003125  2.704432
H    -2.847275  0.742293  1.091790
C    -2.353846  -0.992388  -0.112037
C    -1.923119  -2.465504  -0.131804
C    -3.084801  -3.478711  -0.076592
C    -2.581193  -4.929509  -0.165545
N    -2.058437  -5.287469  -1.435614
H    -1.613296  -0.400845  -0.674324
H    -3.304382  -0.857311  -0.649748
H    -1.202141  -2.672461  0.674392
H    -1.372251  -2.645492  -1.069646
H    -3.792917  -3.287081  -0.898003
H    -3.651201  -3.389942  0.858896
H    -3.461943  -5.581833  0.064294
H    -1.837032  -5.166405  0.608384
H    -1.343928  -6.006407  -1.521036
H    -2.574816  -5.072184  -2.286399
N    -4.775566  -0.716422  2.070390
C    -5.822230  -1.296231  2.909365
H    -5.021372  0.081385  1.490831
H    -6.006557  -0.674129  3.796032
H    -5.502563  -2.289865  3.238051
H    -6.746807  -1.365208  2.325827
Hg    2.458926  1.705421  3.458961
