34
Energy: -571606.898536 eV PBE+vdW (tier 2 basis)
C    -0.063535  0.128843  -0.064323
C    -0.123008  0.159840  1.435631
O    0.899731  0.532091  2.064427
H    0.846658  -0.396704  -0.376762
H    0.014161  1.160376  -0.435068
H    -0.939586  -0.351987  -0.514497
N    -1.277866  -0.221103  2.029988
C    -1.561907  -0.107943  3.455181
C    -0.796440  -1.163066  4.298687
O    0.080254  -0.770485  5.125827
H    -2.043023  -0.477595  1.412502
H    -1.135791  0.847451  3.805148
C    -3.071995  -0.064260  3.757199
C    -3.725433  1.283827  3.405065
C    -5.207703  1.309872  3.809633
C    -5.888024  2.674592  3.573715
N    -6.123943  2.980886  2.200267
H    -3.588845  -0.884972  3.237829
H    -3.198485  -0.258031  4.833037
H    -3.630347  1.495732  2.328510
H    -3.189646  2.090537  3.930454
H    -5.307446  1.083104  4.880898
H    -5.769995  0.527034  3.276449
H    -5.318822  3.497400  4.027390
H    -6.860144  2.639220  4.119590
H    -6.675817  2.340718  1.633305
H    -6.150426  3.951291  1.898267
N    -1.043366  -2.468013  4.219805
C    -2.079768  -3.194425  3.488035
H    -0.466791  -3.024666  4.853562
H    -2.270963  -2.736849  2.513957
H    -3.010544  -3.252135  4.067529
H    -1.715067  -4.212774  3.317675
Hg    1.437587  0.968003  4.350993
