34
Energy: -571606.293235 eV PBE+vdW (tier 2 basis)
C    0.120026  -0.438287  0.269551
C    -0.067687  0.086679  1.655135
O    0.927197  0.571737  2.269164
H    -0.624299  -1.198736  0.010614
H    1.127418  -0.864974  0.189387
H    0.073280  0.394267  -0.449272
N    -1.270137  0.039247  2.275567
C    -2.562642  0.375393  1.667460
C    -2.571503  1.919892  1.600990
O    -2.024786  2.585984  2.523813
H    -1.222484  0.317530  3.257337
H    -2.600332  -0.064186  0.663355
C    -3.661679  -0.239615  2.564650
C    -5.138605  -0.138362  2.135661
C    -5.851806  1.153958  2.545646
C    -7.419320  0.986325  2.633507
N    -8.067378  0.725851  1.399436
H    -3.547119  0.178520  3.578324
H    -3.399683  -1.304636  2.642854
H    -5.642763  -0.982559  2.629793
H    -5.255230  -0.326166  1.057557
H    -5.635414  1.996536  1.874883
H    -5.547113  1.461454  3.557023
H    -7.795998  1.937393  3.048961
H    -7.639158  0.172797  3.336428
H    -8.471720  -0.183083  1.194353
H    -8.336983  1.483931  0.778867
N    -3.143051  2.566431  0.578179
C    -3.903172  2.052697  -0.555151
H    -3.037653  3.581698  0.633447
H    -4.945892  2.392334  -0.502672
H    -3.889497  0.960920  -0.577863
H    -3.465507  2.433930  -1.486725
Hg    0.382526  2.584937  3.398244
