34
Energy: -571606.660527 eV PBE+vdW (tier 2 basis)
C    -0.053484  -1.899517  0.647098
C    -0.475546  -0.671802  1.394877
O    0.319129  0.271865  1.694790
H    0.330917  -1.606567  -0.340861
H    -0.873326  -2.610952  0.505520
H    0.757058  -2.396693  1.196960
N    -1.752374  -0.577153  1.785631
C    -2.273465  0.479809  2.645900
C    -3.269349  -0.232053  3.590292
O    -3.827610  -1.246873  3.153885
H    -2.370587  -1.390177  1.697477
H    -1.429951  0.920963  3.190712
C    -3.016134  1.596874  1.835738
C    -4.381814  1.209126  1.273087
C    -4.945905  2.151256  0.200334
C    -5.413131  3.532266  0.751053
N    -4.362047  4.416331  1.103368
H    -2.332069  1.890286  1.025341
H    -3.108492  2.468025  2.505105
H    -5.117452  1.086996  2.082074
H    -4.318613  0.218807  0.787194
H    -5.831726  1.691199  -0.256354
H    -4.220521  2.310020  -0.612172
H    -6.097053  3.419432  1.601005
H    -6.001232  3.975206  -0.087409
H    -3.708004  4.729953  0.389130
H    -4.455212  5.031763  1.907444
N    -3.533560  0.282369  4.804088
C    -2.803741  1.326749  5.515998
H    -4.195137  -0.274176  5.346757
H    -1.892827  0.933910  5.990450
H    -3.454479  1.722790  6.302492
H    -2.536954  2.150563  4.845580
Hg    2.556324  0.448480  0.820222
