34
Energy: -571607.991826 eV PBE+vdW (tier 2 basis)
C    0.549720  1.133657  2.406719
C    -0.246397  -0.127820  2.496498
O    0.285350  -1.102407  3.124806
H    0.043926  1.914993  1.829095
H    1.521155  0.908964  1.946123
H    0.754481  1.503012  3.420771
N    -1.458416  -0.163414  1.905836
C    -2.350629  -1.318268  1.924870
C    -1.854787  -2.448153  0.992808
O    -1.227939  -3.412964  1.514686
H    -1.758696  0.683240  1.427831
H    -2.197047  -1.755116  2.914671
C    -3.860776  -1.042384  1.949056
C    -4.414440  -0.827886  3.386982
C    -3.772159  -1.638982  4.540821
C    -3.707979  -3.175074  4.391837
N    -2.432949  -3.766601  4.957128
H    -4.351077  -1.916013  1.496516
H    -4.139582  -0.187340  1.316085
H    -5.493912  -1.027163  3.354418
H    -4.322635  0.230000  3.668250
H    -4.324416  -1.391452  5.457510
H    -2.755308  -1.250214  4.739228
H    -3.763103  -3.509978  3.348172
H    -4.544254  -3.654748  4.920775
H    -2.326074  -3.536509  5.952088
H    -2.448010  -4.790865  4.888365
N    -2.095539  -2.370879  -0.308598
C    -1.661918  -3.367921  -1.293118
H    -2.658875  -1.594874  -0.646823
H    -1.345724  -2.851241  -2.205035
H    -2.486638  -4.051349  -1.532144
H    -0.826274  -3.938470  -0.879800
Hg    -0.713433  -2.941976  3.810420
