34
Energy: -571607.051201 eV PBE+vdW (tier 2 basis)
C    -0.744259  0.980325  0.237811
C    -0.499052  0.627911  1.674464
O    0.621854  0.506513  2.168324
H    0.129632  0.691414  -0.353685
H    -0.853809  2.073597  0.159027
H    -1.649469  0.519745  -0.175114
N    -1.637805  0.457472  2.464410
C    -1.666020  -0.030861  3.809923
C    -1.076329  1.024853  4.861796
O    -1.918050  1.345811  5.732340
H    -2.536914  0.630398  2.020586
H    -2.719367  -0.129083  4.094494
C    -0.948281  -1.393495  4.075445
C    -1.653869  -2.548672  3.350016
C    -0.905543  -3.850898  3.643410
C    -1.503781  -5.077557  2.843056
N    -2.742311  -5.551546  3.312360
H    -0.958705  -1.564546  5.161144
H    0.100307  -1.312983  3.761576
H    -1.663822  -2.350043  2.267107
H    -2.701812  -2.637547  3.676074
H    -0.925262  -4.095341  4.714883
H    0.149122  -3.778970  3.343515
H    -0.727910  -5.860227  2.986469
H    -1.571582  -4.845779  1.774577
H    -2.820698  -5.995414  4.224095
H    -3.551810  -5.627057  2.703848
N    0.173913  1.406179  4.710667
C    0.887066  2.366614  5.550976
H    0.631309  1.042053  3.853159
H    1.890206  2.492206  5.132704
H    0.986256  1.993363  6.578149
H    0.389684  3.345946  5.548650
Hg    -1.890149  2.842581  7.667969
