34
Energy: -571606.361498 eV PBE+vdW (tier 2 basis)
C    0.139655  0.090326  0.734658
C    -0.053260  -0.335262  2.153902
O    0.965153  -0.388631  2.905926
H    1.060496  0.681930  0.677658
H    -0.703298  0.677238  0.358553
H    0.284832  -0.799385  0.104115
N    -1.277200  -0.595596  2.692481
C    -2.324178  -1.448226  2.118061
C    -1.716563  -2.888696  2.067334
O    -0.471237  -3.024749  1.976860
H    -1.217874  -0.680488  3.708767
H    -3.131444  -1.440509  2.865731
C    -2.936903  -1.011077  0.772413
C    -3.624363  0.360893  0.852830
C    -4.523703  0.699211  -0.352921
C    -3.796814  1.069262  -1.649854
N    -3.147725  2.337179  -1.606147
H    -3.688626  -1.771989  0.510074
H    -2.184106  -1.056312  -0.025765
H    -2.878859  1.158237  0.999250
H    -4.262862  0.382051  1.749073
H    -5.187346  1.531894  -0.074093
H    -5.192072  -0.145762  -0.572386
H    -4.564198  1.081159  -2.465276
H    -3.070522  0.310368  -1.984691
H    -2.482850  2.591629  -2.333440
H    -3.609329  3.122352  -1.149538
N    -2.563496  -3.918032  2.116739
C    -2.169407  -5.324352  2.127804
H    -3.561303  -3.718459  2.157494
H    -2.424253  -5.778791  3.094758
H    -1.094301  -5.395967  1.949737
H    -2.711700  -5.858606  1.337355
Hg    1.337729  -2.579131  3.696836
