34
Energy: -571606.814812 eV PBE+vdW (tier 2 basis)
C    0.717218  1.059621  0.079949
C    0.322495  1.437812  1.477898
O    0.275019  2.660460  1.770332
H    -0.094793  1.345937  -0.603506
H    0.917140  -0.012702  -0.028086
H    1.604818  1.633002  -0.211799
N    0.042300  0.439370  2.347472
C    -0.522356  0.616502  3.680286
C    0.522528  1.172816  4.688242
O    0.356100  2.330982  5.172866
H    0.081067  -0.505889  1.975245
H    -1.269861  1.426120  3.624910
C    -1.263868  -0.648390  4.153039
C    -1.834108  -0.528976  5.570957
C    -2.660776  -1.737638  6.042573
C    -4.062911  -1.860664  5.415189
N    -4.063859  -2.308926  4.053277
H    -0.607062  -1.528345  4.085081
H    -2.084563  -0.820177  3.434931
H    -2.442635  0.385992  5.656663
H    -1.010107  -0.405408  6.292531
H    -2.808315  -1.651388  7.127067
H    -2.102851  -2.675361  5.889759
H    -4.617351  -0.913639  5.475659
H    -4.630169  -2.584208  6.045516
H    -3.651364  -3.218516  3.852358
H    -4.875176  -2.094540  3.477153
N    1.577996  0.469697  5.091107
C    1.953463  -0.916107  4.814630
H    2.163841  0.970909  5.761380
H    3.033626  -1.004512  4.970177
H    1.739676  -1.185732  3.777063
H    1.449313  -1.611647  5.498723
Hg    -0.445234  3.917700  3.648972
