34
Energy: -571606.398868 eV PBE+vdW (tier 2 basis)
C    0.522093  -1.171537  2.416182
C    0.622897  0.112060  3.165176
O    1.774735  0.527927  3.510056
H    0.883240  -1.030671  1.386247
H    -0.492820  -1.580411  2.419611
H    1.208744  -1.893640  2.881409
N    -0.476603  0.829713  3.509428
C    -1.615563  1.163117  2.662479
C    -1.294184  2.441649  1.851927
O    -0.321458  3.248877  2.087688
H    -0.321818  1.482661  4.280496
H    -1.732585  0.354514  1.927510
C    -2.911534  1.311407  3.499885
C    -3.719192  0.008666  3.629841
C    -4.838262  -0.194392  2.591699
C    -4.460604  -0.271937  1.111284
N    -4.328075  1.035336  0.438731
H    -3.538318  2.106838  3.076705
H    -2.620524  1.677670  4.495853
H    -4.197786  -0.006146  4.618148
H    -3.037434  -0.857346  3.628559
H    -5.610020  0.581905  2.724901
H    -5.341119  -1.139225  2.842771
H    -5.247543  -0.848803  0.587043
H    -3.533185  -0.843956  0.946203
H    -4.246863  0.921798  -0.575507
H    -5.144056  1.628535  0.618482
N    -2.141065  2.735728  0.889041
C    -2.026519  3.885549  -0.008072
H    -2.996121  2.092418  0.779531
H    -2.677422  3.713077  -0.870455
H    -0.992305  4.011423  -0.345298
H    -2.348680  4.803945  0.501215
Hg    1.653532  2.807904  3.142842
