34
Energy: -571608.021748 eV PBE+vdW (tier 2 basis)
C    -0.018846  0.146078  0.835832
C    -1.148229  -0.418951  1.603719
O    -0.917624  -1.434575  2.376668
H    0.701348  0.611580  1.525456
H    -0.338364  0.855649  0.067782
H    0.518646  -0.689476  0.359788
N    -2.400516  0.066306  1.511254
C    -2.770568  1.492761  1.611612
C    -1.895980  2.118135  2.724288
O    -1.519205  1.408163  3.690792
H    -3.121042  -0.575402  1.837314
H    -2.603625  1.988273  0.644555
C    -4.274097  1.625141  1.988123
C    -4.680280  1.327988  3.452982
C    -4.992606  -0.145256  3.810847
C    -4.787998  -0.555478  5.267241
N    -3.331548  -0.559529  5.712043
H    -4.861245  1.018370  1.280779
H    -4.547338  2.665320  1.767744
H    -5.586067  1.911867  3.662074
H    -3.915773  1.740586  4.127159
H    -4.436497  -0.871828  3.185648
H    -6.042763  -0.364933  3.568117
H    -5.160629  -1.573349  5.429233
H    -5.320508  0.116600  5.956308
H    -3.026447  0.385643  5.975931
H    -3.217994  -1.150644  6.544042
N    -1.631488  3.417343  2.613429
C    -0.899907  4.210811  3.602702
H    -1.953443  3.899879  1.777806
H    -1.561946  4.965323  4.044829
H    -0.057597  4.716430  3.116781
H    -0.524902  3.544851  4.383266
Hg    -1.989222  -1.101302  4.148922
