34
Energy: -571606.669773 eV PBE+vdW (tier 2 basis)
C    0.410152  1.523300  1.011813
C    -0.325994  1.266162  2.285056
O    0.233605  1.544912  3.384743
H    0.328053  2.589935  0.751655
H    0.040143  0.905748  0.186295
H    1.476757  1.322588  1.172723
N    -1.567568  0.726196  2.289978
C    -2.649282  1.074144  1.373814
C    -3.528687  2.091570  2.153630
O    -3.370696  2.273991  3.386087
H    -1.912433  0.560144  3.237387
H    -2.214475  1.596714  0.509965
C    -3.411900  -0.163512  0.840040
C    -4.111665  -1.023356  1.904657
C    -4.828773  -2.208115  1.247268
C    -5.506974  -3.144543  2.329063
N    -6.164423  -4.256382  1.754070
H    -2.681738  -0.770492  0.285418
H    -4.144171  0.180892  0.093536
H    -4.834327  -0.417743  2.474371
H    -3.370979  -1.401471  2.626828
H    -4.123773  -2.818947  0.666104
H    -5.614560  -1.863730  0.560446
H    -6.234903  -2.543859  2.893069
H    -4.717058  -3.502170  3.006011
H    -5.665747  -5.114987  1.535361
H    -7.132843  -4.204781  1.449145
N    -4.464922  2.747931  1.461781
C    -5.353557  3.756828  2.033039
H    -4.609334  2.495934  0.486657
H    -5.541631  4.530546  1.281380
H    -4.880403  4.193052  2.917219
H    -6.311249  3.307152  2.330292
Hg    -1.240241  2.573594  4.949225
