34
Energy: -571606.881183 eV PBE+vdW (tier 2 basis)
C    0.293227  -1.231060  0.537767
C    -0.271538  -0.302145  1.567586
O    0.375333  0.085010  2.584045
H    1.135425  -0.733316  0.033822
H    -0.439006  -1.521910  -0.222716
H    0.677098  -2.133612  1.030146
N    -1.533738  0.136974  1.405763
C    -2.202675  1.019666  2.359770
C    -3.082240  0.129399  3.289463
O    -4.121101  -0.373295  2.830537
H    -2.090099  -0.265821  0.654081
H    -1.399281  1.462269  2.971494
C    -2.978554  2.110669  1.621678
C    -3.664797  3.189488  2.466119
C    -4.983537  2.845334  3.188655
C    -6.132778  2.476386  2.223496
N    -6.003549  1.215412  1.600050
H    -3.723125  1.644330  0.942821
H    -2.257712  2.599218  0.948334
H    -3.847871  4.051661  1.809854
H    -2.969694  3.552454  3.242698
H    -5.317042  3.731144  3.744477
H    -4.853205  2.051455  3.937298
H    -6.326901  3.252350  1.469361
H    -7.051474  2.451540  2.867366
H    -5.625621  0.409410  2.113069
H    -6.362877  1.058053  0.660344
N    -2.638076  -0.060131  4.533767
C    -3.295220  -0.931642  5.508926
H    -1.741945  0.346890  4.785551
H    -2.827727  -1.924841  5.520459
H    -4.349096  -1.040593  5.236828
H    -3.210305  -0.481996  6.503668
Hg    2.846450  -0.006129  2.712728
