34
Energy: -571607.067147 eV PBE+vdW (tier 2 basis)
C    0.037358  -0.759051  0.120045
C    -0.040044  -0.257900  1.534376
O    0.995349  0.267450  2.021468
H    0.127534  0.105787  -0.552427
H    -0.841608  -1.347167  -0.167978
H    0.944626  -1.362321  0.000104
N    -1.216919  -0.398023  2.183209
C    -1.594184  0.199336  3.466099
C    -1.038856  -0.636550  4.649111
O    -0.020737  -0.257958  5.296681
H    -1.961880  -0.838796  1.649162
H    -1.092988  1.177520  3.548864
C    -3.113240  0.440690  3.508215
C    -3.596144  1.200039  4.751971
C    -5.118946  1.411949  4.729419
C    -5.652496  2.179822  5.951966
N    -5.298466  3.563476  5.963903
H    -3.653054  -0.518641  3.414224
H    -3.369946  1.014394  2.604301
H    -3.089373  2.176262  4.809020
H    -3.318880  0.652336  5.667123
H    -5.636539  0.442065  4.702562
H    -5.417223  1.941801  3.810726
H    -5.325626  1.724847  6.897882
H    -6.763377  2.078213  5.939341
H    -5.518970  4.142179  5.156094
H    -5.256987  4.063096  6.848500
N    -1.653898  -1.766416  4.973296
C    -1.211901  -2.669197  6.039628
H    -2.523898  -1.988957  4.496824
H    -1.629092  -2.360088  7.006874
H    -0.119686  -2.648416  6.102371
H    -1.554784  -3.680955  5.803942
Hg    1.517875  1.085032  4.153665
