34
Energy: -571608.385332 eV PBE+vdW (tier 2 basis)
C    0.102815  -0.685637  0.806440
C    -0.654945  -0.867934  2.086200
O    -0.427978  -1.855254  2.823703
H    -0.193685  0.203938  0.240711
H    -0.031936  -1.576167  0.179134
H    1.174309  -0.622450  1.040287
N    -1.577097  0.078504  2.401436
C    -2.387273  0.144446  3.624891
C    -1.463343  0.086799  4.863841
O    -1.212850  -0.982622  5.533475
H    -1.708536  0.830387  1.731857
H    -2.792522  1.162510  3.620651
C    -3.620319  -0.823783  3.715234
C    -3.758023  -1.925502  2.634571
C    -4.486437  -3.219168  3.099302
C    -3.648324  -4.496495  3.024695
N    -2.636633  -4.656722  4.152497
H    -4.520069  -0.195961  3.692456
H    -3.646836  -1.261063  4.727867
H    -2.774830  -2.198033  2.225986
H    -4.296636  -1.505504  1.776717
H    -5.355932  -3.398833  2.453193
H    -4.913920  -3.105680  4.108872
H    -3.078031  -4.539940  2.088562
H    -4.290507  -5.386989  3.071561
H    -3.114048  -4.975699  5.003728
H    -1.955299  -5.386913  3.913187
N    -0.909963  1.201832  5.303269
C    -1.071987  2.569073  4.793840
H    -0.300880  1.080129  6.114219
H    -0.716627  2.648552  3.759794
H    -0.463296  3.229592  5.417104
H    -2.115773  2.899373  4.867004
Hg    -1.632464  -2.844697  4.647401
