34
Energy: -571607.892743 eV PBE+vdW (tier 2 basis)
C    0.124126  -0.083947  0.324911
C    0.042615  -0.149395  1.823702
O    1.169196  -0.345942  2.397404
H    -0.848924  0.050298  -0.159608
H    0.602463  -0.995891  -0.053527
H    0.776351  0.757796  0.052227
N    -1.178919  0.017297  2.361523
C    -1.804207  0.243314  3.703568
C    -0.963031  1.192292  4.580036
O    0.242241  0.965531  4.863064
H    -1.875212  0.118393  1.627354
H    -2.727924  0.770464  3.440175
C    -2.254669  -1.048875  4.459680
C    -1.029940  -1.856135  4.872531
C    -0.957840  -2.973512  5.906886
C    0.485409  -3.522959  5.952551
N    1.597086  -2.471653  6.012955
H    -2.941788  -1.616119  3.817334
H    -2.831712  -0.723022  5.338163
H    -0.400294  -1.070895  5.310674
H    -0.579905  -2.240454  3.934844
H    -1.608093  -3.826278  5.667989
H    -1.263643  -2.606030  6.896825
H    0.697628  -4.126872  5.061022
H    0.624227  -4.164121  6.833964
H    1.539554  -1.933067  6.886064
H    2.502635  -2.953731  6.032721
N    -1.573733  2.272146  5.074340
C    -2.945472  2.747187  4.863666
H    -0.971678  2.843035  5.667130
H    -3.131162  2.988031  3.809047
H    -3.072071  3.666791  5.441733
H    -3.685936  2.021807  5.223011
Hg    1.553272  -1.055668  4.343325
