34
Energy: -571606.645977 eV PBE+vdW (tier 2 basis)
C    -1.255672  1.406444  -1.013805
C    -0.855681  0.678076  0.228545
O    0.248335  0.063756  0.250145
H    -0.773194  2.395902  -1.029881
H    -2.341259  1.521466  -1.099524
H    -0.871161  0.857255  -1.881792
N    -1.660610  0.648112  1.319226
C    -2.386450  1.796554  1.860975
C    -1.378506  2.532218  2.781037
O    -0.393542  1.910204  3.266037
H    -1.300776  0.039949  2.057251
H    -2.677700  2.448048  1.026207
C    -3.635283  1.345621  2.649676
C    -4.702004  0.678182  1.766056
C    -5.900944  0.215422  2.600389
C    -6.994781  -0.476965  1.690597
N    -8.119914  -0.920832  2.424163
H    -4.064628  2.220916  3.157138
H    -3.312124  0.660537  3.449797
H    -4.259521  -0.179518  1.236990
H    -5.036513  1.388988  0.993667
H    -6.377419  1.062135  3.114167
H    -5.592182  -0.507910  3.368137
H    -6.525578  -1.337821  1.192386
H    -7.320164  0.254347  0.936284
H    -8.906945  -0.306922  2.616468
H    -8.144650  -1.839527  2.858441
N    -1.567038  3.816269  3.098349
C    -2.700000  4.686916  2.803651
H    -0.845017  4.195132  3.714235
H    -3.399606  4.722187  3.650737
H    -3.231732  4.352301  1.908045
H    -2.323391  5.700495  2.625034
Hg    1.449900  0.454016  2.276349
