34
Energy: -571606.993635 eV PBE+vdW (tier 2 basis)
C    0.988704  0.874689  0.788847
C    0.486277  0.745033  2.198644
O    1.160416  1.305086  3.104703
H    1.029398  1.940630  0.526474
H    0.359573  0.347612  0.062741
H    2.015508  0.490950  0.739208
N    -0.652375  0.046868  2.394579
C    -1.466770  -0.019197  3.613690
C    -0.990073  -1.185761  4.513586
O    -0.123656  -1.001871  5.420739
H    -1.057765  -0.368637  1.559587
H    -1.265583  0.893950  4.196303
C    -2.966707  -0.040627  3.267923
C    -3.463916  1.282885  2.661707
C    -4.928682  1.249433  2.184614
C    -5.991926  1.295182  3.292375
N    -6.062112  2.558152  3.958383
H    -3.516703  -0.269878  4.192359
H    -3.178095  -0.865642  2.563883
H    -2.840363  1.546537  1.794660
H    -3.330700  2.094494  3.394409
H    -5.111589  0.350188  1.578428
H    -5.096105  2.098771  1.505317
H    -5.862208  0.507346  4.050052
H    -6.973924  1.067947  2.813072
H    -6.100691  3.409428  3.401046
H    -6.526592  2.621711  4.860802
N    -1.488940  -2.397375  4.318264
C    -1.086647  -3.583479  5.082715
H    -2.244569  -2.501345  3.647012
H    -1.608024  -3.614238  6.047951
H    -0.007286  -3.554241  5.261646
H    -1.343243  -4.473482  4.501600
Hg    1.144467  0.941372  5.404619
