34
Energy: -571607.88981 eV PBE+vdW (tier 2 basis)
C    -0.474400  -1.356971  -0.070531
C    -0.870536  -0.534758  1.114447
O    -0.452277  0.634697  1.262402
H    0.612360  -1.516446  -0.039568
H    -0.685680  -0.791862  -0.987272
H    -0.979827  -2.327642  -0.115535
N    -1.711081  -1.115402  2.031696
C    -2.191932  -0.334492  3.152694
C    -1.231232  -0.417348  4.353746
O    -0.403460  0.556236  4.571726
H    -2.054118  -2.055776  1.858912
H    -1.994988  0.672644  2.778881
C    -3.721367  -0.273244  3.375606
C    -4.243583  1.039786  2.735691
C    -3.868440  2.310316  3.547271
C    -3.443375  3.585058  2.809040
N    -2.038101  3.584243  2.213295
H    -3.966658  -0.301347  4.446421
H    -4.216283  -1.140059  2.917546
H    -5.334787  0.989106  2.636503
H    -3.858186  1.092685  1.703773
H    -3.092829  2.088509  4.307916
H    -4.734598  2.600840  4.159478
H    -3.463562  4.425964  3.511389
H    -4.128357  3.819233  1.981071
H    -1.680714  4.544675  2.160887
H    -2.037694  3.220448  1.252891
N    -1.178527  -1.453011  5.162356
C    -1.966031  -2.685360  5.111255
H    -0.468126  -1.395586  5.895926
H    -2.418398  -2.864063  6.093580
H    -1.312264  -3.530182  4.860958
H    -2.762981  -2.606956  4.368270
Hg    -0.690494  2.224042  3.252187
