34
Energy: -571606.572749 eV PBE+vdW (tier 2 basis)
C    0.090276  -0.720809  0.725545
C    -0.315384  -0.345134  2.114705
O    0.499939  -0.381784  3.092956
H    0.840168  0.003205  0.372306
H    -0.734255  -0.731704  0.008233
H    0.565990  -1.709536  0.741274
N    -1.564073  0.029784  2.420370
C    -2.776830  -0.040978  1.614590
C    -3.744398  0.967368  2.297301
O    -3.672529  1.110385  3.521404
H    -1.733054  0.328845  3.389093
H    -2.550149  0.285991  0.592225
C    -3.407345  -1.457392  1.548125
C    -3.820332  -2.124605  2.878039
C    -5.274107  -1.851119  3.281966
C    -5.607341  -2.609038  4.640338
N    -6.946893  -2.435211  5.044459
H    -2.659611  -2.100680  1.058675
H    -4.258210  -1.419890  0.851835
H    -3.136145  -1.825468  3.686059
H    -3.688175  -3.209275  2.757864
H    -5.969648  -2.219266  2.515213
H    -5.470602  -0.784383  3.445066
H    -4.936593  -2.213199  5.415669
H    -5.409341  -3.678661  4.474906
H    -7.690980  -3.034498  4.695261
H    -7.228822  -1.661441  5.641015
N    -4.644424  1.609699  1.528760
C    -4.736140  1.645877  0.070640
H    -5.199253  2.292511  2.044271
H    -5.715170  2.055617  -0.196854
H    -4.665908  0.640915  -0.360058
H    -3.964527  2.292360  -0.371435
Hg    2.822831  -0.058036  2.984477
