34
Energy: -571606.649331 eV PBE+vdW (tier 2 basis)
C    -0.178873  1.924070  0.762590
C    -0.633446  0.740618  1.569720
O    0.260763  -0.013862  2.037856
H    -0.989423  2.626583  0.536702
H    0.255382  1.559789  -0.179092
H    0.618278  2.444720  1.306467
N    -1.963735  0.585958  1.741796
C    -2.713267  -0.518548  2.369142
C    -2.357044  -0.660451  3.868892
O    -1.613097  -1.580674  4.320654
H    -2.529692  1.299799  1.293654
H    -3.757536  -0.175277  2.355123
C    -2.657655  -1.847981  1.589797
C    -3.274355  -1.769966  0.183244
C    -4.814535  -1.835047  0.111406
C    -5.378603  -3.273015  0.099946
N    -5.304618  -3.957045  1.356539
H    -3.153827  -2.624626  2.191091
H    -1.610664  -2.186056  1.481553
H    -2.854152  -2.586732  -0.420278
H    -2.939391  -0.850078  -0.320358
H    -5.147284  -1.361599  -0.821891
H    -5.292464  -1.260591  0.922052
H    -4.875521  -3.880173  -0.663536
H    -6.443049  -3.188784  -0.217262
H    -5.193271  -4.968367  1.350098
H    -5.882654  -3.617451  2.122526
N    -2.909451  0.185272  4.736697
C    -3.898916  1.236222  4.490373
H    -2.630492  0.026574  5.706064
H    -3.500774  2.004293  3.816460
H    -4.129502  1.709981  5.448559
H    -4.833209  0.825307  4.085005
Hg    0.308599  -2.071486  3.130585
