34
Energy: -571606.527094 eV PBE+vdW (tier 2 basis)
C    -0.886782  0.578026  0.813357
C    -0.426476  0.297707  2.202781
O    0.392296  1.038497  2.817023
H    -1.462522  -0.241865  0.374129
H    -0.001097  0.756511  0.187338
H    -1.471794  1.508545  0.803659
N    -0.864885  -0.765231  2.930082
C    -2.044472  -1.624075  2.786860
C    -1.746592  -2.697790  1.662828
O    -1.935418  -2.410877  0.485310
H    -0.358081  -0.855302  3.812482
H    -2.113680  -2.154151  3.747294
C    -3.389696  -0.932736  2.513118
C    -3.836942  -0.004747  3.647551
C    -5.147073  0.759174  3.349018
C    -6.430819  -0.075608  3.423717
N    -6.788820  -0.475323  4.741245
H    -4.119423  -1.741964  2.358824
H    -3.345768  -0.395122  1.556537
H    -3.058565  0.748907  3.840103
H    -3.951824  -0.573340  4.584852
H    -5.102347  1.211803  2.348198
H    -5.230669  1.601476  4.052897
H    -6.419418  -0.964932  2.773954
H    -7.252602  0.556927  2.999903
H    -6.703057  0.180989  5.515148
H    -7.442858  -1.240939  4.886220
N    -1.286829  -3.882929  2.100458
C    -1.061137  -5.015338  1.203276
H    -1.245129  -4.052655  3.100843
H    -0.282386  -5.652713  1.634844
H    -0.745511  -4.635275  0.225923
H    -1.977248  -5.607704  1.072315
Hg    2.282566  2.246886  1.884784
