34
Energy: -571606.951286 eV PBE+vdW (tier 2 basis)
C    1.853668  3.139087  2.929295
C    1.202514  2.314205  4.003207
O    1.213466  2.777185  5.175271
H    1.466361  4.164544  2.982598
H    1.692124  2.736079  1.923278
H    2.931606  3.194049  3.134288
N    0.645544  1.141520  3.633734
C    -0.219365  0.259791  4.427808
C    0.653325  -0.797200  5.151757
O    1.303289  -0.499138  6.199396
H    0.748750  0.897679  2.652234
H    -0.657677  0.868698  5.235975
C    -1.370857  -0.314316  3.586781
C    -2.543477  0.641397  3.282092
C    -2.306967  1.703314  2.199082
C    -3.600511  2.482735  1.851552
N    -4.584550  1.698395  1.180085
H    -1.791716  -1.157092  4.155361
H    -0.979724  -0.736739  2.644249
H    -2.866797  1.125103  4.217737
H    -3.388226  0.011517  2.967649
H    -1.914768  1.237472  1.280256
H    -1.567298  2.451911  2.515753
H    -3.295383  3.336036  1.205317
H    -4.053247  2.919912  2.751088
H    -5.572181  1.847421  1.366195
H    -4.371322  1.275297  0.279987
N    0.745572  -2.019382  4.652136
C    1.567205  -3.084575  5.238971
H    0.236005  -2.228090  3.798233
H    1.220144  -4.044214  4.847125
H    1.464017  -3.069300  6.328847
H    2.623410  -2.942492  4.977479
Hg    1.077030  1.587671  7.179211
