34
Energy: -571606.479816 eV PBE+vdW (tier 2 basis)
C    -2.799251  0.917032  0.712845
C    -1.716285  0.839976  1.758442
O    -1.119718  1.938567  2.000001
H    -2.730477  1.872505  0.185964
H    -3.781208  0.865267  1.206142
H    -2.713058  0.095615  -0.008895
N    -1.427939  -0.300642  2.371885
C    -2.091644  -1.603349  2.246649
C    -1.993828  -2.191234  3.675076
O    -0.995680  -1.906028  4.343678
H    -0.729762  -0.317727  3.127846
H    -3.129471  -1.454740  1.926620
C    -1.324686  -2.511670  1.245899
C    -1.898840  -3.925497  1.105847
C    -1.042353  -4.909906  0.307635
C    -0.990467  -4.575079  -1.250819
N    -0.283909  -5.549457  -1.984152
H    -0.277987  -2.563554  1.582921
H    -1.319778  -1.992902  0.274760
H    -2.921523  -3.892708  0.697422
H    -1.991008  -4.383481  2.108172
H    -1.456888  -5.921629  0.401051
H    -0.009375  -4.935552  0.681420
H    -0.490237  -3.601568  -1.366768
H    -2.023237  -4.517329  -1.619661
H    -0.753646  -6.359930  -2.380334
H    0.732599  -5.556747  -2.017791
N    -2.943079  -3.037732  4.145000
C    -4.294239  -3.290377  3.664822
H    -2.718672  -3.390253  5.077893
H    -4.411647  -2.979514  2.624087
H    -4.511898  -4.363520  3.735672
H    -5.028262  -2.752486  4.283196
Hg    0.341696  2.547239  3.717559
