34
Energy: -571606.847281 eV PBE+vdW (tier 2 basis)
C    -0.430653  -0.590870  -0.017729
C    -0.240371  0.039220  1.330984
O    0.856817  0.400939  1.764995
H    0.545662  -0.853146  -0.433099
H    -0.910754  0.137062  -0.690448
H    -1.072352  -1.480320  0.022453
N    -1.392414  0.211894  2.085014
C    -1.498892  0.656589  3.448325
C    -1.027144  2.131534  3.703264
O    -1.920129  2.799466  4.293267
H    -2.260115  -0.105381  1.657047
H    -2.577155  0.701439  3.652363
C    -0.962579  -0.310726  4.581151
C    0.517194  -0.666535  4.649129
C    0.710122  -1.693455  5.790025
C    2.209733  -2.066438  5.998244
N    2.769221  -2.879841  4.988397
H    -1.567604  -1.223390  4.466022
H    -1.288583  0.160624  5.521225
H    1.130599  0.223657  4.848556
H    0.882901  -1.108631  3.712270
H    0.136908  -2.610609  5.589494
H    0.343050  -1.292788  6.745413
H    2.204090  -2.628660  6.962312
H    2.833380  -1.176404  6.140674
H    2.392293  -3.806480  4.801889
H    3.689852  -2.686842  4.604460
N    0.172490  2.516268  3.320429
C    0.730449  3.859169  3.456451
H    0.699407  1.793164  2.793484
H    1.714717  3.863391  2.978728
H    0.858803  4.130203  4.512524
H    0.102154  4.603852  2.949078
Hg    -2.106590  5.070016  5.125792
