34
Energy: -571606.570621 eV PBE+vdW (tier 2 basis)
C    0.083575  -0.781612  0.585423
C    -0.243201  -0.424704  1.999930
O    0.619983  -0.491419  2.933215
H    0.804559  -0.045638  0.197571
H    -0.780865  -0.793067  -0.083314
H    0.569544  -1.764936  0.562153
N    -1.468940  -0.034606  2.377219
C    -2.722094  -0.078325  1.638543
C    -3.631100  0.947942  2.377059
O    -3.490306  1.077820  3.595666
H    -1.579693  0.251023  3.358373
H    -2.543373  0.240771  0.604850
C    -3.396837  -1.479735  1.613211
C    -3.799169  -2.116329  2.952455
C    -5.235322  -1.794117  3.411541
C    -5.580443  -2.491722  4.739800
N    -5.722059  -3.899722  4.641428
H    -2.672940  -2.142232  1.112218
H    -4.261863  -1.425809  0.935658
H    -3.080384  -1.848536  3.742449
H    -3.721830  -3.210646  2.846419
H    -5.958253  -2.101350  2.639722
H    -5.375328  -0.717275  3.567642
H    -6.552663  -2.050054  5.077883
H    -4.862920  -2.257364  5.539022
H    -5.519579  -4.501304  5.436301
H    -6.293282  -4.312286  3.906299
N    -4.556552  1.615152  1.661942
C    -4.723759  1.669260  0.211404
H    -5.066798  2.306491  2.211765
H    -5.715634  2.081589  0.000566
H    -4.675169  0.669681  -0.234090
H    -3.976149  2.322032  -0.261688
Hg    2.934860  -0.134080  2.715102
