34
Energy: -571606.663709 eV PBE+vdW (tier 2 basis)
C    -2.171639  -0.925229  0.468327
C    -1.316291  -0.609110  1.663277
O    -0.099790  -0.313964  1.373492
H    -3.205483  -1.145557  0.757361
H    -1.737906  -1.777197  -0.071281
H    -2.160489  -0.068420  -0.218161
N    -1.898761  -0.624114  2.857325
C    -1.322342  -0.579615  4.215038
C    -0.616462  0.758066  4.555328
O    0.642676  0.938040  4.469377
H    -2.841252  -1.142611  2.885241
H    -2.205261  -0.575345  4.864668
C    -0.519935  -1.837536  4.594610
C    -1.184112  -3.167801  4.195309
C    -2.485248  -3.580250  4.917162
C    -3.761285  -2.754400  4.724602
N    -4.026086  -2.350247  3.326273
H    -0.319853  -1.799984  5.675830
H    0.486268  -1.838418  4.117990
H    -0.448119  -3.956811  4.400929
H    -1.328967  -3.194897  3.104774
H    -2.305028  -3.653844  5.999732
H    -2.689317  -4.612810  4.591219
H    -3.754802  -1.840555  5.339939
H    -4.603286  -3.350819  5.120108
H    -3.996458  -3.160018  2.700468
H    -4.965246  -1.953529  3.240289
N    -1.343158  1.750759  5.047674
C    -2.772936  1.772543  5.373180
H    -0.804530  2.585371  5.288768
H    -3.056668  2.816205  5.539568
H    -2.979111  1.212181  6.295165
H    -3.371307  1.385731  4.541796
Hg    1.595195  -0.163966  2.770053
