34
Energy: -571607.817562 eV PBE+vdW (tier 2 basis)
C    0.360379  1.404748  0.642397
C    -0.079255  0.400758  1.670474
O    0.695512  -0.605060  1.793066
H    1.328953  1.817726  0.958410
H    -0.347969  2.228934  0.505750
H    0.525128  0.896636  -0.315554
N    -1.213787  0.689282  2.336522
C    -1.967966  0.198613  3.530619
C    -1.025751  -0.203486  4.683619
O    -0.099184  -1.048776  4.553212
H    -1.624113  1.550830  1.985717
H    -2.505848  1.098547  3.849122
C    -3.074923  -0.866887  3.231432
C    -2.417989  -2.196964  2.884408
C    -3.066803  -3.571599  2.720335
C    -2.040034  -4.649604  3.135523
N    -0.640700  -4.517086  2.536771
H    -3.721582  -0.484803  2.429845
H    -3.697048  -0.955031  4.134447
H    -1.720862  -2.336510  3.726013
H    -1.864554  -1.995486  1.946494
H    -3.434671  -3.736721  1.699422
H    -3.927805  -3.703816  3.390535
H    -2.394129  -5.653554  2.862911
H    -1.894904  -4.624457  4.222978
H    -0.025876  -5.204659  2.985938
H    -0.656186  -4.758850  1.538969
N    -1.240102  0.361542  5.873791
C    -2.216464  1.386993  6.257798
H    -0.600017  0.037168  6.598477
H    -2.038825  2.331217  5.727057
H    -2.095215  1.578072  7.327681
H    -3.246541  1.047429  6.093672
Hg    0.276352  -2.511396  2.654304
