34
Energy: -571606.801726 eV PBE+vdW (tier 2 basis)
C    -0.324378  0.537588  -0.095808
C    -0.268509  0.396556  1.397516
O    0.816776  0.661975  1.976678
H    0.569083  0.080358  -0.536233
H    -0.301537  1.607794  -0.346921
H    -1.224467  0.086215  -0.529075
N    -1.390195  -0.010588  2.035982
C    -1.579406  -0.019826  3.482513
C    -0.798327  -1.172205  4.168916
O    0.150941  -0.890775  4.959536
H    -2.214547  -0.139120  1.454691
H    -1.100019  0.885868  3.891205
C    -3.071847  0.072084  3.857581
C    -3.310664  0.068313  5.376374
C    -4.700696  0.579738  5.801567
C    -5.885214  -0.346295  5.501325
N    -5.897284  -1.534685  6.297454
H    -3.640872  -0.729170  3.364676
H    -3.433735  1.021026  3.431196
H    -2.567015  0.721869  5.857567
H    -3.143970  -0.939541  5.789000
H    -4.902710  1.549423  5.324139
H    -4.681487  0.783761  6.882866
H    -5.955611  -0.633093  4.439978
H    -6.816771  0.239889  5.690664
H    -6.528857  -2.291247  6.044651
H    -5.718920  -1.455184  7.297196
N    -1.099286  -2.455147  3.981632
C    -2.207929  -3.066460  3.251694
H    -0.494225  -3.091546  4.503481
H    -2.420908  -2.523544  2.327122
H    -3.111717  -3.123328  3.873123
H    -1.909523  -4.085171  2.983710
Hg    1.495235  0.884671  4.233576
