34
Energy: -571606.938268 eV PBE+vdW (tier 2 basis)
C    -0.899408  1.648925  0.455375
C    -1.023983  0.275343  1.049174
O    -0.321964  -0.645564  0.556841
H    0.063365  2.078173  0.768658
H    -1.708754  2.318214  0.769654
H    -0.883617  1.571343  -0.637457
N    -1.882979  0.112131  2.080826
C    -2.007527  -1.078676  2.921132
C    -2.748190  -2.211110  2.163588
O    -2.138938  -3.254803  1.797610
H    -2.360147  0.952587  2.398932
H    -0.996888  -1.479251  3.110019
C    -2.619346  -0.690772  4.281752
C    -2.520282  -1.740146  5.404258
C    -3.503116  -2.915677  5.334055
C    -3.442474  -3.747073  6.668537
N    -4.346641  -4.841764  6.700402
H    -3.665187  -0.362307  4.156413
H    -2.064539  0.198731  4.617840
H    -2.690499  -1.196716  6.345259
H    -1.486022  -2.114338  5.463846
H    -3.280590  -3.600347  4.503152
H    -4.534521  -2.555366  5.204219
H    -3.677462  -3.060911  7.497333
H    -2.417636  -4.122488  6.798781
H    -5.299440  -4.732378  7.034015
H    -4.051140  -5.785608  6.472659
N    -4.043862  -2.059276  1.914364
C    -4.863744  -3.028481  1.186330
H    -4.512263  -1.246517  2.306933
H    -4.236957  -3.563134  0.466457
H    -5.661885  -2.491178  0.664888
H    -5.310473  -3.755814  1.877322
Hg    0.106107  -2.892750  1.134834
