34
Energy: -571606.820773 eV PBE+vdW (tier 2 basis)
C    -1.852644  -0.235908  0.748588
C    -1.076578  -0.261810  2.036914
O    0.090962  -0.735210  1.989523
H    -2.918908  -0.025982  0.887809
H    -1.730365  -1.199052  0.238575
H    -1.412341  0.530274  0.094557
N    -1.699337  0.222292  3.132374
C    -1.345294  0.212510  4.566688
C    -0.406176  1.382270  4.923896
O    0.717177  1.557233  4.365913
H    -2.622774  0.597206  2.938335
H    -2.299691  0.408651  5.069473
C    -0.808406  -1.122505  5.127310
C    -1.659258  -2.377274  4.860596
C    -2.966440  -2.429815  5.658189
C    -3.663365  -3.834538  5.481528
N    -4.864161  -3.954962  6.225250
H    -0.673866  -0.980253  6.210540
H    0.205558  -1.327425  4.732974
H    -1.037055  -3.241890  5.133726
H    -1.859450  -2.480789  3.783782
H    -3.680311  -1.655345  5.340291
H    -2.773960  -2.282845  6.730813
H    -2.952406  -4.606184  5.811405
H    -3.880315  -3.984626  4.414310
H    -5.765197  -3.704514  5.831278
H    -4.860505  -4.261883  7.193019
N    -0.788684  2.256118  5.852360
C    -2.068295  2.352320  6.561592
H    -0.097472  2.982377  6.044277
H    -2.901614  2.528991  5.869475
H    -2.008603  3.209418  7.238222
H    -2.257619  1.456982  7.166384
Hg    1.883705  -0.155771  3.333378
