34
Energy: -571606.991719 eV PBE+vdW (tier 2 basis)
C    -0.513275  0.036105  -0.201272
C    -0.410204  -0.153791  1.287202
O    0.622903  -0.735115  1.719253
H    -0.259911  -0.907773  -0.699526
H    0.241260  0.772632  -0.511480
H    -1.504839  0.367726  -0.528348
N    -1.430402  0.313977  2.034831
C    -1.782593  0.112478  3.456856
C    -1.062475  1.121041  4.377617
O    0.189697  1.153733  4.559329
H    -2.147032  0.788902  1.494176
H    -2.849925  0.373102  3.495452
C    -1.680408  -1.335799  3.978316
C    -2.548276  -2.332966  3.187007
C    -2.567585  -3.712085  3.852004
C    -3.475493  -4.721753  3.051695
N    -3.536452  -6.007452  3.647100
H    -2.005326  -1.309303  5.029479
H    -0.639284  -1.690381  3.989405
H    -2.172814  -2.421920  2.156492
H    -3.575513  -1.940288  3.116015
H    -2.955998  -3.645659  4.878161
H    -1.555117  -4.137024  3.909284
H    -3.070916  -4.815829  2.033003
H    -4.491137  -4.303540  2.997645
H    -4.224421  -6.231184  4.359899
H    -2.842288  -6.720958  3.446273
N    -1.831265  1.994744  5.018038
C    -1.319915  3.003491  5.950874
H    -2.826153  2.004822  4.812636
H    -0.524120  2.566942  6.562756
H    -2.143174  3.332066  6.591023
H    -0.917703  3.865015  5.402636
Hg    1.690152  -0.410955  3.758169
