34
Energy: -571606.544435 eV PBE+vdW (tier 2 basis)
C    -1.206948  -0.012052  0.061648
C    -0.860787  0.094683  1.515562
O    0.310350  0.498929  1.800089
H    -2.113665  -0.608186  -0.092871
H    -0.368061  -0.464635  -0.480132
H    -1.349998  0.997907  -0.349329
N    -1.785141  -0.272972  2.421443
C    -1.626735  -0.049187  3.846538
C    -0.450703  -0.874250  4.465836
O    0.527050  -0.249534  4.989266
H    -2.768272  -0.403510  2.038679
H    -1.267523  0.988142  3.999792
C    -2.937377  -0.163559  4.677166
C    -4.074531  -1.085178  4.180355
C    -5.338313  -0.351027  3.694224
C    -5.139904  0.581572  2.503160
N    -4.459123  -0.083894  1.380487
H    -3.320595  0.861661  4.777526
H    -2.642279  -0.441260  5.698469
H    -4.372774  -1.747462  5.002542
H    -3.728545  -1.757336  3.382512
H    -5.773154  0.233921  4.517394
H    -6.092781  -1.111186  3.439986
H    -4.547839  1.470849  2.771155
H    -6.127214  0.967434  2.188128
H    -4.937663  -0.944102  1.098779
H    -4.410743  0.522643  0.559334
N    -0.439347  -2.197419  4.546876
C    -1.461236  -3.184125  4.204491
H    0.385686  -2.560300  5.030299
H    -0.951578  -4.137244  4.028510
H    -1.989568  -2.895376  3.293372
H    -2.172780  -3.316621  5.029678
Hg    1.155260  1.511191  3.680767
