11
Energy: -597883.959848 eV PBE+vdW (tier 2 basis)
N    0.029869  -0.130160  0.096054
C    0.073482  -0.558930  1.541320
C    1.427434  -0.296551  2.179692
O    1.575983  -0.620676  3.402616
H    0.729256  -0.627803  -0.476892
H    -0.900015  -0.322803  -0.310118
H    -0.707344  -0.017421  2.093110
H    -0.160572  -1.631081  1.597692
O    2.371208  0.229509  1.502526
H    0.215025  0.879056  -0.014477
Pb    3.779675  0.111859  3.440479
