11
Energy: -597883.556717 eV PBE+vdW (tier 2 basis)
N    0.416387  -0.192874  0.035559
C    -0.008171  0.144784  1.422902
C    1.120495  -0.019191  2.417259
O    2.277764  -0.398021  2.085541
H    -0.180414  -0.939316  -0.340876
H    0.256439  0.610369  -0.584332
H    -0.371094  1.182076  1.485803
H    -0.845572  -0.491336  1.748061
O    0.794565  0.262793  3.633594
H    1.534201  0.154177  4.276508
Pb    2.824403  -0.887463  -0.062022
