36
Energy: -175308.674656 eV PBE+vdW (tier 2 basis)
C    0.668087  0.629145  1.373486
C    -0.284158  -0.453691  1.760942
O    -0.273169  -1.548926  1.124603
H    1.104243  1.132860  2.241752
H    0.143111  1.380783  0.761321
H    1.458332  0.196951  0.751699
N    -1.167965  -0.293888  2.783594
C    -2.008140  0.890546  3.026183
C    -2.863679  1.132243  1.748644
O    -3.000049  0.234238  0.865182
H    -1.616378  -1.171314  3.043804
H    -2.728130  0.556353  3.790681
C    -1.283942  2.121301  3.607573
C    -0.478876  1.800000  4.874561
C    0.119659  3.069184  5.515414
N    0.870697  2.810448  6.732127
C    0.317408  2.688396  7.978343
N    1.144748  2.432498  9.021863
N    -0.969461  2.767352  8.266429
H    -2.053768  2.864293  3.871359
H    -0.648488  2.598155  2.848250
H    0.332164  1.093361  4.645870
H    -1.124715  1.296469  5.610966
H    -0.672153  3.802341  5.732698
H    0.804919  3.565608  4.814531
H    1.869065  2.654442  6.633328
H    0.715973  2.382182  9.940329
H    2.154491  2.493041  8.967674
H    -1.535605  3.056742  7.463568
N    -3.496508  2.289385  1.616040
C    -4.404291  2.597151  0.505079
H    -3.357686  3.002291  2.324641
H    -4.846174  3.580356  0.684487
H    -5.199198  1.845009  0.447128
H    -3.855829  2.613069  -0.444165
Cd    -2.324628  -1.851298  0.258875
