36
Energy: -175310.80052 eV PBE+vdW (tier 2 basis)
C    0.736219  -0.948751  0.558531
C    0.274690  -0.470981  1.893749
O    0.996346  -0.837523  2.910790
H    1.758215  -0.592983  0.372465
H    0.076655  -0.621869  -0.251473
H    0.776437  -2.047168  0.570737
N    -0.824808  0.247251  1.974778
C    -1.573364  0.723881  3.138356
C    -2.991249  0.990609  2.528392
O    -3.020569  1.290331  1.333042
H    -1.345338  0.509726  1.114378
H    -1.594406  -0.063665  3.907777
C    -0.965085  2.037096  3.693582
C    -1.450565  2.451700  5.088989
C    -0.479942  3.399005  5.818046
N    0.826746  2.756097  6.042777
C    1.099671  1.801447  6.968503
N    0.663317  1.959702  8.222171
N    1.800518  0.717871  6.586738
H    -1.139083  2.840160  2.962359
H    0.136553  1.911558  3.700403
H    -1.604083  1.564191  5.725825
H    -2.428146  2.947720  5.018545
H    -0.912066  3.717480  6.773986
H    -0.292728  4.313242  5.241495
H    1.524228  2.858318  5.312847
H    0.692090  1.199727  8.893818
H    0.440958  2.883787  8.580113
H    2.257198  0.187341  7.329074
N    -4.087242  0.930360  3.304079
C    -4.257061  0.449692  4.669708
H    -4.937274  1.176163  2.797346
H    -5.145892  -0.189879  4.715458
H    -4.390934  1.277488  5.379034
H    -3.401656  -0.157600  4.982822
Cd    1.399028  -0.096172  4.743628
