36
Energy: -175310.372861 eV PBE+vdW (tier 2 basis)
C    1.440229  -2.006861  0.209752
C    0.831826  -0.783944  0.805474
O    1.617216  0.222934  1.086162
H    2.003630  -1.754124  -0.697824
H    0.702557  -2.784519  -0.011599
H    2.171291  -2.405751  0.929815
N    -0.453583  -0.772636  1.088484
C    -1.230151  0.150149  1.922561
C    -2.486256  -0.714651  2.271365
O    -2.716608  -1.690447  1.546937
H    -1.059863  -1.599764  0.884162
H    -0.641229  0.382576  2.821029
C    -1.641756  1.479676  1.248168
C    -2.527891  1.397255  -0.017241
C    -1.996325  2.157457  -1.246299
N    -1.649366  3.563327  -0.971618
C    -0.414632  4.041190  -0.755133
N    -0.241222  5.178769  -0.072088
N    0.725465  3.417460  -1.205062
H    -0.721993  2.058754  1.042098
H    -2.142039  2.080609  2.018523
H    -3.534798  1.763036  0.224203
H    -2.670652  0.353828  -0.334473
H    -2.747570  2.147268  -2.046046
H    -1.110238  1.661809  -1.660325
H    -2.433484  4.191631  -0.801943
H    0.634705  5.680166  -0.185995
H    -1.007753  5.671837  0.375501
H    0.556765  2.963237  -2.107119
N    -3.266957  -0.355027  3.300590
C    -3.076779  0.702757  4.287665
H    -4.077378  -0.961306  3.419986
H    -3.431747  0.345830  5.260386
H    -3.641830  1.609234  4.028494
H    -2.016390  0.953216  4.401054
Cd    1.502594  1.967778  0.049966
