36
Energy: -175310.160749 eV PBE+vdW (tier 2 basis)
C    0.721757  1.817392  1.242151
C    0.298640  1.020260  2.438001
O    1.110396  0.825503  3.386516
H    1.030372  2.815534  1.581827
H    -0.062977  1.927118  0.485727
H    1.604600  1.351435  0.785241
N    -0.979491  0.559405  2.447611
C    -1.634806  -0.172912  3.532558
C    -0.619058  -1.202402  4.092134
O    -0.314413  -1.032403  5.335524
H    -1.534259  0.749752  1.617098
H    -1.735252  0.529793  4.370277
C    -3.024698  -0.731147  3.159885
C    -4.162531  -0.089263  3.967624
C    -4.116228  -0.309186  5.483554
N    -4.319068  -1.715709  5.870786
C    -3.665848  -2.377801  6.844373
N    -4.288284  -3.385122  7.475571
N    -2.410209  -2.062599  7.180403
H    -3.033257  -1.820674  3.304018
H    -3.218171  -0.577499  2.088175
H    -5.123653  -0.454773  3.576037
H    -4.174172  0.998570  3.801250
H    -4.902983  0.297314  5.956315
H    -3.167325  0.029320  5.917429
H    -5.206864  -2.124013  5.589434
H    -3.771801  -4.062060  8.025037
H    -5.297950  -3.471229  7.470662
H    -1.769690  -1.568158  6.551485
N    0.122558  -1.962801  3.320475
C    -0.091906  -2.295804  1.927684
H    -2.011385  -2.441726  8.031014
H    0.561662  -1.707868  1.266662
H    -1.137612  -2.149394  1.623489
H    0.148242  -3.355858  1.775381
Cd    1.824026  -1.057466  4.459506
