36
Energy: -175308.523392 eV PBE+vdW (tier 2 basis)
C    0.146430  -0.641432  0.526562
C    -0.152523  -0.179131  1.917789
O    0.763131  -0.114107  2.814738
H    0.825555  0.078635  0.046797
H    -0.740144  -0.744113  -0.104601
H    0.660376  -1.610302  0.571357
N    -1.372106  0.174452  2.299328
C    -2.650363  0.149653  1.583143
C    -3.466355  1.281836  2.275476
O    -3.386406  1.382093  3.499837
H    -1.487550  0.496539  3.271058
H    -2.488331  0.371501  0.519657
C    -3.353170  -1.216046  1.770392
C    -4.773136  -1.285363  1.193299
C    -5.429022  -2.653368  1.492877
N    -6.819848  -2.729331  1.073117
C    -7.297082  -2.999643  -0.178003
N    -6.443641  -3.376902  -1.160637
N    -8.568318  -2.876803  -0.523717
H    -3.381984  -1.424081  2.850830
H    -2.715909  -1.989936  1.314069
H    -4.766601  -1.107705  0.106684
H    -5.403268  -0.503394  1.640038
H    -5.411689  -2.844421  2.574117
H    -4.859374  -3.473600  1.029196
H    -7.526676  -2.476353  1.757028
H    -6.875093  -3.634983  -2.043120
H    -5.505461  -3.708954  -0.978582
H    -9.177311  -2.635423  0.267332
N    -4.230248  2.052565  1.480828
C    -5.045492  3.153661  1.993162
H    -4.154557  1.942044  0.475150
H    -5.995743  3.187914  1.449637
H    -4.527348  4.113896  1.871919
H    -5.231854  2.984513  3.057595
Cd    2.946373  -0.011007  2.740002
