36
Energy: -175309.803064 eV PBE+vdW (tier 2 basis)
C    1.778766  0.748213  1.389019
C    1.224980  0.840376  2.766134
O    1.880893  1.466395  3.668025
H    1.852956  1.748073  0.939304
H    1.206352  0.077202  0.742912
H    2.810301  0.374153  1.472905
N    0.045857  0.259608  3.095468
C    -1.224673  0.379054  2.364476
C    -1.794271  1.803033  2.592353
O    -1.553303  2.445124  3.736538
H    -0.085603  0.138808  4.102615
H    -1.022062  0.266403  1.292190
C    -2.162077  -0.743433  2.864631
C    -3.615167  -0.768404  2.366974
C    -3.851782  -1.052346  0.879953
N    -3.617372  0.135008  0.051333
C    -3.915042  0.215585  -1.245657
N    -4.375446  -0.848510  -1.918940
N    -3.730357  1.378394  -1.898314
H    -2.200349  -0.680836  3.964582
H    -1.671188  -1.699245  2.627222
H    -4.147523  0.149918  2.653895
H    -4.112514  -1.576961  2.919675
H    -4.898206  -1.375146  0.759851
H    -3.204534  -1.881596  0.546162
H    -3.281397  0.992491  0.544224
H    -4.643266  -0.784300  -2.893235
H    -4.513431  -1.741045  -1.464137
H    -3.983027  1.485852  -2.872344
N    -2.590371  2.265046  1.696304
C    -3.158914  3.600651  1.797881
H    -3.478606  2.216766  -1.392441
H    -3.467069  3.939237  0.801583
H    -4.060114  3.580008  2.429900
H    -2.461651  4.330015  2.230112
Cd    0.333304  2.699973  4.632368
