36
Energy: -175308.639413 eV PBE+vdW (tier 2 basis)
C    -0.030785  -0.374445  -0.628227
C    0.219793  0.013724  0.788423
O    1.421838  0.121918  1.202374
H    -0.547038  -1.346128  -0.675565
H    0.925111  -0.461432  -1.151741
H    -0.671045  0.359694  -1.132599
N    -0.786746  0.255183  1.667392
C    -2.017233  -0.534145  1.852918
C    -1.594509  -1.950851  2.317384
O    -0.432706  -2.196672  2.806051
H    -0.474990  0.753835  2.500145
H    -2.493243  -0.075403  2.735039
C    -3.023712  -0.463400  0.675981
C    -4.469778  -0.095883  1.040710
C    -5.257283  -1.018604  1.972578
N    -5.283055  -2.466837  1.628530
C    -5.727493  -2.929114  0.369998
N    -6.621357  -3.954393  0.410067
N    -5.188174  -2.406069  -0.690320
H    -3.017945  -1.389910  0.085300
H    -2.674864  0.327192  0.001716
H    -5.010241  0.004433  0.092307
H    -4.492757  0.899026  1.513049
H    -6.288161  -0.634216  2.036673
H    -4.854185  -0.980488  2.996563
H    -5.692423  -2.998408  2.397004
H    -7.202673  -4.145928  1.218864
H    -6.873082  -4.434417  -0.447031
H    -5.596763  -2.775751  -1.554425
N    -2.474339  -2.926443  2.246984
C    -2.209790  -4.286497  2.722150
H    -3.428797  -2.742041  1.868930
H    -3.111670  -4.883362  2.561671
H    -1.957915  -4.283471  3.789361
H    -1.379919  -4.735303  2.163507
Cd    1.507865  -1.186103  2.976966
