36
Energy: -175311.124223 eV PBE+vdW (tier 2 basis)
C    -0.814318  1.625122  0.137331
C    -1.040585  0.225926  0.591830
O    -0.146424  -0.424839  1.192038
H    -1.456667  1.914272  -0.700142
H    0.242324  1.738452  -0.133929
H    -0.988506  2.312561  0.981260
N    -2.258810  -0.383025  0.384907
C    -3.552974  0.217696  0.681732
C    -3.539180  0.755234  2.135655
O    -2.789956  0.247024  3.032558
H    -2.236889  -1.413241  0.395471
H    -3.749675  1.055660  -0.004389
C    -4.671448  -0.835931  0.496514
C    -4.672470  -2.040867  1.469927
C    -4.118557  -3.381326  0.976358
N    -2.658584  -3.462023  0.614262
C    -1.775221  -4.091222  1.486971
N    -1.160709  -5.204343  1.069096
N    -1.560014  -3.548245  2.679697
H    -4.631569  -1.173673  -0.550126
H    -5.627163  -0.305492  0.595521
H    -5.720652  -2.260694  1.720018
H    -4.226203  -1.776102  2.441029
H    -4.660266  -3.683689  0.070766
H    -4.326250  -4.143061  1.739397
H    -2.534128  -3.789701  -0.342115
H    -1.520446  -5.755078  0.295965
H    -0.364966  -5.590244  1.568904
H    -1.054635  -4.144426  3.334837
N    -4.355549  1.756548  2.419558
C    -4.537200  2.365032  3.740186
H    -4.910192  2.137746  1.655901
H    -5.568485  2.209974  4.079273
H    -4.338821  3.441074  3.675621
H    -3.843824  1.903952  4.446350
Cd    -1.440888  -1.434245  2.779609
