36
Energy: -175309.473216 eV PBE+vdW (tier 2 basis)
C    -3.136038  -0.841128  -0.261192
C    -1.767071  -0.421836  0.145674
O    -0.831696  -0.402989  -0.722870
H    -3.559594  -0.119296  -0.973611
H    -3.810166  -0.978947  0.588688
H    -3.043799  -1.791470  -0.807255
N    -1.488448  -0.074769  1.426689
C    -2.248614  0.880642  2.243441
C    -1.934869  2.328434  1.771779
O    -0.764630  2.593930  1.188162
H    -0.486934  -0.056732  1.632536
H    -3.317276  0.710871  2.065050
C    -1.902060  0.702114  3.737676
C    -2.731975  -0.327951  4.519910
C    -4.258421  -0.118647  4.503413
N    -4.592022  1.311493  4.560577
C    -5.678330  1.888173  4.021186
N    -6.845350  1.231232  3.992253
N    -5.540016  3.110294  3.494428
H    -1.964309  1.691176  4.211771
H    -0.838809  0.432132  3.827749
H    -2.374607  -0.311362  5.558977
H    -2.537678  -1.345709  4.154161
H    -4.699123  -0.661401  5.351596
H    -4.707784  -0.530872  3.587121
H    -3.838386  1.954218  4.779280
H    -7.632831  1.590526  3.464795
H    -7.036068  0.488348  4.655721
H    -6.337678  3.709205  3.314268
N    -2.775349  3.245327  2.088917
C    -2.588681  4.621492  1.651730
H    -4.617191  3.360073  3.115543
H    -1.984180  5.166528  2.393477
H    -3.564044  5.120924  1.599585
H    -2.086238  4.700959  0.679313
Cd    0.135099  1.559421  -0.410287
