36
Energy: -175309.182868 eV PBE+vdW (tier 2 basis)
C    1.763762  1.313828  0.700899
C    0.622488  2.215868  1.054120
O    0.687078  3.438827  0.739777
H    1.967249  1.407857  -0.374332
H    1.582459  0.261992  0.946695
H    2.667284  1.658055  1.222215
N    -0.441411  1.667262  1.674460
C    -1.726890  2.319368  1.969211
C    -1.633418  3.029900  3.339188
O    -1.016997  4.134380  3.457484
H    -0.365000  0.683070  1.918103
H    -1.853111  3.126409  1.229936
C    -2.902854  1.339024  1.815898
C    -3.328071  0.989957  0.376844
C    -2.410866  0.024796  -0.403425
N    -3.015020  -0.470138  -1.627726
C    -3.911322  -1.509527  -1.681780
N    -4.457565  -1.806950  -2.887131
N    -4.310575  -2.247526  -0.665769
H    -3.775396  1.804701  2.296502
H    -2.696445  0.411110  2.379153
H    -3.470642  1.913902  -0.204261
H    -4.322257  0.525353  0.443987
H    -2.134661  -0.836374  0.226569
H    -1.468849  0.510030  -0.691223
H    -2.862192  0.074510  -2.470327
H    -5.087268  -2.601975  -2.918653
H    -4.157999  -1.395238  -3.762319
H    -3.820163  -2.026325  0.204828
N    -2.178255  2.470526  4.407150
C    -2.119687  3.055474  5.752178
H    -2.682698  1.596843  4.290961
H    -2.691084  2.416990  6.430165
H    -2.552741  4.062353  5.744029
H    -1.080076  3.116858  6.094756
Cd    0.069988  5.227904  1.880874
