36
Energy: -175310.993491 eV PBE+vdW (tier 2 basis)
C    0.410992  -0.671347  0.025502
C    0.118064  -0.528364  1.479710
O    0.884223  -1.189714  2.288616
H    0.338695  -1.733047  -0.249174
H    1.445045  -0.358624  -0.171444
H    -0.276327  -0.089481  -0.596690
N    -0.889375  0.227518  1.868129
C    -1.434451  0.455891  3.207092
C    -2.899800  0.912889  2.900108
O    -3.056981  1.581569  1.880249
H    -1.448893  0.745197  1.169656
H    -1.429287  -0.491260  3.774117
C    -0.661174  1.598396  3.922567
C    -1.114012  1.942577  5.345231
C    -0.688357  0.979382  6.459526
N    0.728996  1.128418  6.844947
C    1.622135  0.133623  7.042555
N    2.541580  0.283440  8.007427
N    1.608109  -0.977747  6.282586
H    -0.760030  2.487244  3.282936
H    0.428671  1.384578  3.913107
H    -2.208062  2.038550  5.374716
H    -0.740855  2.947558  5.590626
H    -0.862118  -0.074658  6.203661
H    -1.296467  1.173110  7.355590
H    0.949289  2.002699  7.316770
H    3.386678  -0.277515  8.024770
H    2.411535  0.938032  8.772155
H    2.143070  -1.751906  6.672464
N    -3.895704  0.586425  3.745696
C    -3.888507  -0.307229  4.897900
H    -4.795888  0.972252  3.463518
H    -3.190956  -1.141294  4.754797
H    -4.887407  -0.742407  5.004974
H    -3.649248  0.216683  5.834380
Cd    1.169949  -1.042614  4.285938
