36
Energy: -175308.813264 eV PBE+vdW (tier 2 basis)
C    0.000540  0.220065  0.011632
C    -0.190403  0.281920  1.497144
O    0.879853  0.504599  2.176789
H    0.733993  0.974918  -0.291191
H    -0.934740  0.367888  -0.537736
H    0.416839  -0.763652  -0.249922
N    -1.366949  0.102041  2.065273
C    -2.690831  -0.109919  1.468012
C    -3.635429  0.336784  2.624857
O    -3.168156  0.427303  3.769387
H    -1.492871  0.204011  3.091870
H    -2.824148  0.563516  0.608435
C    -2.877748  -1.582040  1.015863
C    -4.033232  -1.833607  0.033261
C    -5.376106  -2.201200  0.707553
N    -6.518193  -2.074912  -0.177529
C    -7.060118  -0.878080  -0.561620
N    -8.104191  -0.908325  -1.420065
N    -6.517527  0.223505  -0.065798
H    -2.951628  -2.230929  1.901976
H    -1.945281  -1.873032  0.513156
H    -3.752974  -2.655524  -0.638287
H    -4.183629  -0.949749  -0.602614
H    -5.547136  -1.569202  1.591210
H    -5.351789  -3.241387  1.053423
H    -6.946519  -2.929209  -0.520578
H    -8.556756  -0.048865  -1.704048
H    -8.496923  -1.769486  -1.782095
H    -7.005853  1.058760  -0.402820
N    -4.916861  0.616135  2.332447
C    -5.842385  1.065815  3.364322
H    -5.291791  0.543286  1.366747
H    -6.854908  1.050077  2.952299
H    -5.597385  2.086267  3.691773
H    -5.785086  0.411382  4.243391
Cd    1.348896  0.815010  4.266258
