36
Energy: -175310.406978 eV PBE+vdW (tier 2 basis)
C    0.944524  1.130025  0.469402
C    0.489617  0.953891  1.882372
O    1.393092  0.764955  2.768215
H    0.117635  1.270790  -0.234476
H    1.547161  0.263782  0.168162
H    1.604688  2.008157  0.425601
N    -0.821914  1.021255  2.145399
C    -1.502903  1.157878  3.456940
C    -1.870319  -0.217262  4.049871
O    -0.996408  -0.803888  4.872499
H    -1.425501  1.121985  1.332401
H    -0.777710  1.636397  4.136948
C    -2.671976  2.141548  3.286187
C    -3.350442  2.577561  4.602039
C    -4.632748  1.839363  5.011206
N    -5.754865  2.061539  4.092879
C    -6.290831  1.163048  3.250689
N    -7.492461  1.421257  2.705754
N    -5.641444  0.039502  2.936992
H    -3.403926  1.717542  2.582127
H    -2.257870  3.032489  2.793831
H    -3.582565  3.649283  4.529628
H    -2.644200  2.495943  5.442703
H    -4.947370  2.197680  6.000772
H    -4.472836  0.760355  5.103354
H    -6.227457  2.957845  4.157446
H    -7.853845  0.863426  1.942089
H    -8.109857  2.124676  3.092384
H    -6.139921  -0.704033  2.463174
N    -2.999907  -0.761034  3.771235
C    -3.286218  -2.109822  4.259274
H    -4.648753  -0.136358  3.204084
H    -4.148680  -2.510815  3.715296
H    -3.537712  -2.094073  5.330411
H    -2.433591  -2.789379  4.130923
Cd    0.987028  -0.286737  4.578213
