36
Energy: -175308.671968 eV PBE+vdW (tier 2 basis)
C    -0.226193  0.120900  0.199194
C    -0.167268  0.226450  1.681425
O    0.953793  0.162462  2.280384
H    0.490734  0.808034  -0.267211
H    -1.239349  0.270889  -0.196601
H    0.103799  -0.896597  -0.066892
N    -1.305011  0.363053  2.409878
C    -2.337446  1.372245  2.125511
C    -1.655296  2.740976  2.333200
O    -0.808276  2.894046  3.282312
H    -1.175164  0.189354  3.408703
H    -2.673376  1.245829  1.087398
C    -3.498833  1.148991  3.127935
C    -4.823673  1.893360  2.895054
C    -5.794438  1.212098  1.907668
N    -5.256265  1.159717  0.559945
C    -4.754590  0.070273  -0.113903
N    -5.346206  -1.132718  0.110318
N    -3.714005  0.314148  -0.882036
H    -3.123654  1.405160  4.131476
H    -3.688025  0.064277  3.135936
H    -4.654689  2.939466  2.597052
H    -5.349366  1.954188  3.858568
H    -6.748511  1.760227  1.906236
H    -6.011177  0.189539  2.241286
H    -4.960272  2.036689  0.143798
H    -4.983730  -1.950212  -0.366055
H    -6.323529  -1.182226  0.379430
H    -3.469674  -0.494617  -1.463328
N    -1.935062  3.782259  1.562251
C    -2.813315  3.879591  0.395071
H    -1.446631  4.637928  1.833485
H    -2.911846  2.907579  -0.100896
H    -2.359008  4.579835  -0.314101
H    -3.798871  4.272145  0.677987
Cd    1.064444  1.808014  3.767453
