36
Energy: -175310.923367 eV PBE+vdW (tier 2 basis)
C    0.970705  -0.958067  -0.083150
C    0.648303  -0.271013  1.201238
O    1.639064  0.271205  1.835280
H    1.438648  -0.246282  -0.775677
H    0.088452  -1.405439  -0.551532
H    1.711465  -1.745445  0.115870
N    -0.593902  -0.280307  1.640524
C    -1.138876  0.160163  2.921537
C    -2.487507  -0.634500  3.000819
O    -3.008971  -0.964639  1.936147
H    -1.346695  -0.732773  1.087595
H    -0.452647  -0.134114  3.732538
C    -1.403627  1.685425  2.941036
C    -1.672327  2.288980  4.334313
C    -0.810582  3.512353  4.657315
N    0.614227  3.089927  4.861911
C    1.633168  4.095867  4.705416
N    1.584596  5.213031  5.423249
N    2.533763  3.771622  3.809697
H    -2.235307  1.900698  2.256120
H    -0.540669  2.199502  2.469660
H    -1.517251  1.540279  5.127401
H    -2.724206  2.588381  4.419930
H    -1.200670  4.023178  5.550201
H    -0.825942  4.230898  3.826215
H    0.714417  2.635851  5.776735
H    0.864636  5.362014  6.122756
H    2.274360  5.952927  5.317452
H    3.320714  4.399473  3.634837
N    -3.004954  -0.853699  4.219910
C    -4.275019  -1.556255  4.421229
H    -2.435124  -0.665823  5.037026
H    -4.106100  -2.624947  4.605599
H    -4.883656  -1.444098  3.519908
H    -4.799938  -1.118253  5.276287
Cd    1.873571  1.934548  2.991590
