36
Energy: -175308.541003 eV PBE+vdW (tier 2 basis)
C    -0.638535  -0.378024  -0.290572
C    -0.227578  -0.029426  1.095122
O    1.009141  0.003087  1.398724
H    -0.234626  0.357864  -1.000478
H    -1.723851  -0.490324  -0.416509
H    -0.152967  -1.332793  -0.546248
N    -1.147793  0.232098  2.058090
C    -2.278396  1.151942  1.897030
C    -1.664534  2.567386  1.776163
O    -0.575115  2.845506  2.384764
H    -0.759296  0.233786  3.003087
H    -2.809590  0.883548  0.977210
C    -3.190467  1.030665  3.149395
C    -4.658989  1.473479  3.033949
C    -5.650079  0.442393  2.449427
N    -5.444826  0.111521  1.042974
C    -4.592214  -0.833353  0.528279
N    -4.122677  -1.803353  1.372504
N    -4.107740  -0.800383  -0.691354
H    -2.715949  1.598865  3.964316
H    -3.155766  -0.026995  3.448015
H    -4.755245  2.426652  2.496116
H    -5.016166  1.684294  4.052351
H    -6.667659  0.843634  2.542609
H    -5.632690  -0.474421  3.053889
H    -5.892080  0.710663  0.356588
H    -3.634059  -2.552695  0.890426
H    -4.712915  -2.117202  2.136120
H    -4.553623  -0.090475  -1.281068
N    -2.256300  3.526617  1.077538
C    -3.479473  3.498984  0.277992
H    -1.762674  4.421081  1.109753
H    -3.830357  2.472579  0.146552
H    -3.266225  3.930079  -0.707365
H    -4.264831  4.095492  0.758815
Cd    1.430231  1.875469  2.509732
