36
Energy: -175309.658221 eV PBE+vdW (tier 2 basis)
C    1.453634  0.074832  0.922237
C    0.111039  0.718003  0.984878
O    -0.142217  1.735024  0.259773
H    1.612561  -0.379666  -0.066291
H    1.614280  -0.668455  1.708374
H    2.207687  0.869304  1.016263
N    -0.853994  0.235154  1.807405
C    -1.217942  -1.187321  1.893623
C    -2.473050  -1.424323  1.009620
O    -2.941603  -0.466266  0.202371
H    -1.653682  0.863933  1.890404
H    -0.401913  -1.751558  1.419400
C    -1.350764  -1.717609  3.329941
C    -2.473955  -1.112375  4.180868
C    -2.469193  -1.738420  5.584606
N    -3.512352  -1.223071  6.478147
C    -4.668364  -1.826624  6.787494
N    -5.387055  -1.387563  7.831006
N    -5.121676  -2.861744  6.067616
H    -0.379897  -1.564667  3.825185
H    -1.497996  -2.803425  3.245237
H    -3.448265  -1.281301  3.697316
H    -2.348388  -0.022816  4.282523
H    -1.506520  -1.551578  6.080476
H    -2.570300  -2.831596  5.530687
H    -3.324068  -0.342669  6.947210
H    -4.979217  -0.793160  8.542693
H    -6.348715  -1.675892  7.967252
H    -4.716986  -3.103124  5.172962
N    -3.071853  -2.540903  1.131634
C    -4.096440  -3.052073  0.254237
H    -5.859300  -3.459546  6.420786
H    -3.955529  -2.744260  -0.790777
H    -5.087407  -2.707881  0.589844
H    -4.097485  -4.147821  0.315960
Cd    -2.025207  1.167209  -0.793828
