36
Energy: -175309.194145 eV PBE+vdW (tier 2 basis)
C    -0.038901  0.286375  0.012581
C    -0.133576  0.285495  1.505973
O    0.866297  0.648342  2.183231
H    0.169716  1.310818  -0.325282
H    -0.946901  -0.076874  -0.480649
H    0.816052  -0.330364  -0.293152
N    -1.301032  -0.102155  2.065266
C    -1.612472  -0.020148  3.492485
C    -0.878620  -1.121506  4.299271
O    0.094804  -0.786614  5.044690
H    -2.056632  -0.338873  1.428218
H    -1.163736  0.912534  3.870264
C    -3.130625  0.092888  3.721626
C    -3.515389  0.186120  5.205951
C    -5.005476  0.469890  5.439458
N    -5.376314  1.790241  4.976788
C    -6.631541  2.249435  4.663171
N    -7.688691  1.406557  4.798266
N    -6.658674  3.487711  4.222404
H    -3.659551  -0.748137  3.250808
H    -3.459494  0.999573  3.191105
H    -2.920776  0.967633  5.706821
H    -3.275700  -0.751554  5.728474
H    -5.220730  0.353977  6.517344
H    -5.620795  -0.274170  4.907081
H    -4.697135  2.546722  5.012283
H    -8.613090  1.749836  4.565029
H    -7.658263  0.588686  5.396105
H    -7.604651  3.807677  3.989235
N    -1.224141  -2.403641  4.249550
C    -2.304021  -3.067153  3.519027
H    -0.640129  -3.000392  4.836988
H    -2.034712  -4.122041  3.408826
H    -2.421917  -2.646055  2.516266
H    -3.253936  -3.010335  4.066122
Cd    1.592507  0.676628  4.288917
