36
Energy: -175309.100654 eV PBE+vdW (tier 2 basis)
C    0.008788  -0.041856  -0.301468
C    0.161132  -0.110946  1.173301
O    1.299336  -0.386073  1.685417
H    0.825395  0.534481  -0.751065
H    -0.970785  0.340920  -0.604324
H    0.106428  -1.074790  -0.677577
N    -0.898888  0.070631  2.003559
C    -1.899602  1.132581  1.949270
C    -1.309048  2.379885  2.640571
O    -0.242834  2.372307  3.368480
H    -0.811567  -0.395473  2.910948
H    -2.093221  1.405202  0.889000
C    -3.204566  0.604605  2.592192
C    -4.450913  1.501469  2.586487
C    -4.950200  1.965895  1.211004
N    -4.333889  3.229246  0.726719
C    -3.700211  3.261422  -0.526706
N    -3.929079  4.379140  -1.266975
N    -2.893978  2.281942  -0.820936
H    -2.993237  0.309720  3.633586
H    -3.438521  -0.321817  2.046769
H    -4.332106  2.364950  3.258021
H    -5.252854  0.902753  3.040808
H    -6.034429  2.131112  1.264532
H    -4.775933  1.197103  0.448386
H    -4.924439  4.040424  0.900732
H    -3.428500  4.513472  -2.137825
H    -4.768963  4.935550  -1.150307
H    -2.540210  2.361547  -1.777661
N    -1.954440  3.512919  2.477391
C    -1.551064  4.788407  3.073262
H    -2.808627  3.491503  1.882185
H    -2.244077  5.560399  2.729068
H    -0.532896  5.052876  2.764363
H    -1.586787  4.732207  4.167826
Cd    1.369556  0.941213  3.431230
