36
Energy: -175310.679418 eV PBE+vdW (tier 2 basis)
C    -1.857957  0.058549  -0.877509
C    -1.012887  0.855414  0.045337
O    -0.021721  1.516316  -0.407014
H    -2.393372  0.730726  -1.564141
H    -2.559509  -0.601903  -0.360764
H    -1.188544  -0.544751  -1.509300
N    -1.266922  0.881464  1.384515
C    -2.567271  1.175268  1.991947
C    -3.173386  2.402192  1.271065
O    -2.439498  3.235727  0.678772
H    -0.472164  1.205957  1.935678
H    -3.243660  0.318996  1.850537
C    -2.406225  1.375537  3.529281
C    -1.222507  2.211946  4.079387
C    -1.453707  3.631337  4.629037
N    -1.884799  4.703919  3.714238
C    -1.229019  5.172786  2.634654
N    -1.826697  6.108535  1.874553
N    -0.016068  4.730893  2.232745
H    -2.316294  0.365085  3.948086
H    -3.357979  1.769648  3.911993
H    -0.359989  2.222523  3.394690
H    -0.833712  1.665411  4.950292
H    -0.534533  3.944565  5.149032
H    -2.229850  3.589054  5.403180
H    -2.626892  5.296147  4.077827
H    -1.243676  6.693848  1.286749
H    -2.774453  6.422076  2.047240
H    0.541059  4.343178  2.993954
N    -4.499705  2.511627  1.303909
C    -5.269457  3.590745  0.684998
H    -5.025952  1.769797  1.759240
H    -5.985651  3.170665  -0.030883
H    -4.581960  4.257389  0.158860
H    -5.822446  4.148924  1.450453
Cd    -0.110279  3.433769  0.574618
