36
Energy: -175311.188766 eV PBE+vdW (tier 2 basis)
C    0.197630  0.984289  2.069120
C    -1.068350  0.782496  2.819878
O    -1.093789  0.852635  4.082286
H    0.536491  2.024495  2.183976
H    0.123607  0.720364  1.010609
H    0.970690  0.363153  2.545635
N    -2.237023  0.515563  2.154293
C    -2.749585  1.309492  1.032786
C    -2.609844  2.802300  1.389469
O    -2.630420  3.179355  2.603749
H    -2.943841  0.071970  2.737049
H    -2.173300  1.076737  0.127470
C    -4.241401  0.973700  0.759919
C    -5.289475  1.562509  1.731299
C    -5.573953  0.767541  3.024183
N    -6.345418  1.537885  3.995326
C    -5.956118  1.939994  5.228218
N    -6.931500  2.309512  6.081364
N    -4.674922  1.976604  5.612608
H    -4.330078  -0.121128  0.684466
H    -4.466521  1.349990  -0.246258
H    -6.237759  1.635331  1.180764
H    -5.031850  2.597427  1.998183
H    -4.668848  0.423712  3.545858
H    -6.127329  -0.153333  2.786777
H    -7.319074  1.707305  3.761289
H    -6.719196  2.825497  6.926745
H    -7.894800  2.022127  5.950750
H    -4.576304  2.071525  6.621045
N    -2.503605  3.709448  0.427741
C    -2.478634  3.521744  -1.025160
H    -2.471211  4.672303  0.765230
H    -1.864701  4.314000  -1.464680
H    -3.490150  3.585910  -1.446370
H    -2.032909  2.558957  -1.292803
Cd    -2.897556  2.057251  4.506443
