36
Energy: -175309.096374 eV PBE+vdW (tier 2 basis)
C    -1.688514  0.168272  0.715724
C    -1.097605  -0.091185  2.067228
O    -0.149641  -0.930339  2.146632
H    -2.535374  0.862330  0.731521
H    -2.012777  -0.789285  0.285575
H    -0.906013  0.561573  0.052839
N    -1.625192  0.570778  3.113187
C    -1.436188  0.417617  4.573334
C    -0.162636  1.124172  5.071111
O    1.009720  0.758285  4.721876
H    -2.356761  1.228874  2.860076
H    -2.295612  0.954213  4.996570
C    -1.494343  -1.029527  5.112837
C    -2.663317  -1.909673  4.648603
C    -4.088296  -1.389134  4.941283
N    -4.301946  -1.014810  6.330998
C    -4.275227  0.273823  6.818965
N    -4.631317  1.276720  5.925746
N    -3.857903  0.624207  7.997358
H    -1.499083  -0.938351  6.209528
H    -0.564201  -1.576593  4.878086
H    -2.535395  -2.888255  5.134299
H    -2.600952  -2.109625  3.568736
H    -4.803465  -2.178338  4.666749
H    -4.323653  -0.524269  4.311246
H    -4.173830  -1.743559  7.028520
H    -4.738985  2.166254  6.410087
H    -5.438299  1.075183  5.338472
H    -3.625608  -0.159938  8.613946
N    -0.264196  2.138147  5.916144
C    -1.463537  2.781848  6.468358
H    0.636742  2.510491  6.220399
H    -1.136983  3.677182  7.004537
H    -2.143177  3.095812  5.667911
H    -1.987002  2.123396  7.175180
Cd    1.548737  -0.935670  3.489198
