36
Energy: -175308.625609 eV PBE+vdW (tier 2 basis)
C    0.089848  2.292201  0.109901
C    0.055992  1.420279  1.314659
O    1.120486  1.239038  1.990972
H    0.344241  3.323185  0.393648
H    -0.843788  2.270128  -0.459380
H    0.914287  1.940708  -0.529038
N    -1.084070  0.793421  1.699162
C    -2.401116  1.420843  1.805568
C    -2.376221  2.338910  3.051884
O    -1.522551  2.201585  3.994293
H    -0.935401  0.023404  2.354809
H    -2.560753  2.039138  0.910092
C    -3.468225  0.300537  1.870079
C    -4.952830  0.673630  2.000335
C    -5.624034  1.381157  0.810920
N    -5.302609  2.813832  0.677048
C    -4.507458  3.404031  -0.300215
N    -3.753598  2.568205  -1.100538
N    -4.315988  4.683170  -0.425263
H    -3.217232  -0.354407  2.720516
H    -3.321450  -0.305312  0.963026
H    -5.144519  1.242908  2.922205
H    -5.492016  -0.274790  2.139351
H    -6.711893  1.309586  0.939826
H    -5.402397  0.849899  -0.124973
H    -6.032826  3.439573  1.009096
H    -3.312676  3.083721  -1.860422
H    -4.162267  1.687056  -1.399405
H    -4.906453  5.253005  0.188800
N    -3.302188  3.277516  3.117986
C    -3.467812  4.229386  4.217296
H    -3.986078  3.297019  2.352701
H    -2.508710  4.383003  4.718252
H    -4.195089  3.851298  4.947718
H    -3.825678  5.179780  3.809148
Cd    0.567918  1.503585  4.113788
