36
Energy: -175311.218215 eV PBE+vdW (tier 2 basis)
C    0.295205  -0.102409  2.340978
C    -1.017200  -0.285159  3.015943
O    -1.050415  -0.690823  4.219842
H    0.763628  0.830394  2.692370
H    0.222308  -0.092224  1.249651
H    0.960373  -0.914715  2.662791
N    -2.181726  -0.032814  2.357054
C    -2.421862  1.201399  1.609483
C    -2.436486  2.369461  2.636780
O    -2.620085  2.149820  3.871195
H    -3.020511  -0.378300  2.830613
H    -1.569742  1.348561  0.931086
C    -3.703798  1.116783  0.735983
C    -5.090269  1.453589  1.325287
C    -5.781273  0.475136  2.285129
N    -5.144272  0.521143  3.609336
C    -5.524893  -0.162975  4.735230
N    -6.638750  -0.900975  4.724001
N    -4.698768  -0.079179  5.780671
H    -3.710733  0.115250  0.280305
H    -3.553895  1.809784  -0.103415
H    -5.763800  1.555183  0.463260
H    -5.080238  2.455739  1.786978
H    -5.741374  -0.554777  1.900538
H    -6.841933  0.769394  2.350110
H    -4.712282  1.418860  3.826962
H    -6.859011  -1.530796  5.488027
H    -7.353374  -0.773983  4.015701
H    -5.041659  -0.436954  6.669480
N    -2.270547  3.594533  2.155228
C    -2.268667  4.826582  2.947903
H    -2.122346  3.692249  1.153226
H    -3.110128  5.463773  2.649910
H    -1.331732  5.369265  2.777314
H    -2.357574  4.570124  4.005639
Cd    -2.689129  0.258486  5.251689
