36
Energy: -175308.75657 eV PBE+vdW (tier 2 basis)
C    0.050025  0.050790  0.100878
C    -0.153748  0.119071  1.574129
O    0.861532  0.385011  2.303061
H    0.400491  -0.954884  -0.180576
H    0.866083  0.739684  -0.153071
H    -0.843722  0.300440  -0.473971
N    -1.360172  -0.028511  2.185316
C    -2.382789  -1.080094  2.042583
C    -1.928845  -2.305171  2.891195
O    -0.729558  -2.429765  3.334876
H    -1.340771  0.355056  3.131567
H    -3.279681  -0.681882  2.543355
C    -2.761535  -1.469460  0.600631
C    -3.584298  -0.441480  -0.194332
C    -5.000856  -0.117850  0.347586
N    -5.760658  -1.312691  0.713166
C    -5.711596  -1.868776  1.972485
N    -5.687337  -0.995400  3.031936
N    -5.561849  -3.147243  2.220387
H    -3.324486  -2.409293  0.666143
H    -1.861343  -1.736156  0.032442
H    -3.677384  -0.830311  -1.218861
H    -3.054613  0.518901  -0.284883
H    -5.555624  0.434018  -0.423037
H    -4.945796  0.540555  1.221174
H    -5.914833  -1.982945  -0.037374
H    -5.841493  -1.449843  3.928453
H    -6.204303  -0.126547  2.928981
H    -5.629319  -3.730417  1.380745
N    -2.816109  -3.240675  3.152515
C    -2.526290  -4.435322  3.950425
H    -3.799456  -3.168056  2.794126
H    -3.469603  -4.962593  4.115796
H    -2.086685  -4.156621  4.915037
H    -1.828398  -5.094765  3.419720
Cd    0.937307  -1.139354  3.881242
