36
Energy: -175311.045447 eV PBE+vdW (tier 2 basis)
C    1.006769  -0.447517  0.034761
C    0.716458  0.102251  1.385274
O    1.724774  0.470826  2.112830
H    1.802849  0.151094  -0.426233
H    0.127425  -0.458528  -0.615936
H    1.400344  -1.470325  0.133720
N    -0.512697  0.234061  1.856515
C    -1.805287  -0.337452  1.478543
C    -2.781108  0.350662  2.472798
O    -2.329968  0.773965  3.562490
H    -0.654253  0.747659  2.743968
H    -2.065277  -0.042991  0.451395
C    -1.858201  -1.890444  1.584755
C    -1.090220  -2.617798  2.705722
C    -1.471260  -2.409966  4.186645
N    -0.821915  -1.226889  4.774018
C    -0.084986  -1.199956  5.922698
N    -0.251325  -2.119514  6.877410
N    0.847163  -0.236469  6.015912
H    -1.479723  -2.293386  0.634858
H    -2.920211  -2.175627  1.618166
H    -0.005786  -2.451776  2.604577
H    -1.229887  -3.688451  2.496877
H    -1.134768  -3.293938  4.741974
H    -2.562009  -2.339535  4.312729
H    -1.272263  -0.333969  4.498567
H    0.421796  -2.229393  7.629071
H    -1.110788  -2.653990  6.948721
H    1.226071  -0.019904  6.936333
N    -4.056243  0.431857  2.105640
C    -5.119856  1.009974  2.928963
H    -4.310330  0.106094  1.176653
H    -5.591446  1.840529  2.391054
H    -4.682598  1.380875  3.858893
H    -5.878089  0.249763  3.151823
Cd    1.501376  0.382721  4.165816
