36
Energy: -175309.133337 eV PBE+vdW (tier 2 basis)
C    -1.321442  -0.883175  0.065631
C    -0.858135  -0.830881  1.488656
O    0.338736  -0.482362  1.720536
H    -0.641243  -1.536654  -0.498025
H    -1.233911  0.117517  -0.378468
H    -2.348303  -1.245146  -0.051643
N    -1.742654  -1.181349  2.442088
C    -1.559510  -1.453314  3.881045
C    -1.518423  -0.184077  4.740649
O    -0.770558  0.811735  4.473776
H    -2.671067  -1.393656  2.089103
H    -2.470258  -1.996153  4.162410
C    -0.362165  -2.366814  4.234389
C    -0.367446  -3.759020  3.582090
C    -1.612639  -4.622843  3.829699
N    -1.966039  -4.660417  5.233835
C    -3.208641  -4.887523  5.775718
N    -4.173431  -5.384826  4.946228
N    -3.340708  -4.530783  7.029662
H    -0.362413  -2.456464  5.330835
H    0.587938  -1.878622  3.979512
H    0.521518  -4.291446  3.951326
H    -0.226904  -3.678726  2.495093
H    -1.416183  -5.633281  3.428858
H    -2.483987  -4.238280  3.272735
H    -1.247094  -4.535628  5.940894
H    -5.086301  -5.568043  5.348552
H    -3.921558  -5.996544  4.175812
H    -4.259053  -4.770518  7.416808
N    -2.271680  -0.127555  5.831511
C    -3.267563  -1.086695  6.325762
H    -2.135060  0.720881  6.382633
H    -4.025380  -1.297571  5.561031
H    -3.773884  -0.625985  7.178473
H    -2.807281  -2.024579  6.667665
Cd    1.020348  0.921476  3.238490
