36
Energy: -175308.503497 eV PBE+vdW (tier 2 basis)
C    0.166739  0.869995  0.912397
C    -0.080399  0.445555  2.325323
O    0.756775  0.711110  3.261805
H    0.168927  1.968931  0.862629
H    -0.577786  0.500152  0.202638
H    1.157808  0.517730  0.598456
N    -1.160692  -0.235827  2.682027
C    -2.248904  -0.797781  1.878969
C    -3.438008  -0.856629  2.883866
O    -3.199926  -1.211460  4.038501
H    -1.259188  -0.476611  3.678924
H    -2.475542  -0.129736  1.036814
C    -1.883991  -2.217080  1.383062
C    -3.007840  -2.946964  0.635947
C    -2.542088  -4.331980  0.169557
N    -3.622919  -5.057454  -0.488729
C    -3.453140  -6.083112  -1.375880
N    -4.551968  -6.678891  -1.898847
N    -2.293801  -6.581821  -1.777853
H    -1.576094  -2.804864  2.260947
H    -0.998986  -2.125452  0.733698
H    -3.341026  -2.363150  -0.236256
H    -3.878111  -3.062834  1.300672
H    -2.165465  -4.910600  1.030479
H    -1.711655  -4.221665  -0.542309
H    -4.556135  -4.913398  -0.110441
H    -4.394429  -7.458878  -2.529243
H    -5.499866  -6.349180  -1.761506
H    -1.487610  -6.077053  -1.395699
N    -4.653488  -0.543056  2.402514
C    -5.856015  -0.542091  3.236119
H    -4.723883  -0.171495  1.461177
H    -6.710318  -0.881912  2.641338
H    -6.064939  0.463397  3.623968
H    -5.697899  -1.220008  4.079972
Cd    2.300650  2.238111  3.503963
