36
Energy: -175308.676256 eV PBE+vdW (tier 2 basis)
C    0.851056  0.325071  0.088008
C    0.891259  0.779197  1.507332
O    1.963700  1.260497  1.982477
H    1.790961  -0.200866  -0.127199
H    0.828403  1.197263  -0.582931
H    0.004939  -0.333338  -0.129428
N    -0.202982  0.671752  2.306932
C    -1.550169  1.099162  1.928459
C    -1.555392  2.648263  1.912156
O    -0.675310  3.310914  2.551122
H    0.004244  0.835883  3.293816
H    -1.767221  0.725158  0.918194
C    -2.581375  0.563429  2.944530
C    -2.718258  -0.966188  2.990163
C    -3.498456  -1.594595  1.822357
N    -4.875996  -1.125299  1.762706
C    -5.463336  -0.433110  0.732567
N    -4.868192  -0.515267  -0.506956
N    -6.478450  0.376715  0.869308
H    -3.556746  1.023104  2.733584
H    -2.295173  0.933392  3.941683
H    -3.214354  -1.234562  3.934699
H    -1.729335  -1.446157  3.033817
H    -3.483809  -2.690504  1.933376
H    -3.024080  -1.371004  0.858096
H    -5.420100  -1.175497  2.620253
H    -5.415297  -0.045925  -1.225832
H    -4.516845  -1.422654  -0.801131
H    -6.910269  0.356601  1.798767
N    -2.508208  3.303179  1.261188
C    -3.650303  2.773491  0.515470
H    -2.448608  4.318970  1.347492
H    -3.862754  3.453571  -0.315859
H    -4.545572  2.707737  1.148141
H    -3.428413  1.784598  0.102299
Cd    1.526525  3.199286  3.012098
