36
Energy: -175309.70579 eV PBE+vdW (tier 2 basis)
C    0.606065  -1.488066  1.309203
C    -0.090287  -1.804779  2.585088
O    0.579701  -2.274920  3.568243
H    1.300817  -0.648470  1.453731
H    -0.083581  -1.274194  0.488171
H    1.227006  -2.356627  1.045355
N    -1.423737  -1.620788  2.727778
C    -2.185470  -0.417659  2.355623
C    -1.850746  0.685413  3.397353
O    -1.565973  0.332687  4.652535
H    -1.820461  -2.109405  3.533708
H    -1.840247  -0.080406  1.370403
C    -3.694761  -0.781616  2.313194
C    -4.584387  -0.090676  1.266632
C    -4.908347  1.398980  1.467161
N    -3.868850  2.314449  1.000266
C    -3.887577  3.012841  -0.134079
N    -4.793568  2.784928  -1.098204
N    -2.959003  3.967768  -0.332816
H    -4.125846  -0.644106  3.317257
H    -3.747360  -1.858845  2.098884
H    -5.542240  -0.630677  1.282736
H    -4.169693  -0.246524  0.258139
H    -5.073698  1.614828  2.532688
H    -5.853100  1.648526  0.967120
H    -3.035718  2.361490  1.627032
H    -4.949057  3.456494  -1.840202
H    -5.411253  1.985245  -1.066467
H    -2.852947  4.420098  -1.232225
N    -1.967758  1.913814  3.042435
C    -1.619783  3.000383  3.945281
H    -2.445059  4.357986  0.446002
H    -1.381783  3.893683  3.355784
H    -0.772004  2.759048  4.599251
H    -2.479850  3.247549  4.586895
Cd    -0.116353  -1.065967  5.272066
