36
Energy: -175311.844976 eV PBE+vdW (tier 2 basis)
C    -1.379092  -0.239919  -0.252143
C    -0.835124  -0.051547  1.129881
O    0.422876  -0.057013  1.275104
H    -1.000524  -1.189479  -0.653707
H    -0.988392  0.557538  -0.898337
H    -2.472979  -0.240270  -0.298579
N    -1.731373  0.103704  2.125370
C    -1.533651  0.241652  3.586238
C    -0.861474  1.592664  3.908493
O    0.370012  1.790649  3.715256
H    -2.700584  0.090891  1.821646
H    -2.550074  0.274824  4.000502
C    -0.817638  -0.986348  4.192975
C    -0.345498  -0.840932  5.647845
C    0.749823  -1.861580  6.025227
N    1.933306  -1.750112  5.162226
C    2.942432  -0.835301  5.257998
N    3.469001  -0.580939  6.464541
N    3.355404  -0.235666  4.137721
H    0.035899  -1.245368  3.545649
H    -1.499600  -1.842615  4.093070
H    -1.189308  -0.969254  6.340244
H    0.054751  0.168150  5.831047
H    0.382864  -2.892207  5.939874
H    1.035427  -1.718944  7.073991
H    1.919114  -2.264716  4.288067
H    4.102168  0.198269  6.605953
H    3.404275  -1.264384  7.211913
H    4.275762  0.201504  4.178260
N    -1.647009  2.543730  4.402685
C    -1.212491  3.899594  4.741314
H    -2.629125  2.324702  4.545699
H    -1.738297  4.624952  4.108596
H    -0.136297  3.980978  4.574737
H    -1.443112  4.107758  5.792609
Cd    1.815525  0.362033  2.835034
