36
Energy: -175308.650477 eV PBE+vdW (tier 2 basis)
C    0.323590  -1.033640  0.158104
C    -0.081232  -0.438752  1.467281
O    0.744280  -0.460080  2.427762
H    1.417992  -1.030442  0.108498
H    -0.088103  -0.499874  -0.702506
H    0.001541  -2.085790  0.117856
N    -1.287978  0.171085  1.656577
C    -2.612703  -0.359447  1.304575
C    -2.849498  -1.614125  2.193562
O    -1.860372  -2.230110  2.689261
H    -1.299210  0.677923  2.542781
H    -3.320116  0.420024  1.625926
C    -2.870445  -0.626026  -0.192288
C    -2.762709  0.645412  -1.044716
C    -3.043680  0.383401  -2.527804
N    -2.932770  1.608811  -3.289311
C    -3.159060  1.783555  -4.627451
N    -3.522744  0.721635  -5.384321
N    -2.987679  3.024372  -5.042586
H    -3.885114  -1.038861  -0.280722
H    -2.200400  -1.412863  -0.562694
H    -1.760963  1.089371  -0.939909
H    -3.477065  1.396916  -0.673002
H    -4.058163  -0.039433  -2.651283
H    -2.333623  -0.367991  -2.922697
H    -2.665446  2.476724  -2.830264
H    -3.695720  0.851672  -6.373697
H    -3.633663  -0.216564  -5.020009
H    -3.163755  3.137126  -6.047275
N    -4.086786  -2.040785  2.431341
C    -5.367066  -1.509638  1.964820
H    -4.127516  -2.878857  3.012677
H    -6.106333  -1.637216  2.762621
H    -5.717948  -2.049785  1.075499
H    -5.292127  -0.441304  1.739614
Cd    -0.057396  -1.776352  4.062003
