36
Energy: -175309.315961 eV PBE+vdW (tier 2 basis)
C    -0.756835  -1.064985  -0.221524
C    -0.303553  -0.647447  1.140050
O    0.736224  0.079802  1.235065
H    -0.964239  -0.158298  -0.808353
H    -1.653895  -1.693021  -0.207002
H    0.057829  -1.592687  -0.733904
N    -1.030771  -1.040038  2.199678
C    -0.983971  -0.514076  3.575110
C    -0.047057  -1.372744  4.456008
O    1.180532  -1.514628  4.105965
H    -1.820513  -1.645439  1.990332
H    -0.472425  0.461769  3.516330
C    -2.416114  -0.232754  4.078348
C    -3.469944  -1.324995  3.816513
C    -4.757350  -1.145398  4.652819
N    -4.504046  -1.192517  6.096022
C    -3.729839  -2.193979  6.655795
N    -3.971181  -3.461936  6.230417
N    -2.712398  -1.975211  7.456969
H    -2.744070  0.704824  3.607525
H    -2.344802  -0.009385  5.152556
H    -3.066716  -2.330348  4.018855
H    -3.783222  -1.316112  2.760970
H    -5.486813  -1.914741  4.363588
H    -5.232583  -0.178963  4.444401
H    -4.423106  -0.294292  6.562493
H    -3.483073  -4.195516  6.734538
H    -4.896098  -3.703841  5.891857
H    -2.677487  -1.006311  7.789505
N    -0.445744  -1.950987  5.568629
C    0.458965  -2.706317  6.443203
H    -1.408779  -1.863732  5.940965
H    -0.094191  -2.942013  7.355965
H    1.345833  -2.108752  6.683145
H    0.780645  -3.632368  5.951237
Cd    2.258819  -0.235381  2.739419
