36
Energy: -175310.53897 eV PBE+vdW (tier 2 basis)
C    -0.164365  0.303680  -0.661339
C    0.074928  0.151140  0.802647
O    1.300551  0.228225  1.217591
H    -0.648300  -0.595207  -1.069727
H    0.784655  0.464745  -1.178926
H    -0.832697  1.155760  -0.852143
N    -0.906619  -0.069060  1.670363
C    -2.347042  -0.229363  1.446138
C    -2.940543  0.525301  2.668501
O    -2.172276  0.722611  3.632668
H    -0.836205  0.244069  2.678842
H    -2.634317  0.258123  0.506273
C    -2.771507  -1.728804  1.402253
C    -3.161041  -2.421536  2.723765
C    -2.107466  -2.610341  3.827522
N    -1.041939  -3.553438  3.457529
C    0.275640  -3.325280  3.504958
N    1.115327  -4.112229  2.793803
N    0.834701  -2.306045  4.205666
H    -1.969892  -2.282838  0.890506
H    -3.644276  -1.801484  0.739307
H    -3.994162  -1.878566  3.194262
H    -3.582822  -3.405274  2.465169
H    -2.607058  -2.988279  4.730661
H    -1.646724  -1.654043  4.099644
H    -1.344203  -4.478201  3.155265
H    2.052348  -4.257758  3.157819
H    0.758385  -4.836679  2.178935
H    0.245842  -1.960945  4.964245
N    -4.221496  0.896773  2.661445
C    -5.219001  0.704661  1.610288
H    -4.525941  1.358234  3.517863
H    -5.941904  1.524811  1.660475
H    -5.759178  -0.243770  1.734499
H    -4.756677  0.731486  0.617726
Cd    1.604833  -0.802053  2.998626
