36
Energy: -175310.479371 eV PBE+vdW (tier 2 basis)
C    0.090944  0.147162  1.979212
C    -0.853385  0.371888  3.133952
O    -0.410013  1.140081  4.062571
H    -0.420195  0.025856  1.021756
H    0.676278  -0.763360  2.176765
H    0.797994  0.980602  1.928125
N    -2.089650  -0.129779  3.271246
C    -2.600723  -1.461236  2.976269
C    -2.182923  -2.384033  4.178275
O    -2.069832  -1.908539  5.350148
H    -4.061607  3.595099  -1.111602
H    -3.695736  -1.380305  3.111732
C    -2.404748  -2.036350  1.557272
C    -3.358637  -1.452588  0.495760
C    -3.141025  0.007533  0.082758
N    -4.104003  0.352749  -0.972040
C    -4.420713  1.590604  -1.378898
N    -5.435560  1.770521  -2.235412
N    -3.746701  2.651996  -0.916303
H    -2.649371  -3.107938  1.573523
H    -1.358144  -1.975787  1.234777
H    -4.395751  -1.567863  0.848178
H    -3.262317  -2.081653  -0.403484
H    -2.114022  0.145595  -0.293718
H    -3.292318  0.683886  0.936133
H    -4.481619  -0.416801  -1.517230
H    -5.569218  2.650925  -2.718869
H    -6.093536  1.028662  -2.442079
H    -2.838258  2.550877  -0.483089
N    -2.001344  -3.684119  3.995172
C    -1.690230  -4.614657  5.085910
H    -2.090345  -4.064094  3.060458
H    -0.783631  -4.292671  5.610501
H    -1.531387  -5.607271  4.657203
H    -2.519248  -4.653545  5.802314
Cd    -1.971262  0.323465  5.452039
