36
Energy: -175310.480709 eV PBE+vdW (tier 2 basis)
C    0.365664  0.446707  0.241349
C    0.429374  0.777990  1.706216
O    1.580259  0.851271  2.258049
H    1.168875  -0.255159  -0.008192
H    0.562709  1.361699  -0.336799
H    -0.606992  0.041594  -0.055750
N    -0.656602  0.973501  2.477268
C    -1.858509  1.661009  2.057200
C    -1.711790  3.172023  2.446023
O    -0.873160  3.573551  3.313698
H    -0.471484  -1.244356  3.102098
H    -1.970561  1.624822  0.960057
C    -3.127065  1.094190  2.730410
C    -3.763054  -0.163300  2.111478
C    -3.165985  -1.538365  2.454215
N    -2.225109  -2.086449  1.454519
C    -1.028802  -2.636461  1.722820
N    -0.551325  -3.613581  0.939195
N    -0.302553  -2.185448  2.753575
H    -3.901096  1.873086  2.726712
H    -2.896917  0.921032  3.793604
H    -3.846201  -0.055520  1.018424
H    -4.800559  -0.189099  2.471965
H    -3.984243  -2.267319  2.540350
H    -2.663406  -1.525828  3.428037
H    -2.648307  -2.377557  0.576785
H    -1.167290  -4.182165  0.368847
H    0.423045  -3.891057  0.977095
H    0.505694  -2.694639  3.089769
N    -2.495313  4.077176  1.870562
C    -3.545603  3.897262  0.870011
H    -2.352331  5.027446  2.214412
H    -3.536768  4.763237  0.199948
H    -4.534096  3.829779  1.343560
H    -3.370853  3.000029  0.269060
Cd    0.623936  2.067256  3.940779
