36
Energy: -175308.960717 eV PBE+vdW (tier 2 basis)
C    0.160220  -0.256565  -0.916046
C    0.177252  -0.486711  0.554885
O    1.289055  -0.575789  1.169734
H    0.574436  0.735136  -1.148515
H    -0.838700  -0.366008  -1.348085
H    0.843287  -0.985017  -1.376720
N    -0.977209  -0.612458  1.251777
C    -2.124378  0.297067  1.134016
C    -1.642462  1.664234  1.656417
O    -0.788002  1.729148  2.610420
H    -0.850874  -0.988955  2.193556
H    -2.448729  0.330311  0.083612
C    -3.270341  -0.292512  1.988575
C    -4.634228  0.401789  1.943414
C    -5.392902  0.335697  0.604687
N    -5.614767  -1.010988  0.102421
C    -4.943624  -1.531426  -0.971587
N    -5.465728  -2.649932  -1.535572
N    -3.834976  -0.928758  -1.364013
H    -2.934805  -0.329850  3.037557
H    -3.379843  -1.334476  1.652893
H    -4.557124  1.460042  2.237287
H    -5.253010  -0.063724  2.724208
H    -4.871448  0.880178  -0.187860
H    -6.372936  0.815584  0.738759
H    -6.416238  -1.521246  0.459866
H    -4.968729  -3.124991  -2.277789
H    -6.403501  -2.977831  -1.334564
H    -3.480420  -1.362420  -2.221599
N    -2.112266  2.801664  1.164049
C    -3.066216  3.034169  0.080212
H    -1.741655  3.634048  1.626668
H    -3.137354  2.157198  -0.569030
H    -2.710413  3.882368  -0.515037
H    -4.057996  3.280173  0.479725
Cd    1.166265  0.741635  2.954932
