36
Energy: -175309.076521 eV PBE+vdW (tier 2 basis)
C    1.026958  -0.471964  0.066042
C    -0.029793  -0.517385  1.124102
O    -0.393995  0.562615  1.667660
H    0.664376  0.148138  -0.765481
H    1.300609  -1.461179  -0.316351
H    1.918484  0.025327  0.469280
N    -0.554080  -1.719730  1.443796
C    -1.700891  -1.931828  2.328920
C    -1.308460  -1.757693  3.817976
O    -1.691016  -0.710851  4.433271
H    -0.212598  -2.519252  0.917158
H    -2.405242  -1.103145  2.152449
C    -2.445650  -3.229367  1.964290
C    -3.660727  -3.502336  2.860442
C    -4.486732  -4.733937  2.429584
N    -5.140563  -4.580598  1.138464
C    -4.698574  -5.019207  -0.087296
N    -3.704352  -5.963580  -0.117709
N    -5.104885  -4.534101  -1.232136
H    -1.761893  -4.089839  1.981430
H    -2.769029  -3.113788  0.918775
H    -4.322301  -2.621892  2.880448
H    -3.347877  -3.673357  3.902495
H    -5.264285  -4.918167  3.183782
H    -3.852139  -5.628202  2.415438
H    -5.955734  -3.975663  1.106527
H    -3.499061  -6.287129  -1.059988
H    -3.697591  -6.695704  0.585153
H    -5.880536  -3.868958  -1.149268
N    -0.590365  -2.651370  4.487492
C    -0.051196  -3.944169  4.065167
H    -0.417686  -2.383586  5.457610
H    0.779915  -4.193423  4.731921
H    0.340710  -3.896440  3.044958
H    -0.805226  -4.737991  4.143323
Cd    -1.591554  1.244233  3.401680
