36
Energy: -175309.824707 eV PBE+vdW (tier 2 basis)
C    0.802687  1.014331  -0.116082
C    0.807593  0.635541  1.330918
O    1.946344  0.589222  1.910500
H    -0.199265  1.033232  -0.557300
H    1.423080  0.291369  -0.665037
H    1.279630  1.995707  -0.236855
N    -0.367492  0.359593  1.914807
C    -0.723607  -0.304539  3.193881
C    -0.711745  0.580536  4.445152
O    0.325915  1.225143  4.888091
H    -1.165386  0.503615  1.301948
H    -1.781203  -0.547835  3.045771
C    0.010583  -1.648189  3.448916
C    -0.699932  -2.861149  2.828336
C    -2.117012  -3.134802  3.370058
N    -3.189114  -2.425723  2.659544
C    -4.170481  -1.688895  3.287711
N    -5.393935  -1.719155  2.697304
N    -3.874131  -0.973024  4.350050
H    0.073253  -1.799917  4.537468
H    1.045900  -1.611673  3.075567
H    -0.082575  -3.745148  3.038953
H    -0.729991  -2.774200  1.731338
H    -2.196287  -2.875089  4.433502
H    -2.312590  -4.214372  3.293053
H    -3.472916  -2.850586  1.781344
H    -6.125061  -1.097597  3.021453
H    -5.699212  -2.521899  2.158383
H    -4.714306  -0.574781  4.774309
N    -1.822928  0.584454  5.127606
C    -1.985737  1.238621  6.423563
H    -2.647408  -0.050067  4.760788
H    -2.853553  0.795928  6.921313
H    -2.161019  2.314056  6.289312
H    -1.094095  1.103548  7.045666
Cd    2.200629  0.952538  3.986960
