36
Energy: -175311.028339 eV PBE+vdW (tier 2 basis)
C    0.194607  -0.592752  0.422960
C    -0.529167  -0.039142  1.607333
O    -0.059251  0.977992  2.191264
H    0.323159  0.204581  -0.320914
H    -0.315942  -1.443601  -0.040239
H    1.201911  -0.899988  0.735946
N    -1.667529  -0.660746  1.999196
C    -2.510163  -0.212010  3.107523
C    -1.912685  -0.639900  4.465280
O    -1.197691  0.207023  5.088060
H    -1.959026  -1.473230  1.462370
H    -2.390438  0.875718  3.123491
C    -4.022684  -0.356401  2.846023
C    -4.533716  0.878784  2.065633
C    -5.259467  1.988646  2.866535
N    -4.785230  2.324295  4.223749
C    -3.591528  2.810737  4.623882
N    -3.343585  2.849357  5.956653
N    -2.606461  3.187835  3.798803
H    -4.544950  -0.454333  3.808194
H    -4.238849  -1.277213  2.288447
H    -5.259756  0.563520  1.304723
H    -3.698745  1.308218  1.491075
H    -6.300024  1.681449  3.022260
H    -5.305287  2.897493  2.247957
H    -5.521532  2.352595  4.923262
H    -2.721615  3.572331  6.302130
H    -4.013640  2.484497  6.624266
H    -2.914799  3.416943  2.854662
N    -2.099407  -1.847682  4.979709
C    -2.870313  -2.969942  4.442878
H    -1.633319  -1.995451  5.875709
H    -3.919301  -2.923881  4.761763
H    -2.430951  -3.897960  4.821496
H    -2.819090  -2.999104  3.350436
Cd    -0.764200  2.082111  3.954423
