36
Energy: -175308.958084 eV PBE+vdW (tier 2 basis)
C    -0.797983  1.419586  0.062374
C    -0.441435  0.638698  1.278207
O    0.657008  0.873448  1.877341
H    -1.089144  2.442688  0.345648
H    -1.592845  0.953642  -0.526894
H    0.106646  1.521265  -0.553256
N    -1.263973  -0.327837  1.762483
C    -2.705679  -0.184275  1.988108
C    -2.917524  0.820584  3.150355
O    -2.030424  1.003549  4.067761
H    -0.811196  -0.959987  2.425656
H    -3.161902  0.246005  1.086827
C    -3.319103  -1.570258  2.290176
C    -3.564133  -2.443233  1.038045
C    -5.024967  -2.457315  0.531813
N    -5.564209  -1.121455  0.280799
C    -6.106088  -0.295121  1.228852
N    -6.704167  -0.858407  2.313174
N    -5.988625  1.023225  1.213847
H    -4.251039  -1.428729  2.852349
H    -2.643145  -2.090645  2.986364
H    -3.297236  -3.486352  1.256599
H    -2.893175  -2.134058  0.221420
H    -5.667161  -2.980550  1.250480
H    -5.084054  -3.029377  -0.403077
H    -5.221286  -0.648573  -0.550398
H    -7.251058  -0.217427  2.879497
H    -7.073846  -1.800700  2.254170
H    -5.624272  1.372399  0.322139
N    -4.060854  1.461073  3.200705
C    -4.416465  2.428967  4.240316
H    -4.797271  1.294777  2.447451
H    -5.347852  2.916094  3.939045
H    -3.628397  3.181801  4.355763
H    -4.564032  1.923149  5.202975
Cd    0.146815  1.060284  4.026254
