36
Energy: -175311.319433 eV PBE+vdW (tier 2 basis)
C    0.038845  1.840599  2.502552
C    -0.121074  0.761358  3.525491
O    0.488399  0.859422  4.625325
H    -0.168164  2.811639  2.969888
H    -0.605740  1.711714  1.626766
H    1.088407  1.863251  2.177311
N    -0.927167  -0.281512  3.215841
C    -1.217682  -1.418545  4.092105
C    -0.037979  -2.418123  4.091853
O    0.885359  -2.282042  4.954372
H    -1.349343  -0.279502  2.290875
H    -1.227709  -1.022769  5.116606
C    -2.631787  -1.985571  3.887488
C    -3.710729  -1.191467  4.652872
C    -3.628600  -1.295629  6.205522
N    -3.252122  -0.047883  6.885969
C    -2.032292  0.310997  7.338664
N    -1.773723  1.624794  7.508712
N    -1.042531  -0.562266  7.600224
H    -2.645911  -3.029270  4.234998
H    -2.889784  -2.017246  2.817113
H    -4.690075  -1.568058  4.331858
H    -3.687224  -0.132338  4.355958
H    -2.937546  -2.091179  6.512608
H    -4.605655  -1.587866  6.607222
H    -3.994844  0.640289  6.982033
H    -1.082208  1.894213  8.200278
H    -2.435614  2.337928  7.223927
H    -1.383021  -1.501738  7.803543
N    0.000760  -3.377360  3.180867
C    1.077821  -4.362863  3.042288
H    -0.785321  -3.457565  2.540749
H    0.731338  -5.346729  3.382223
H    1.931593  -4.047378  3.645906
H    1.370492  -4.428043  1.988688
Cd    0.661988  -0.556597  6.309363
