36
Energy: -175310.921435 eV PBE+vdW (tier 2 basis)
C    0.701252  0.859991  0.241037
C    0.242369  0.167864  1.480377
O    1.088830  -0.603835  2.096638
H    -0.069150  1.502167  -0.197078
H    0.982574  0.091194  -0.494243
H    1.606653  1.445905  0.444619
N    -1.007074  0.308856  1.867627
C    -1.787848  -0.411726  2.874784
C    -3.247579  0.064222  2.553683
O    -3.384918  1.054160  1.829153
H    -1.660784  0.944501  1.357063
H    -1.693490  -1.492478  2.688268
C    -1.399289  -0.123046  4.339626
C    -1.303256  1.353838  4.744140
C    -0.405248  1.573844  5.967123
N    1.038569  1.436639  5.571746
C    1.951126  0.796717  6.477089
N    2.017596  1.182826  7.747182
N    2.642111  -0.168755  5.913604
H    -0.446344  -0.650444  4.552907
H    -2.119914  -0.639919  4.989754
H    -2.304387  1.743564  4.973250
H    -0.929429  1.970364  3.912262
H    -0.614542  0.824056  6.742440
H    -0.586688  2.565201  6.403822
H    1.415288  2.346428  5.286443
H    1.503350  1.992842  8.078299
H    2.618406  0.717450  8.422990
H    3.368043  -0.649141  6.448305
N    -4.244690  -0.630245  3.118105
C    -5.658734  -0.312946  2.905289
H    -4.026630  -1.492940  3.606666
H    -6.195448  -0.366112  3.858631
H    -6.109379  -1.017810  2.195298
H    -5.730642  0.698903  2.498120
Cd    1.837349  -0.359699  3.972067
