36
Energy: -175311.22996 eV PBE+vdW (tier 2 basis)
C    0.591420  -1.075738  0.637159
C    0.498199  -0.307312  1.918110
O    1.539124  0.244584  2.396636
H    0.825981  -0.357140  -0.163410
H    -0.327510  -1.607007  0.367253
H    1.432083  -1.778623  0.679922
N    -0.710149  -0.230599  2.510610
C    -1.294301  0.740684  3.464287
C    -0.346485  1.419737  4.453779
O    0.543770  0.800886  5.115776
H    -1.442667  -0.729103  2.008565
H    -1.711642  1.537740  2.830509
C    -2.526229  0.109010  4.184117
C    -2.404534  -0.783005  5.435665
C    -1.702398  -2.148606  5.360301
N    -0.257894  -1.968015  5.507719
C    0.734606  -2.882517  5.437974
N    0.440903  -4.190660  5.501803
N    1.983635  -2.425539  5.260125
H    -3.097533  -0.424417  3.406673
H    -3.172429  0.951579  4.468489
H    -3.441465  -0.980333  5.741000
H    -1.975175  -0.212881  6.275249
H    -1.919603  -2.668556  4.414322
H    -2.098045  -2.772164  6.177649
H    0.023957  -1.035513  5.802219
H    1.152499  -4.891684  5.330728
H    -0.429135  -4.514326  5.909609
H    2.741050  -3.079979  5.438956
N    -0.558106  2.706468  4.710625
C    -1.532680  3.635327  4.128217
H    0.044687  3.076355  5.446066
H    -1.473982  3.635565  3.033116
H    -1.285218  4.641477  4.477827
H    -2.555222  3.402348  4.450300
Cd    2.110175  -0.563921  4.300649
