36
Energy: -175308.876971 eV PBE+vdW (tier 2 basis)
C    -0.886881  0.221843  -0.532643
C    -0.249974  -0.246184  0.708408
O    1.028883  -0.262608  0.755058
H    -1.581183  1.045195  -0.322581
H    -0.112438  0.537306  -1.237416
H    -1.510832  -0.575850  -1.052708
N    -0.932226  -0.562667  1.856715
C    -2.028569  -1.502947  2.127494
C    -1.404235  -2.827829  2.633556
O    -0.212148  -3.187324  2.350516
H    -0.361679  -0.385475  2.684251
H    -2.606901  -1.069326  2.958194
C    -2.984900  -1.782274  0.954238
C    -4.009851  -0.666561  0.707347
C    -4.894118  -0.928064  -0.538031
N    -4.542045  -0.178736  -1.740808
C    -3.597945  -0.558996  -2.646837
N    -3.690883  -0.021274  -3.890493
N    -2.652122  -1.398500  -2.254961
H    -3.533394  -2.704690  1.191231
H    -2.424623  -2.014319  0.039107
H    -3.527715  0.314294  0.605323
H    -4.666309  -0.588725  1.586583
H    -5.927920  -0.648045  -0.306403
H    -4.899347  -1.999679  -0.781850
H    -5.164999  0.576607  -2.005013
H    -2.954558  -0.177940  -4.567067
H    -4.559535  0.360111  -4.248705
H    -2.044374  -1.661907  -3.036198
N    -2.136320  -3.650944  3.372456
C    -3.525219  -3.524588  3.816201
H    -1.657992  -4.517357  3.623487
H    -4.202657  -4.058060  3.136454
H    -3.826577  -2.475127  3.881563
H    -3.608214  -3.968969  4.813549
Cd    1.613339  -2.085681  1.822734
