36
Energy: -175308.909256 eV PBE+vdW (tier 2 basis)
C    0.612855  -1.065892  0.769284
C    0.001383  0.045304  1.558580
O    0.761426  0.715766  2.334026
H    -0.091373  -1.486050  0.041541
H    0.946509  -1.853480  1.459872
H    1.509139  -0.694550  0.256390
N    -1.315541  0.266504  1.419104
C    -1.994165  1.409553  2.020029
C    -2.098118  1.327486  3.566486
O    -1.531702  2.257462  4.245539
H    -1.789844  -0.261535  0.641297
H    -1.324702  2.282597  1.886081
C    -3.267545  1.860614  1.264610
C    -4.550516  0.994521  1.246570
C    -5.261811  0.971815  -0.132336
N    -4.767435  -0.100974  -1.015237
C    -3.391787  -0.168096  -1.274254
N    -2.883099  0.871726  -1.980623
N    -2.602199  -1.083196  -0.773594
H    -2.922293  2.040490  0.236194
H    -3.517047  2.854463  1.661608
H    -4.345191  -0.048477  1.514394
H    -5.256228  1.370557  1.999146
H    -5.168462  1.942162  -0.638715
H    -6.333838  0.788589  0.001056
H    -5.159871  -1.011841  -0.781937
H    -3.509445  1.386744  -2.590252
H    -1.926218  0.780807  -2.305134
H    -3.127703  -1.843059  -0.332969
N    -2.723157  0.375815  4.240672
C    -3.414898  -0.834261  3.802315
H    -2.685934  0.521473  5.252117
H    -4.501386  -0.685120  3.799626
H    -3.175152  -1.631948  4.514616
H    -3.069450  -1.138622  2.812137
Cd    0.517158  2.511789  3.540828
