36
Energy: -175311.136465 eV PBE+vdW (tier 2 basis)
C    -2.489876  -0.165679  0.013136
C    -2.091734  -0.731073  1.342256
O    -1.471155  -1.823255  1.398567
H    -3.109867  0.734360  0.080717
H    -3.027616  -0.934428  -0.556521
H    -1.578992  0.068574  -0.555428
N    -2.446022  -0.027258  2.440700
C    -2.236628  -0.341815  3.867677
C    -0.742657  -0.155682  4.229646
O    0.154922  -1.009678  3.931471
H    -2.951222  0.834824  2.259736
H    -2.802051  0.437954  4.388721
C    -2.763438  -1.708489  4.374851
C    -4.066600  -2.244355  3.757725
C    -4.180813  -3.783833  3.830858
N    -3.091315  -4.422559  3.074593
C    -1.888631  -4.795839  3.555343
N    -1.719933  -5.059855  4.860222
N    -0.761113  -4.859031  2.775780
H    -2.872805  -1.612807  5.464992
H    -1.974255  -2.461611  4.249637
H    -4.145230  -1.949328  2.701462
H    -4.943644  -1.810261  4.257693
H    -5.136290  -4.109700  3.401979
H    -4.173753  -4.140893  4.867975
H    -3.084180  -4.196217  2.082652
H    -0.860359  -5.532420  5.122027
H    -2.499886  -5.130756  5.502857
H    -1.002306  -5.021439  1.792504
N    -0.368998  0.941178  4.873190
C    -1.186913  2.071178  5.331109
H    0.633192  0.991682  5.060851
H    -1.661510  2.588654  4.488537
H    -0.521247  2.781163  5.829509
H    -1.942838  1.750730  6.058154
Cd    -0.062706  -2.830643  2.825616
