36
Energy: -175310.473269 eV PBE+vdW (tier 2 basis)
C    -1.523234  -1.560236  0.142589
C    -1.157229  -1.097065  1.510767
O    -0.501188  -1.921917  2.282959
H    -0.631392  -1.898640  -0.400484
H    -2.049048  -0.796245  -0.438610
H    -2.177613  -2.439406  0.247039
N    -1.554113  0.090102  1.920176
C    -1.608132  0.658270  3.270214
C    -2.676959  1.792065  3.100215
O    -2.924562  2.175844  1.952623
H    -2.106111  0.717081  1.291945
H    -1.970218  -0.118434  3.960330
C    -0.278536  1.223426  3.819747
C    0.394028  2.370394  3.029761
C    1.876475  2.147208  2.675458
N    2.711194  1.754792  3.824793
C    3.091504  0.504457  4.128444
N    3.423996  0.186415  5.384874
N    3.164980  -0.508009  3.200532
H    0.424828  0.380450  3.958313
H    -0.479053  1.546245  4.850406
H    0.295523  3.304037  3.599118
H    -0.128235  2.556916  2.079912
H    1.982149  1.379838  1.899525
H    2.301703  3.064783  2.249829
H    2.895088  2.483140  4.513287
H    3.992852  -0.641044  5.537749
H    3.323089  0.834644  6.159910
H    3.460986  -0.143291  2.290655
N    -3.215356  2.288722  4.220982
C    -4.219670  3.355491  4.221321
H    -3.019571  1.828734  5.104534
H    -3.966744  4.099480  4.984478
H    -5.215561  2.945373  4.430312
H    -4.226301  3.826980  3.235256
Cd    1.407129  -1.549934  2.875583
