36
Energy: -175310.879337 eV PBE+vdW (tier 2 basis)
C    -1.321353  1.892444  -1.979933
C    -1.231030  0.600706  -1.258461
O    -0.222841  -0.160834  -1.419482
H    -0.425368  2.498413  -1.793454
H    -2.233052  2.450920  -1.749414
H    -1.319372  1.665168  -3.059006
N    -2.235426  0.181583  -0.436009
C    -2.793158  0.939887  0.689216
C    -1.652722  1.688220  1.398388
O    -0.473760  1.239172  1.367229
H    -2.206862  -0.825323  -0.275984
H    -3.543403  1.657644  0.331171
C    -3.514787  -0.051849  1.652056
C    -2.799721  -1.369239  2.045698
C    -2.114704  -1.519933  3.411279
N    -0.908614  -0.721437  3.734030
C    0.367970  -1.158898  3.553044
N    1.237795  -1.000342  4.564410
N    0.738628  -1.721848  2.391730
H    -4.457987  -0.314263  1.155090
H    -3.802278  0.503722  2.555133
H    -2.102732  -1.730849  1.268686
H    -3.572066  -2.152566  2.052703
H    -1.859975  -2.582243  3.529361
H    -2.840677  -1.284212  4.200301
H    -1.021837  -0.098356  4.527494
H    2.238540  -1.071773  4.412998
H    0.926649  -0.910929  5.526334
H    1.599714  -2.263287  2.462782
N    -1.932288  2.812508  2.055087
C    -3.211875  3.528445  2.126059
H    -1.127292  3.249009  2.501894
H    -3.068597  4.410491  2.755968
H    -3.997573  2.913250  2.579980
H    -3.535697  3.869694  1.134440
Cd    0.329463  -0.761017  0.576341
