36
Energy: -175311.499981 eV PBE+vdW (tier 2 basis)
C    0.327713  -0.688727  -0.382622
C    -0.275561  -0.031060  0.814160
O    0.222614  1.045169  1.249961
H    0.319158  0.020141  -1.221453
H    -0.190033  -1.607284  -0.678263
H    1.380825  -0.917036  -0.170006
N    -1.350812  -0.621438  1.395211
C    -2.031795  0.003034  2.518600
C    -1.257037  -0.195407  3.842501
O    -0.600750  0.789318  4.303957
H    -1.721345  -1.466868  0.970613
H    -1.913808  1.075871  2.312490
C    -3.557704  -0.115876  2.611937
C    -4.081963  1.026595  3.512455
C    -3.936098  2.445745  2.902035
N    -3.531715  3.465718  3.881097
C    -2.577125  4.418850  3.727672
N    -2.784374  5.596085  4.347482
N    -1.465249  4.217184  3.004526
H    -3.886682  -1.083346  3.008812
H    -3.975314  -0.030554  1.597270
H    -3.559154  1.000255  4.480709
H    -5.137845  0.834637  3.738321
H    -4.891941  2.754940  2.454898
H    -3.210708  2.483728  2.078935
H    -4.217999  3.665701  4.603918
H    -2.020742  6.241409  4.514213
H    -3.712112  5.902882  4.619148
H    -0.995489  5.088946  2.767413
N    -1.250492  -1.348494  4.496169
C    -1.911289  -2.614034  4.178557
H    -0.690621  -1.331500  5.350117
H    -1.230604  -3.433657  4.432662
H    -2.140797  -2.685128  3.112724
H    -2.834354  -2.731262  4.760889
Cd    -0.334622  2.444081  2.869521
