36
Energy: -175311.720607 eV PBE+vdW (tier 2 basis)
C    1.391294  -1.031554  1.056462
C    0.256033  -1.014036  2.032520
O    0.257544  -1.890188  2.947079
H    1.322446  -0.256441  0.286265
H    1.426021  -2.017776  0.574337
H    2.333658  -0.912978  1.607972
N    -0.684942  -0.063868  1.857847
C    -1.951560  0.212351  2.582078
C    -1.628344  0.702474  4.006794
O    -1.257141  -0.092862  4.915331
H    -0.507072  0.552029  1.069770
H    -2.395390  1.055853  2.035352
C    -2.949135  -0.963814  2.466483
C    -4.393759  -0.787159  2.968139
C    -4.660557  -0.642023  4.484193
N    -3.828437  -1.479184  5.356002
C    -3.730654  -2.832293  5.391459
N    -4.838447  -3.573718  5.235063
N    -2.512646  -3.362504  5.566084
H    -2.524827  -1.884653  2.899273
H    -3.003282  -1.190614  1.392108
H    -4.940892  -1.666391  2.599855
H    -4.864891  0.073936  2.470110
H    -5.728020  -0.821928  4.671085
H    -4.479022  0.385367  4.822760
H    -3.042679  -0.998675  5.782215
H    -4.781316  -4.581182  5.138066
H    -5.753214  -3.185268  5.439147
H    -2.480419  -4.337320  5.859154
N    -1.745096  2.007885  4.230965
C    -1.432097  2.671656  5.497997
H    -2.058559  2.598235  3.465155
H    -2.352410  3.039122  5.969198
H    -0.767264  3.521278  5.305733
H    -0.936466  1.960100  6.162247
Cd    -0.947386  -2.317788  4.634761
