36
Energy: -175308.740536 eV PBE+vdW (tier 2 basis)
C    0.065600  -0.615014  -0.221504
C    0.115172  -0.193788  1.211001
O    1.217848  0.161551  1.717830
H    0.034273  -1.715057  -0.282472
H    0.984618  -0.285931  -0.716186
H    -0.806862  -0.212980  -0.746418
N    -1.004594  -0.179074  1.987940
C    -2.020456  -1.240739  2.060158
C    -1.298861  -2.563718  2.453951
O    -0.110710  -2.560050  2.885421
H    -0.841662  0.287088  2.879490
H    -2.627917  -0.972872  2.939687
C    -2.987825  -1.325496  0.861208
C    -3.660874  0.018629  0.551048
C    -4.704865  -0.090456  -0.565166
N    -5.303276  1.200862  -0.826520
C    -6.293827  1.495647  -1.723350
N    -6.807418  0.508961  -2.494879
N    -6.647881  2.766880  -1.732168
H    -3.773206  -2.054010  1.116714
H    -2.477339  -1.723398  -0.026509
H    -2.901182  0.760901  0.263564
H    -4.149419  0.403837  1.460043
H    -5.491946  -0.812362  -0.277233
H    -4.235583  -0.478140  -1.489164
H    -5.004279  2.021278  -0.304205
H    -7.543178  0.726276  -3.156043
H    -6.501390  -0.455268  -2.451910
H    -7.392462  2.969283  -2.408753
N    -1.973264  -3.703551  2.370291
C    -1.432570  -4.998346  2.798764
H    -2.918443  -3.684695  2.002350
H    -0.585621  -5.288626  2.165760
H    -2.223392  -5.747553  2.711519
H    -1.097662  -4.941741  3.840633
Cd    1.675337  -1.222704  3.440841
