36
Energy: -175309.083707 eV PBE+vdW (tier 2 basis)
C    -1.008299  0.481314  -0.551587
C    -0.957515  -0.058472  0.841952
O    0.020100  -0.787116  1.176480
H    -0.135667  1.130775  -0.708514
H    -1.920872  1.049215  -0.762372
H    -0.919573  -0.349462  -1.263263
N    -1.959944  0.262955  1.686100
C    -1.977346  -0.044506  3.116657
C    -2.257382  -1.544557  3.376716
O    -1.312748  -2.277457  3.822975
H    -2.675843  0.889202  1.327372
H    -0.950477  0.102108  3.492420
C    -2.882086  0.925316  3.897681
C    -2.675199  0.832852  5.418368
C    -3.720193  1.617097  6.242261
N    -5.015923  0.950395  6.317628
C    -6.026731  0.989953  5.386222
N    -6.087249  2.075526  4.550775
N    -6.873122  0.012276  5.184840
H    -3.934871  0.764935  3.635386
H    -2.631622  1.943197  3.561340
H    -1.679472  1.222835  5.678466
H    -2.692959  -0.216140  5.755256
H    -3.841580  2.634921  5.849767
H    -3.354391  1.727672  7.271145
H    -5.082485  0.180950  6.977597
H    -6.935115  2.099432  3.989918
H    -5.803526  2.980877  4.911999
H    -6.824735  -0.724253  5.895813
N    -3.442229  -2.104432  3.169858
C    -4.702336  -1.538712  2.681565
H    -3.456695  -3.100852  3.394358
H    -5.246385  -2.336924  2.166042
H    -4.521942  -0.736251  1.961819
H    -5.331689  -1.168694  3.504429
Cd    0.670170  -2.006584  2.898036
