36
Energy: -175308.893535 eV PBE+vdW (tier 2 basis)
C    -0.244505  -1.157683  0.785860
C    -0.086958  -0.558990  2.138756
O    0.945723  -0.830467  2.832246
H    0.479579  -0.707104  0.090508
H    -1.258986  -1.058889  0.390004
H    0.023724  -2.221616  0.855016
N    -1.030301  0.268808  2.658638
C    -1.664651  1.391151  1.967530
C    -0.619820  2.526907  1.806071
O    0.463407  2.586301  2.499373
H    -0.961403  0.391354  3.671259
H    -1.954111  1.067227  0.956575
C    -2.935443  1.822266  2.734528
C    -4.161010  0.935051  2.411603
C    -5.356551  1.683163  1.756229
N    -4.980156  2.755719  0.835499
C    -4.052267  2.663856  -0.162700
N    -3.810868  1.421193  -0.691627
N    -3.288812  3.660909  -0.563015
H    -3.142814  2.872436  2.495212
H    -2.715560  1.812339  3.812653
H    -4.551520  0.465992  3.323298
H    -3.847564  0.102900  1.767016
H    -5.972610  2.160178  2.526698
H    -6.010652  0.950699  1.257859
H    -5.192085  3.701786  1.135145
H    -3.306008  1.456244  -1.573848
H    -4.573801  0.750126  -0.686114
H    -3.597088  4.557611  -0.172322
N    -0.869861  3.459170  0.916065
C    0.016033  4.595331  0.646914
H    -1.754223  3.421376  0.336372
H    -0.395846  5.145709  -0.203252
H    1.025117  4.246642  0.398614
H    0.074163  5.257122  1.519730
Cd    1.644229  1.124437  3.605076
