36
Energy: -175309.486645 eV PBE+vdW (tier 2 basis)
C    -0.356903  -0.729027  -1.246326
C    -0.490987  0.452128  -0.279664
O    0.721287  1.045031  -0.010841
H    -1.298015  -1.160579  -1.601153
H    0.224484  -1.534885  -0.781521
H    0.223330  -0.382118  -2.107878
N    -1.036875  0.027206  1.110733
C    -1.864778  -1.138495  1.436456
C    -0.913659  -2.370699  1.585368
O    0.323676  -2.235873  1.851450
H    -1.372699  0.862777  1.587732
H    -2.185140  -0.961817  2.479867
C    -3.156371  -1.330479  0.607815
C    -4.265354  -0.278462  0.825047
C    -4.043127  1.180511  0.382006
N    -3.731851  1.343607  -1.046790
C    -2.510151  1.269524  -1.582806
N    -2.345819  0.992501  -2.877944
N    -1.388232  1.510790  -0.827792
H    -3.625278  -2.283978  0.891172
H    -2.919439  -1.435621  -0.458913
H    -4.531866  -0.237998  1.893150
H    -5.165573  -0.652964  0.316312
H    -3.264182  1.678917  0.969717
H    -4.962224  1.748386  0.570171
H    -4.527659  1.411691  -1.679620
H    -1.467399  1.240187  -3.322507
H    -3.103448  0.669899  -3.472642
H    -1.485614  2.285677  -0.172283
N    -1.421374  -3.590396  1.517800
C    -0.642432  -4.809976  1.763358
H    -2.412969  -3.693644  1.332267
H    0.232829  -4.836777  1.105001
H    -1.280889  -5.672796  1.558423
H    -0.304882  -4.843622  2.806206
Cd    1.256887  -0.265025  1.563730
