36
Energy: -175308.452599 eV PBE+vdW (tier 2 basis)
C    -0.265633  -1.419503  0.866947
C    -0.261669  -0.742349  2.206567
O    0.619056  -1.152580  3.041027
H    0.275898  -0.789019  0.145373
H    -1.280888  -1.588346  0.491079
H    0.260418  -2.375204  0.940647
N    -1.112756  0.232984  2.486550
C    -2.132091  0.853431  1.630019
C    -2.182791  2.311594  2.149623
O    -2.043864  2.504129  3.360528
H    -1.073622  0.720643  3.392917
H    -1.806143  0.815179  0.581617
C    -3.488578  0.125462  1.807114
C    -4.689501  0.714817  1.042903
C    -5.494193  1.741417  1.845922
N    -6.667670  2.180270  1.107131
C    -7.491853  3.211769  1.455605
N    -7.278077  3.870928  2.617819
N    -8.480745  3.660575  0.698676
H    -3.710203  0.079774  2.883980
H    -3.342046  -0.914008  1.484242
H    -5.359894  -0.117044  0.780896
H    -4.367309  1.160224  0.088370
H    -4.883827  2.628297  2.089164
H    -5.806780  1.292570  2.807793
H    -6.932813  1.664606  0.272859
H    -7.921652  4.627657  2.829957
H    -6.687833  3.521292  3.361938
H    -8.619404  3.103082  -0.152856
N    -2.415636  3.273010  1.233477
C    -2.483626  4.694527  1.566561
H    -2.405891  3.015888  0.251608
H    -1.585190  5.218636  1.216469
H    -2.549773  4.791984  2.653769
H    -3.363903  5.149414  1.097071
Cd    1.419485  -0.569723  4.989512
