36
Energy: -175308.826998 eV PBE+vdW (tier 2 basis)
C    -0.738896  -0.474031  -0.002022
C    -0.269940  -0.273169  1.396003
O    0.927685  -0.566313  1.709072
H    -0.383559  -1.457908  -0.340346
H    -0.265643  0.264045  -0.667103
H    -1.827205  -0.426985  -0.098715
N    -1.101201  0.217585  2.352773
C    -1.935420  1.422887  2.213648
C    -0.975214  2.597146  1.907755
O    0.168081  2.687978  2.493398
H    -0.757367  0.074367  3.304746
H    -2.623426  1.293422  1.369038
C    -2.705121  1.582692  3.549734
C    -3.692872  2.745232  3.727128
C    -5.085357  2.586944  3.080397
N    -5.065916  2.600884  1.617783
C    -4.538668  3.619642  0.868833
N    -4.550368  4.867954  1.397242
N    -3.885312  3.437393  -0.268099
H    -1.944779  1.675881  4.343214
H    -3.218061  0.624180  3.726450
H    -3.239419  3.697541  3.415645
H    -3.868506  2.848899  4.807420
H    -5.749492  3.379068  3.458691
H    -5.551187  1.640817  3.382881
H    -5.172351  1.714028  1.137865
H    -4.295387  5.616823  0.761286
H    -5.211502  5.112017  2.126074
H    -4.039268  2.504096  -0.662373
N    -1.352665  3.515736  1.048677
C    -0.532557  4.665508  0.663414
H    -2.283625  3.432691  0.555444
H    -1.008784  5.142663  -0.197416
H    0.480716  4.346840  0.393513
H    -0.465120  5.383437  1.490632
Cd    1.723152  1.182918  2.824968
