36
Energy: -175310.920756 eV PBE+vdW (tier 2 basis)
C    -0.656578  -1.757383  -0.012050
C    -0.569578  -1.160722  1.356085
O    0.560184  -0.955158  1.874477
H    -1.678868  -1.811068  -0.401071
H    -0.229188  -2.769466  0.017629
H    -0.033054  -1.172614  -0.700431
N    -1.732100  -0.857398  1.986779
C    -1.799609  -0.263416  3.319175
C    -1.508827  -1.321282  4.414244
O    -0.325041  -1.454920  4.856975
H    -2.599346  -1.094731  1.512482
H    -0.944326  0.418525  3.382509
C    -3.023500  0.625980  3.582952
C    -3.144945  1.948120  2.775791
C    -1.870815  2.701933  2.331463
N    -0.803323  2.736966  3.347593
C    0.483048  2.393253  3.112262
N    0.945529  2.415278  1.849002
N    1.327478  1.916454  4.066719
H    -2.985448  0.865002  4.656128
H    -3.961182  0.064230  3.446749
H    -3.774517  2.621151  3.373310
H    -3.711176  1.774253  1.850398
H    -2.155402  3.718636  2.026891
H    -1.451937  2.201656  1.448765
H    -1.084134  2.793994  4.321965
H    1.947379  2.308525  1.726812
H    0.456718  2.916438  1.116814
H    1.012088  2.149999  5.011884
N    -2.493887  -2.085602  4.856546
C    -2.341683  -3.146637  5.858181
H    -3.432250  -1.904623  4.510081
H    -2.585684  -2.763717  6.857350
H    -1.309416  -3.505396  5.850417
H    -3.023083  -3.965988  5.608971
Cd    1.228131  -0.242794  3.879075
