36
Energy: -175310.882762 eV PBE+vdW (tier 2 basis)
C    -0.191381  -1.009038  1.252457
C    -0.783554  -1.100680  2.627016
O    -0.296496  -1.897135  3.464138
H    -0.067894  -2.018315  0.841761
H    0.816213  -0.577016  1.336250
H    -0.778419  -0.400945  0.556054
N    -1.837778  -0.295962  2.894219
C    -2.572774  -0.102714  4.157903
C    -1.623405  0.393071  5.281419
O    -0.937909  -0.389930  6.014899
H    -2.127328  0.308008  2.131255
H    -3.250785  0.727630  3.930696
C    -3.467255  -1.259749  4.661968
C    -4.311888  -2.060023  3.646515
C    -3.706589  -3.386782  3.134855
N    -3.168822  -4.183001  4.255168
C    -1.871671  -4.552395  4.370223
N    -1.192124  -4.898958  3.277334
N    -1.163705  -4.517899  5.549448
H    -4.144223  -0.794728  5.392576
H    -2.878198  -1.965867  5.268250
H    -4.574176  -1.452248  2.768788
H    -5.271476  -2.291970  4.129934
H    -2.878148  -3.196969  2.440703
H    -4.476604  -3.947760  2.588840
H    -3.662755  -4.083984  5.137789
H    -0.235024  -5.216430  3.390261
H    -1.646085  -5.062348  2.386297
H    -1.773980  -4.656699  6.361480
N    -1.534793  1.696600  5.507108
C    -2.230917  2.800682  4.836588
H    -0.892871  1.945197  6.260982
H    -2.003601  2.823106  3.764018
H    -1.870866  3.735249  5.275437
H    -3.315036  2.748495  4.997216
Cd    -0.549704  -2.462170  5.616327
