36
Energy: -175308.594117 eV PBE+vdW (tier 2 basis)
C    -1.645611  1.589811  1.239942
C    -0.894145  0.539938  1.982409
O    0.352142  0.711175  2.167021
H    -1.863655  1.301557  0.197247
H    -1.024337  2.490359  1.194829
H    -2.594933  1.814991  1.734798
N    -1.491338  -0.542614  2.567005
C    -2.363965  -1.577673  1.987973
C    -1.442815  -2.597847  1.269735
O    -0.292483  -2.258867  0.843413
H    -0.887058  -0.934142  3.291220
H    -2.822411  -2.084007  2.851187
C    -3.495151  -1.091593  1.061237
C    -4.641045  -0.385159  1.798754
C    -5.687520  0.224182  0.840261
N    -5.122960  1.300059  0.045517
C    -4.723174  1.253480  -1.271377
N    -5.432735  0.455997  -2.119615
N    -3.665736  1.975370  -1.556151
H    -3.897170  -1.973012  0.542209
H    -3.075107  -0.458910  0.268910
H    -4.255181  0.405604  2.460131
H    -5.162860  -1.097042  2.456336
H    -6.532812  0.608733  1.429786
H    -6.088077  -0.544489  0.167694
H    -4.676416  2.065841  0.543870
H    -5.156019  0.440064  -3.094891
H    -6.422984  0.301269  -1.955846
H    -3.424250  1.953503  -2.552601
N    -1.860260  -3.843092  1.072627
C    -3.135437  -4.468935  1.423582
H    -1.190921  -4.427908  0.569946
H    -2.941775  -5.505665  1.718669
H    -3.820000  -4.472198  0.565012
H    -3.608837  -3.955812  2.265915
Cd    1.478704  -1.114488  1.605694
