36
Energy: -175310.81314 eV PBE+vdW (tier 2 basis)
C    0.374395  0.904149  0.114445
C    -0.057171  0.006930  1.218157
O    0.793697  -0.649685  1.887464
H    0.760554  1.844316  0.540060
H    -0.423181  1.124999  -0.600952
H    1.223520  0.434628  -0.399317
N    -1.384963  -0.113139  1.534782
C    -2.298261  1.016892  1.715705
C    -1.640629  2.018963  2.702482
O    -0.761418  1.643795  3.536235
H    -1.612498  -0.947609  2.075142
H    -2.451048  1.513678  0.746302
C    -3.675749  0.515711  2.234781
C    -3.807926  0.292421  3.765206
C    -4.274181  -1.091819  4.244819
N    -3.426016  -2.238810  3.870312
C    -2.112098  -2.391905  4.129579
N    -1.435341  -3.358368  3.457653
N    -1.411181  -1.589718  4.946415
H    -3.913149  -0.397369  1.668606
H    -4.425861  1.250034  1.918041
H    -4.557037  0.991845  4.159661
H    -2.881041  0.572849  4.281085
H    -5.262426  -1.317773  3.825868
H    -4.409222  -1.067183  5.337257
H    -3.917412  -3.048548  3.500988
H    -0.616717  -3.758697  3.905781
H    -1.912352  -3.960901  2.794880
H    -1.996639  -1.069046  5.598128
N    -2.056455  3.276168  2.645213
C    -1.604296  4.362751  3.517842
H    -2.738111  3.514133  1.928061
H    -1.139762  5.150783  2.913445
H    -0.876165  3.969408  4.230120
H    -2.461126  4.783355  4.057227
Cd    0.070635  -0.409254  3.966570
