36
Energy: -175309.345938 eV PBE+vdW (tier 2 basis)
C    2.011595  0.468363  2.053276
C    1.014266  -0.088333  3.019795
O    1.254517  -0.011627  4.259384
H    1.701333  0.380623  1.006564
H    2.974321  -0.040177  2.194904
H    2.175412  1.527974  2.293508
N    -0.113566  -0.630069  2.518089
C    -1.307351  -1.038661  3.273125
C    -1.164831  -2.512335  3.712243
O    -0.417859  -2.828310  4.689758
H    -0.181094  -0.668974  1.504189
H    -1.307195  -0.455271  4.207918
C    -2.586994  -0.690227  2.494909
C    -2.817427  0.821235  2.344024
C    -4.128950  1.132070  1.591792
N    -4.370245  2.550668  1.404563
C    -3.800526  3.308416  0.414578
N    -4.059966  4.640690  0.410920
N    -2.988208  2.865753  -0.525568
H    -3.438732  -1.135200  3.031714
H    -2.561092  -1.161638  1.495924
H    -1.979548  1.292306  1.808295
H    -2.856016  1.290859  3.338748
H    -4.988160  0.728975  2.144792
H    -4.139128  0.631202  0.611061
H    -4.933284  3.019223  2.107174
H    -3.693059  5.171120  -0.372229
H    -4.781266  5.069660  0.977963
H    -2.929517  1.843723  -0.536779
N    -1.810885  -3.459811  3.052331
C    -1.717193  -4.887648  3.379227
H    -2.416053  -3.186497  2.284247
H    -0.686375  -5.238869  3.253000
H    -2.376584  -5.439346  2.704891
H    -2.027457  -5.057968  4.416640
Cd    0.861546  -1.466733  5.865398
