36
Energy: -175310.403129 eV PBE+vdW (tier 2 basis)
C    -1.041245  -0.438511  -0.157178
C    -0.554296  0.652650  0.757532
O    0.387102  1.380663  0.348162
H    -1.356379  0.014736  -1.105911
H    -1.874323  -1.021439  0.251666
H    -0.205107  -1.111841  -0.385038
N    -1.209284  0.745217  1.946823
C    -1.124180  1.695212  3.079419
C    0.245710  2.372364  2.960674
O    1.259896  1.595722  3.084275
H    -1.963526  0.071113  2.042862
H    -1.900355  2.459332  2.929152
C    -1.428138  1.007144  4.421838
C    -0.462188  -0.084558  4.902544
C    -0.961351  -0.706372  6.210586
N    -0.012890  -1.714983  6.699722
C    0.004116  -2.231496  7.936743
N    1.024662  -3.012692  8.320257
N    -0.982533  -1.959587  8.799799
H    -2.450722  0.598589  4.349325
H    -1.488368  1.809209  5.173339
H    0.539343  0.339035  5.052851
H    -0.364027  -0.868617  4.134952
H    -1.952729  -1.165909  6.057819
H    -1.061255  0.074117  6.980497
H    0.631844  -2.113524  6.024682
H    0.974610  -3.568357  9.165809
H    1.885295  -3.059189  7.789046
H    -1.864526  -1.571183  8.491556
N    0.365247  3.579753  2.446306
C    -0.678719  4.565644  2.243515
H    -0.907495  -2.213995  9.777655
H    -0.230223  5.565360  2.283796
H    -1.439045  4.527113  3.036519
H    -1.161480  4.449915  1.261286
Cd    2.017126  2.687839  1.253120
