36
Energy: -175310.765502 eV PBE+vdW (tier 2 basis)
C    -0.990249  -0.489031  3.838165
C    -0.197731  -0.571009  2.562853
O    1.033051  -0.219094  2.605071
H    -0.947323  0.543088  4.209663
H    -0.520402  -1.120053  4.602829
H    -2.035653  -0.787592  3.705460
N    -0.702357  -0.946260  1.384143
C    -1.681137  -1.953328  1.100600
C    -0.911936  -3.212517  0.564234
O    0.273715  -3.137790  0.127496
H    -7.835911  0.906615  -0.512273
H    -2.221549  -2.263992  2.011641
C    -2.668339  -1.470833  0.005600
C    -3.441427  -0.189725  0.355438
C    -4.635409  -0.407254  1.296963
N    -5.371360  0.826590  1.599820
C    -6.480804  1.267953  0.987644
N    -7.181451  2.271969  1.533055
N    -6.908099  0.712574  -0.154007
H    -3.364196  -2.281011  -0.257493
H    -2.075273  -1.274737  -0.899410
H    -3.798670  0.263680  -0.581413
H    -2.749780  0.542905  0.798021
H    -4.311999  -0.818052  2.263529
H    -5.347089  -1.135806  0.882429
H    -4.994980  1.422687  2.329972
H    -7.885171  2.772475  1.002673
H    -7.053165  2.545335  2.500040
H    -6.301265  0.143970  -0.729151
N    -1.519293  -4.397314  0.542315
C    -2.861105  -4.761685  0.986456
H    -0.950459  -5.145027  0.144931
H    -2.824024  -5.768577  1.415449
H    -3.570565  -4.765615  0.148065
H    -3.217871  -4.078642  1.763292
Cd    1.327944  -1.184280  0.566604
