36
Energy: -175310.745598 eV PBE+vdW (tier 2 basis)
C    -0.318420  1.577142  0.376054
C    -0.232092  0.909166  1.705903
O    0.876944  1.033112  2.347360
H    -1.297957  1.451037  -0.096805
H    0.455929  1.158843  -0.282670
H    -0.100586  2.647299  0.488916
N    -1.269512  0.213489  2.162562
C    -1.246813  -0.647730  3.351265
C    -2.284961  -1.799880  3.314942
O    -1.927210  -2.886968  3.744797
H    -2.059115  0.116349  1.526202
H    -0.292521  -1.199598  3.320055
C    -1.333503  0.142258  4.683799
C    -0.574843  -0.581851  5.808693
C    -0.090430  0.349327  6.940197
N    1.126533  -0.130332  7.588828
C    2.386128  0.124484  7.189778
N    3.386751  -0.150655  8.043802
N    2.666183  0.665622  5.986775
H    -2.382528  0.314355  4.961536
H    -0.925630  1.160324  4.530937
H    0.304728  -1.108632  5.382800
H    -1.174165  -1.409119  6.211477
H    -0.855958  0.459212  7.717214
H    0.103069  1.368869  6.568673
H    1.017778  -0.698906  8.422943
H    4.348794  -0.206501  7.730661
H    3.219833  -0.287436  9.034939
H    3.620478  1.016746  5.931162
N    -3.516140  -1.515316  2.820320
C    -4.570450  -2.534122  2.775582
H    -3.812088  -0.548308  2.725886
H    -4.113393  -3.500874  2.545318
H    -5.286763  -2.270671  1.991570
H    -5.092104  -2.612394  3.738512
Cd    1.652883  0.666286  4.200594
