36
Energy: -175310.72648 eV PBE+vdW (tier 2 basis)
C    -0.502884  1.822259  0.305467
C    -0.419029  0.843092  1.426961
O    0.725337  0.769011  2.036096
H    -0.240975  2.824641  0.668240
H    -1.493750  1.840877  -0.159245
H    0.245858  1.551318  -0.452849
N    -1.474136  0.104000  1.715948
C    -1.610361  -1.056897  2.593376
C    -2.768780  -1.861005  1.905518
O    -3.591442  -1.213598  1.259978
H    -2.342520  0.201561  1.155308
H    -0.672370  -1.640328  2.575808
C    -2.000450  -0.677181  4.051034
C    -1.692147  -1.799122  5.053711
C    -1.806152  -1.453848  6.546554
N    -1.126969  -0.227662  7.021648
C    0.023742  0.313933  6.607730
N    0.258137  1.624838  6.835819
N    0.973748  -0.371507  5.920184
H    -3.066150  -0.406313  4.074317
H    -1.477459  0.256886  4.328205
H    -0.701858  -2.232315  4.836631
H    -2.398403  -2.628199  4.902533
H    -1.464284  -2.313252  7.142222
H    -2.862213  -1.300923  6.803698
H    -1.621187  0.270095  7.759151
H    1.221459  1.926684  6.947547
H    -0.452514  2.224743  7.242984
H    0.935409  -1.377561  6.079696
N    -2.804418  -3.185792  2.116671
C    -3.849784  -4.045842  1.553407
H    -2.003702  -3.636459  2.546505
H    -4.082292  -4.845792  2.263641
H    -3.521824  -4.486299  0.603208
H    -4.742945  -3.441034  1.375061
Cd    1.128851  0.156807  3.932059
