36
Energy: -175308.622188 eV PBE+vdW (tier 2 basis)
C    -0.458793  -0.034073  -0.266354
C    -0.296199  -0.217106  1.202797
O    0.867439  -0.276459  1.712374
H    -0.630484  1.031213  -0.491551
H    -1.298745  -0.623602  -0.657494
H    0.475874  -0.318358  -0.761897
N    -1.376604  -0.348560  2.015295
C    -2.568181  0.495781  2.004334
C    -2.214892  1.776425  2.809501
O    -1.166726  1.863484  3.525746
H    -1.151461  -0.722934  2.938567
H    -2.777560  0.784474  0.962867
C    -3.750107  -0.315203  2.596704
C    -5.183862  0.203705  2.415951
C    -5.649501  0.455721  0.963558
N    -5.317398  -0.632157  0.052775
C    -4.311762  -0.599040  -0.887453
N    -3.970698  0.644963  -1.387024
N    -3.596200  -1.622109  -1.255436
H    -3.572928  -0.464189  3.673262
H    -3.668907  -1.309389  2.135025
H    -5.365957  1.122248  2.994901
H    -5.844269  -0.545720  2.876282
H    -5.205651  1.372349  0.555956
H    -6.738289  0.613979  0.964542
H    -5.653421  -1.560108  0.298498
H    -3.320983  0.568499  -2.166920
H    -4.739744  1.279090  -1.591172
H    -3.912325  -2.519268  -0.875328
N    -3.055383  2.799038  2.760406
C    -2.865126  4.056200  3.494546
H    -3.895739  2.703388  2.199377
H    -3.666462  4.743814  3.212953
H    -1.897430  4.501231  3.236770
H    -2.900982  3.876808  4.575587
Cd    0.885078  0.961528  3.557340
