36
Energy: -175309.878071 eV PBE+vdW (tier 2 basis)
C    0.495698  -3.595165  0.062881
C    0.765495  -2.235997  0.586305
O    1.852302  -1.965450  1.178139
H    -0.557327  -3.741352  -0.199134
H    0.862598  -4.366453  0.748093
H    1.069648  -3.693718  -0.876250
N    -0.150579  -1.217715  0.372205
C    -1.428165  -1.115392  1.143248
C    -1.531676  -2.277940  2.139290
O    -0.609064  -2.376941  3.007672
H    0.321770  -0.308394  0.389048
H    -1.213289  -0.324580  1.866739
C    -2.632693  -0.567169  0.368736
C    -3.474103  0.414708  1.218018
C    -2.822463  1.756599  1.648142
N    -1.817105  1.629315  2.729659
C    -0.480745  1.525509  2.608792
N    0.116312  1.842951  1.421010
N    0.320499  1.021051  3.570932
H    -3.279825  -1.361406  -0.034905
H    -2.242722  -0.051250  -0.520777
H    -4.362468  0.692906  0.633355
H    -3.868738  -0.089644  2.115450
H    -3.608241  2.424441  2.022254
H    -2.376306  2.272246  0.788125
H    -2.194336  1.323788  3.624097
H    -0.406171  2.401511  0.752502
H    1.090284  2.126540  1.505328
H    -0.149016  0.942505  4.475468
N    -2.570029  -3.097276  2.103605
C    -2.806175  -4.197673  3.041630
H    -3.245096  -2.964221  1.354343
H    -2.687072  -5.158909  2.526405
H    -3.826364  -4.127322  3.435010
H    -2.084949  -4.130166  3.859240
Cd    1.160883  -0.888307  2.984875
