36
Energy: -175308.617437 eV PBE+vdW (tier 2 basis)
C    0.313602  1.473947  0.720782
C    -0.349159  0.215653  1.176911
O    -0.293776  -0.816775  0.446260
H    -0.443256  2.163520  0.312673
H    1.006765  1.231694  -0.090725
H    0.845507  1.981501  1.531854
N    -1.012040  0.149677  2.364249
C    -1.963515  1.145236  2.883325
C    -3.102805  1.304468  1.834035
O    -3.257455  0.468488  0.895623
H    -1.249051  -0.808808  2.616985
H    -2.435354  0.642599  3.742963
C    -1.345835  2.452767  3.420405
C    -0.230605  2.207547  4.446671
C    0.230427  3.514089  5.129700
N    1.282605  3.295083  6.110964
C    2.623184  3.140168  5.860012
N    3.114283  3.549953  4.652976
N    3.464669  2.556223  6.679814
H    -2.150665  3.018619  3.916348
H    -0.989793  3.086649  2.596443
H    0.634449  1.725707  3.969056
H    -0.583906  1.512290  5.223613
H    -0.609804  3.985859  5.657900
H    0.566350  4.244413  4.380311
H    0.990856  3.030846  7.047033
H    4.124750  3.468496  4.573711
H    2.701165  4.342875  4.174901
H    3.060844  2.321393  7.593039
N    -3.948806  2.317096  1.964120
C    -5.113984  2.519557  1.095515
H    -3.794704  2.986092  2.711314
H    -5.679371  3.375328  1.472579
H    -5.751802  1.628434  1.104874
H    -4.793922  2.720423  0.066276
Cd    -2.403624  -1.429733  -0.037540
