36
Energy: -175310.699862 eV PBE+vdW (tier 2 basis)
C    -0.676316  3.323808  1.939761
C    -0.068413  1.959478  1.807121
O    1.195041  1.849445  2.031217
H    0.085241  4.043016  2.251482
H    -1.491656  3.329702  2.676753
H    -1.094642  3.650806  0.976447
N    -0.723183  0.838247  1.470391
C    -2.130457  0.842117  1.087532
C    -2.980983  0.917075  2.358893
O    -2.428250  0.526980  3.476028
H    -1.473279  0.360108  3.252195
H    -2.388553  1.712079  0.457896
C    -2.524445  -0.462790  0.332645
C    -2.209275  -0.539337  -1.174605
C    -0.790621  -0.941253  -1.607376
N    -0.393940  -2.257627  -1.091681
C    0.631115  -2.487012  -0.249741
N    0.609693  -3.576048  0.537426
N    1.697770  -1.655890  -0.131247
H    -3.611317  -0.591421  0.432609
H    -2.075574  -1.309667  0.874832
H    -2.440066  0.419356  -1.663645
H    -2.915348  -1.259249  -1.615640
H    -0.050822  -0.208123  -1.268828
H    -0.740411  -0.954053  -2.704781
H    -1.007554  -3.037805  -1.318576
H    1.493041  -3.920980  0.899146
H    -0.189118  -4.199256  0.582331
H    1.897239  -1.193803  -1.021991
N    -4.221754  1.320586  2.375936
C    -5.105744  1.371381  3.550766
H    -4.619724  1.614837  1.485106
H    -5.845846  0.564242  3.487003
H    -5.621801  2.337247  3.557912
H    -4.513516  1.257915  4.461414
Cd    1.466559  -0.125892  1.284951
