36
Energy: -175309.224378 eV PBE+vdW (tier 2 basis)
C    -1.077360  0.433355  0.418494
C    -0.389920  0.078339  1.699640
O    0.811955  -0.328408  1.628584
H    -2.110837  0.769212  0.553660
H    -1.070823  -0.451809  -0.233495
H    -0.499988  1.210991  -0.098378
N    -1.095200  0.197459  2.838768
C    -0.838723  -0.285362  4.215393
C    0.086385  0.640795  5.025858
O    1.296901  0.894958  4.699216
H    -2.026478  0.581043  2.703883
H    -1.823752  -0.208264  4.694480
C    -0.414904  -1.768560  4.308479
C    -0.527346  -2.328603  5.733713
C    -1.987696  -2.533248  6.241915
N    -2.156504  -2.191136  7.647028
C    -2.305450  -0.909876  8.137128
N    -2.937458  0.011654  7.271405
N    -1.875291  -0.461020  9.264994
H    0.622989  -1.909964  3.960165
H    -1.035037  -2.344140  3.605726
H    0.002696  -1.670092  6.437383
H    0.000996  -3.289559  5.770952
H    -2.285262  -3.581258  6.114440
H    -2.700396  -1.946838  5.648232
H    -1.778887  -2.855780  8.318187
H    -3.223315  0.820382  7.827931
H    -3.755229  -0.371171  6.794912
H    -1.411393  -1.155686  9.857120
N    -0.423876  1.143395  6.131365
C    0.304055  1.975566  7.090214
H    -1.392136  0.867651  6.379586
H    -0.091585  1.768698  8.090166
H    0.159747  3.038339  6.855916
H    1.372519  1.744374  7.051997
Cd    2.367279  -0.043134  3.084687
