36
Energy: -175311.645244 eV PBE+vdW (tier 2 basis)
C    0.017396  0.431069  0.018964
C    -0.212108  0.175691  1.472365
O    0.792354  0.022541  2.229108
H    0.660491  1.314731  -0.089664
H    -0.908226  0.584512  -0.545524
H    0.568932  -0.417414  -0.408268
N    -1.487811  0.131990  1.916087
C    -1.860194  -0.031708  3.320867
C    -1.808696  -1.527828  3.709331
O    -0.722293  -2.006770  4.143335
H    -2.224477  0.255590  1.225901
H    -1.046107  0.430917  3.893236
C    -3.105335  0.752102  3.754692
C    -3.220267  0.845831  5.292206
C    -2.280379  1.843382  6.000697
N    -0.842497  1.524982  5.925264
C    -0.109046  0.724388  6.753941
N    -0.561623  0.459858  7.988673
N    1.032893  0.217310  6.275671
H    -4.025167  0.308424  3.342009
H    -3.044101  1.760827  3.318022
H    -3.110994  -0.151023  5.748539
H    -4.242460  1.167626  5.535804
H    -2.597621  1.937190  7.047768
H    -2.395263  2.846192  5.569071
H    -0.277758  2.108364  5.316817
H    -0.112805  -0.245534  8.562224
H    -1.208200  1.083808  8.459515
H    1.675375  -0.136779  6.983078
N    -2.891971  -2.273247  3.539230
C    -2.966368  -3.714815  3.790876
H    -3.736996  -1.815430  3.208300
H    -3.289536  -4.229244  2.878385
H    -3.688230  -3.916038  4.591420
H    -1.978619  -4.075089  4.086262
Cd    0.980738  -0.559896  4.303454
