36
Energy: -175310.743808 eV PBE+vdW (tier 2 basis)
C    0.537786  0.322038  1.040322
C    0.034957  0.171063  2.430975
O    0.838598  -0.011844  3.392228
H    0.921622  1.345663  0.902191
H    -0.219685  0.108210  0.280492
H    1.400660  -0.344278  0.911284
N    -1.307583  0.238011  2.694458
C    -2.204584  1.272858  2.176452
C    -1.585739  2.655379  2.499248
O    -0.728390  2.787358  3.428470
H    -1.575711  -0.158450  3.594934
H    -2.290385  1.155366  1.087490
C    -3.619399  1.117952  2.802783
C    -3.839887  1.779527  4.189759
C    -4.357233  0.887290  5.330100
N    -3.516411  -0.268193  5.694599
C    -2.219198  -0.243736  6.061243
N    -1.534633  -1.416793  6.066883
N    -1.538046  0.879263  6.334890
H    -3.834632  0.039480  2.828435
H    -4.339307  1.535832  2.089794
H    -4.594782  2.570825  4.088755
H    -2.936071  2.309651  4.515750
H    -5.329092  0.458631  5.056407
H    -4.542802  1.510909  6.218291
H    -4.007203  -1.151067  5.809193
H    -0.749647  -1.501064  6.705592
H    -1.995174  -2.286925  5.820649
H    -2.138421  1.671180  6.560351
N    -1.965483  3.721447  1.806679
C    -2.932085  3.814581  0.710220
H    -1.535845  4.594500  2.115264
H    -2.623523  4.627758  0.045936
H    -3.937901  4.034781  1.090809
H    -2.957450  2.890196  0.124798
Cd    0.035403  1.325403  4.963553
