36
Energy: -175309.47648 eV PBE+vdW (tier 2 basis)
C    -1.786323  0.068207  0.565025
C    -0.815754  0.276118  1.684821
O    0.389109  -0.086528  1.484636
H    -2.804654  0.393132  0.803148
H    -1.800642  -1.001657  0.312451
H    -1.428308  0.598417  -0.327251
N    -1.282157  0.814022  2.824742
C    -0.700801  0.935059  4.186747
C    0.244757  2.137240  4.350003
O    1.369485  2.260110  3.729806
H    -2.257136  1.094190  2.768303
H    -1.571698  1.186725  4.800930
C    -0.112122  -0.387143  4.743970
C    -1.177556  -1.419607  5.175029
C    -1.702042  -1.299601  6.626792
N    -2.363721  -0.034329  6.933944
C    -1.730647  1.130488  7.284155
N    -0.507288  1.027866  7.888659
N    -2.161714  2.338125  6.977335
H    0.535254  -0.132658  5.595374
H    0.534371  -0.862839  3.989767
H    -0.746902  -2.427445  5.089638
H    -2.025777  -1.404375  4.472184
H    -0.882011  -1.469980  7.335416
H    -2.425279  -2.106514  6.803078
H    -3.306763  0.080021  6.574257
H    -0.195708  1.891934  8.322506
H    -0.310227  0.201067  8.442891
H    -3.103959  2.329379  6.575555
N    -0.122092  3.064996  5.200903
C    0.685085  4.245036  5.516400
H    -0.982755  2.899186  5.806963
H    0.169775  4.802037  6.303329
H    0.791310  4.882996  4.630835
H    1.684920  3.952462  5.860445
Cd    2.116366  0.797648  2.388153
