36
Energy: -175310.64474 eV PBE+vdW (tier 2 basis)
C    -0.769505  3.754819  1.315508
C    -1.145313  2.549894  0.522450
O    -0.702456  2.374433  -0.620580
H    -1.574902  4.231284  1.889501
H    -1.151840  1.239848  -2.065259
H    -0.189959  4.471942  0.733757
N    -1.924129  1.564715  1.095907
C    -2.887560  1.560705  2.186315
C    -2.220466  1.449167  3.584592
O    -0.973059  1.250306  3.707760
H    -1.962907  0.737782  0.506530
H    -3.453964  2.508677  2.184627
C    -3.878683  0.398899  1.917232
C    -4.856172  0.621069  0.733088
C    -4.562955  -0.093877  -0.594402
N    -3.426507  0.495849  -1.312675
C    -2.688317  -0.094801  -2.279039
N    -3.056096  -1.276679  -2.789378
N    -1.566186  0.513569  -2.667254
H    -4.472022  0.223455  2.820124
H    -3.290294  -0.522661  1.779234
H    -4.994031  1.698326  0.544667
H    -5.846289  0.260752  1.042010
H    -5.471422  -0.047852  -1.216035
H    -4.339141  -1.154406  -0.407528
H    -3.321810  1.504623  -1.255501
H    -2.431811  -1.797081  -3.395234
H    -4.013692  -1.601610  -2.731690
H    -1.079538  0.233623  -3.510751
N    -2.964670  1.589984  4.680686
C    -4.396951  1.849697  4.829631
H    -2.433963  1.479707  5.545445
H    -4.541377  2.473510  5.718004
H    -4.959226  0.916571  4.967478
H    -4.792884  2.392098  3.965521
Cd    0.397367  2.814501  2.921297
