36
Energy: -175310.71017 eV PBE+vdW (tier 2 basis)
C    -1.529674  -0.888039  -1.056732
C    -0.796144  -0.844793  0.234873
O    0.370016  -1.353354  0.308390
H    -1.141975  -0.101727  -1.723961
H    -2.611749  -0.774694  -0.943063
H    -1.302585  -1.842955  -1.548839
N    -1.357250  -0.283955  1.338559
C    -2.025045  1.015964  1.347758
C    -0.953163  2.093553  1.009468
O    0.275178  1.813711  1.031629
H    -0.868287  -0.503904  2.207114
H    -2.759781  1.026807  0.529240
C    -2.818876  1.253664  2.662984
C    -2.225653  0.849465  4.029398
C    -1.168277  1.737997  4.716882
N    0.165745  1.730519  4.101197
C    1.043023  0.716541  4.091503
N    0.780088  -0.426831  4.756743
N    2.196187  0.743183  3.357736
H    -3.752629  0.685670  2.554559
H    -3.120495  2.311029  2.692394
H    -1.894537  -0.201941  4.008560
H    -3.079399  0.835601  4.723336
H    -1.073808  1.438614  5.771541
H    -1.495912  2.784760  4.737469
H    0.386323  2.486141  3.460525
H    1.573825  -1.031912  4.947758
H    -0.005003  -0.503076  5.393933
H    2.495335  1.704226  3.169995
N    -1.406123  3.302240  0.683885
C    -0.570369  4.438906  0.288819
H    -2.413190  3.444127  0.660599
H    -0.656153  5.247387  1.025220
H    -0.899684  4.812297  -0.687641
H    0.468896  4.109556  0.220110
Cd    1.646383  -0.107416  1.491386
