36
Energy: -175310.503063 eV PBE+vdW (tier 2 basis)
C    0.988568  0.978952  1.033075
C    0.562605  0.850523  2.454422
O    1.478233  0.749671  3.348097
H    1.030956  2.047709  0.769262
H    0.302056  0.478401  0.340992
H    1.996965  0.567981  0.922975
N    -0.734440  0.838754  2.788772
C    -1.912419  1.124953  1.951224
C    -1.814484  2.554690  1.371064
O    -1.284867  3.466960  2.031334
H    -0.952264  0.590501  3.751615
H    -1.929256  0.390731  1.132068
C    -3.207356  0.922833  2.798410
C    -3.994852  2.117828  3.380453
C    -3.361492  3.099398  4.389853
N    -2.528108  2.450125  5.412951
C    -1.214740  2.597283  5.580759
N    -0.440197  3.319263  4.652123
N    -0.479773  1.998395  6.520493
H    -2.973448  0.196659  3.594248
H    -3.922037  0.390756  2.157611
H    -4.887902  1.671608  3.841981
H    -4.383281  2.742564  2.562514
H    -4.166959  3.641252  4.903723
H    -2.747842  3.848030  3.884268
H    -3.003619  1.821040  6.058697
H    -0.821311  3.435011  3.680477
H    -0.083945  4.197343  5.036096
H    -0.942680  1.539821  7.305973
N    -2.365173  2.724764  0.164288
C    -2.456782  4.012730  -0.524123
H    -2.740340  1.910964  -0.314852
H    -2.027702  4.784784  0.119221
H    -3.505735  4.250371  -0.737294
H    -1.900571  3.974060  -1.468362
Cd    1.210117  1.547657  5.291297
