36
Energy: -175308.581357 eV PBE+vdW (tier 2 basis)
C    0.404824  0.451145  2.049168
C    -0.039603  -0.575707  3.034901
O    0.847074  -1.267802  3.628691
H    -0.245693  1.328232  2.016496
H    0.452356  -0.001637  1.046106
H    1.426116  0.751773  2.309863
N    -1.346602  -0.781061  3.357254
C    -2.483509  -0.956345  2.439823
C    -2.276106  -2.307123  1.700643
O    -1.128678  -2.855306  1.667494
H    -1.430038  -1.361229  4.193393
H    -3.360417  -1.065909  3.096730
C    -2.782861  0.201830  1.470892
C    -3.135393  1.523997  2.165154
C    -3.725798  2.589819  1.213301
N    -5.136596  2.407814  0.896478
C    -5.645855  1.583552  -0.067804
N    -6.993519  1.413989  -0.104923
N    -4.932984  0.882081  -0.933746
H    -3.633790  -0.120581  0.855644
H    -1.952608  0.338272  0.764324
H    -2.245176  1.959596  2.641926
H    -3.853563  1.346344  2.980476
H    -3.144757  2.650822  0.280559
H    -3.639922  3.575969  1.685160
H    -5.793941  2.867817  1.520007
H    -7.362924  0.948269  -0.927323
H    -7.629230  2.020026  0.401166
H    -3.967899  1.220040  -0.991858
N    -3.292995  -2.891162  1.077091
C    -4.683943  -2.454759  0.940249
H    -3.039975  -3.759901  0.604426
H    -5.308674  -3.346865  0.831414
H    -4.818660  -1.817384  0.054308
H    -5.013705  -1.915343  1.834780
Cd    0.528017  -3.401494  3.105505
