36
Energy: -175310.92855 eV PBE+vdW (tier 2 basis)
C    -0.932463  -0.313037  0.258923
C    -0.479711  0.011992  1.651152
O    0.713609  0.193311  1.935697
H    -2.020418  -0.362656  0.141860
H    -0.499058  -1.281526  -0.026950
H    -0.522223  0.433864  -0.431697
N    -1.458502  0.110687  2.612434
C    -1.235587  0.187710  4.059255
C    -0.569596  1.503367  4.521923
O    -1.065129  2.191800  5.516770
H    -2.420565  0.011366  2.307877
H    -2.251216  0.216134  4.488265
C    -0.501555  -1.071347  4.601801
C    -0.338682  -1.169612  6.131811
C    -1.340961  -2.033358  6.912387
N    -2.799680  -1.785527  6.717101
C    -3.588886  -1.174816  7.649374
N    -4.752535  -1.743622  7.986409
N    -3.197180  -0.006142  8.177662
H    0.487513  -1.107744  4.129824
H    -1.051617  -1.944297  4.221994
H    -0.234842  -0.165575  6.592009
H    0.642578  -1.616658  6.350508
H    -1.123654  -1.959192  7.986170
H    -1.184858  -3.082970  6.632185
H    -3.273860  -2.512737  6.188825
H    -5.473802  -1.224425  8.477587
H    -4.920307  -2.735049  7.845663
H    -3.693485  0.292348  9.015694
N    0.501055  1.919565  3.907527
C    1.247063  3.137271  4.213056
H    0.795079  1.298169  3.095956
H    0.978553  3.923372  3.494980
H    2.316048  2.922528  4.111796
H    1.023787  3.481999  5.225757
Cd    -2.145060  1.280707  6.973851
