36
Energy: -175309.07626 eV PBE+vdW (tier 2 basis)
C    -0.774983  2.899250  1.761410
C    -0.681841  1.637402  2.562166
O    0.447263  1.073702  2.651330
H    -0.491985  2.676960  0.723128
H    -0.041239  3.620577  2.143945
H    -1.772070  3.352284  1.772232
N    -1.811074  1.183535  3.140328
C    -2.056951  -0.073255  3.879248
C    -1.233505  -0.121127  5.186647
O    -0.140483  -0.771031  5.282320
H    -2.633732  1.753361  2.967090
H    -3.107827  -0.006856  4.187975
C    -1.917147  -1.331656  2.999633
C    -2.403657  -2.643317  3.640081
C    -3.906691  -2.956253  3.479543
N    -4.814904  -1.976263  4.065069
C    -4.976223  -1.703471  5.403177
N    -4.299814  -2.488805  6.298128
N    -5.636506  -0.673420  5.873433
H    -0.866093  -1.465717  2.684122
H    -2.457986  -1.131068  2.062778
H    -2.112505  -2.683719  4.699340
H    -1.875187  -3.478440  3.160143
H    -4.101417  -3.960476  3.892839
H    -4.161151  -3.021240  2.414313
H    -5.485748  -1.530938  3.448942
H    -4.571735  -2.325516  7.264064
H    -4.122802  -3.462225  6.071326
H    -6.147071  -0.162193  5.146152
N    -1.698221  0.501906  6.260397
C    -2.942153  1.257894  6.422062
H    -1.097022  0.416940  7.081255
H    -2.947542  1.674653  7.433009
H    -3.834155  0.615283  6.316781
H    -2.988477  2.092011  5.711622
Cd    1.344448  -0.615922  3.693064
