36
Energy: -175310.705471 eV PBE+vdW (tier 2 basis)
C    -1.563219  -0.342599  0.033197
C    -1.648335  -0.299780  1.532042
O    -1.065213  -1.219653  2.204457
H    -0.620674  0.134763  -0.275767
H    -2.396282  0.175522  -0.452602
H    -1.510054  -1.382944  -0.305250
N    -2.328114  0.633862  2.223416
C    -2.476242  2.031561  1.884557
C    -1.433436  2.840964  2.725173
O    -0.864279  2.354309  3.754855
H    -3.901294  -2.618284  2.178512
H    -2.242361  2.209219  0.821248
C    -3.903579  2.540708  2.189221
C    -5.004906  1.939425  1.282817
C    -5.888432  0.854257  1.903879
N    -5.134932  -0.372857  2.183818
C    -5.667192  -1.579607  2.395707
N    -6.991708  -1.740354  2.502492
N    -4.857777  -2.649997  2.508993
H    -3.919071  3.632048  2.083105
H    -4.119901  2.345951  3.251604
H    -4.572543  1.561737  0.343543
H    -5.688385  2.745805  0.986846
H    -6.696692  0.617309  1.196474
H    -6.350031  1.236408  2.830084
H    -4.119270  -0.258935  2.286638
H    -7.413319  -2.661557  2.510675
H    -7.615343  -0.949638  2.603133
H    -5.224709  -3.559856  2.760656
N    -1.131406  4.085301  2.376117
C    -1.619598  4.886470  1.254197
H    -0.468664  4.541280  3.004475
H    -2.427145  5.558108  1.573772
H    -1.976265  4.251394  0.438256
H    -0.789372  5.492416  0.876206
Cd    -1.130038  0.172104  4.034372
