36
Energy: -175311.710824 eV PBE+vdW (tier 2 basis)
C    0.832185  -0.963080  0.517565
C    0.367404  0.062679  1.504555
O    1.032612  1.120321  1.663205
H    0.807940  -0.519174  -0.487410
H    0.235974  -1.881437  0.518059
H    1.880796  -1.211097  0.727035
N    -0.754119  -0.215821  2.202018
C    -1.428338  0.561539  3.262222
C    -2.130607  1.786686  2.633694
O    -1.489954  2.817554  2.248662
H    -1.188164  -1.107618  1.983784
H    -2.204292  -0.121184  3.623310
C    -0.576066  0.977801  4.491810
C    0.571190  0.045761  4.918407
C    1.758324  0.810440  5.536892
N    2.329438  1.737232  4.550841
C    2.490854  3.081618  4.674301
N    2.889881  3.579174  5.855076
N    2.214952  3.850205  3.614091
H    -1.281059  1.114936  5.323860
H    -0.164149  1.986508  4.327159
H    0.945094  -0.535754  4.063609
H    0.219053  -0.694394  5.648816
H    2.516975  0.093113  5.878509
H    1.438013  1.394689  6.409978
H    2.443883  1.375253  3.606848
H    2.858023  4.575586  6.040010
H    3.412107  3.005469  6.508987
H    2.587301  4.797911  3.633126
N    -3.446324  1.768661  2.474091
C    -4.406179  0.713410  2.821222
H    -3.824250  2.612199  2.041002
H    -5.403948  1.072242  2.554288
H    -4.400309  0.504396  3.897711
H    -4.214853  -0.204628  2.252318
Cd    0.617611  3.163802  2.433353
