36
Energy: -175308.70584 eV PBE+vdW (tier 2 basis)
C    -0.111331  -0.004347  -0.084440
C    -0.129322  -0.112266  1.403306
O    0.947870  -0.310575  2.036529
H    0.267656  0.985938  -0.380892
H    -1.091251  -0.177230  -0.539430
H    0.609409  -0.736082  -0.471779
N    -1.298719  -0.008745  2.092726
C    -2.282401  1.056352  1.876404
C    -1.598719  2.374728  2.319890
O    -0.740769  2.351744  3.257110
H    -1.200785  -0.263045  3.076997
H    -2.532563  1.092402  0.808500
C    -3.541769  0.720822  2.707489
C    -4.742132  1.657455  2.537158
C    -5.945944  1.179954  3.386028
N    -7.071857  2.082870  3.313014
C    -8.174146  2.034658  2.499664
N    -8.405621  0.929871  1.741976
N    -8.906370  3.129044  2.532707
H    -3.250197  0.686843  3.770510
H    -3.824441  -0.304783  2.425603
H    -5.052616  1.709252  1.483220
H    -4.489201  2.679935  2.854009
H    -5.648529  1.099765  4.442272
H    -6.250643  0.170723  3.077238
H    -7.046313  2.947163  3.850813
H    -9.277157  0.884907  1.226349
H    -7.984131  0.033719  1.958666
H    -9.722731  3.083780  1.912924
N    -1.898748  3.535616  1.744102
C    -2.835871  3.846552  0.665314
H    -1.387211  4.328097  2.136602
H    -3.719520  4.365428  1.057257
H    -3.156225  2.939145  0.147811
H    -2.336282  4.502307  -0.056931
Cd    1.169921  1.172603  3.725291
