36
Energy: -175309.409984 eV PBE+vdW (tier 2 basis)
C    0.160715  -0.532741  0.251861
C    0.147056  -0.280409  1.726618
O    1.073802  -0.811860  2.420097
H    -0.672549  -0.061759  -0.280086
H    0.125935  -1.618721  0.085149
H    1.112374  -0.179546  -0.166669
N    -0.848768  0.472388  2.223360
C    -1.310096  0.720988  3.611045
C    -0.506591  1.805571  4.341816
O    0.762355  1.751713  4.547326
H    -1.470354  0.848689  1.512839
H    -2.303402  1.154398  3.448655
C    -1.518573  -0.574116  4.441201
C    -2.820148  -1.314691  4.057412
C    -4.030805  -1.073147  5.001691
N    -4.182952  0.288696  5.507590
C    -4.292607  1.430699  4.768710
N    -4.639887  1.298183  3.445761
N    -3.962134  2.632222  5.196469
H    -1.532565  -0.297654  5.505770
H    -0.667503  -1.256918  4.308054
H    -2.648286  -2.398925  4.057791
H    -3.088033  -1.063831  3.021235
H    -3.934793  -1.707766  5.890170
H    -4.949702  -1.407381  4.494669
H    -3.992892  0.431764  6.493129
H    -4.929744  2.176409  3.021782
H    -5.222973  0.508498  3.183891
H    -3.809225  2.643852  6.210428
N    -1.182791  2.840891  4.788010
C    -0.583567  3.938480  5.550403
H    -2.235180  2.852678  4.696295
H    -1.392483  4.584804  5.901403
H    0.089881  4.521793  4.910593
H    -0.013064  3.554359  6.404364
Cd    1.947623  0.013127  4.198133
