36
Energy: -175310.112946 eV PBE+vdW (tier 2 basis)
C    1.706993  0.523065  1.574385
C    0.852826  -0.035632  2.688189
O    1.544371  -0.938788  3.384094
H    1.179229  1.313389  1.034094
H    1.989676  -0.283744  0.884992
H    2.638331  0.928933  1.988051
N    -0.370249  0.389198  2.792858
C    -1.438240  -0.109551  3.674601
C    -1.303934  0.335738  5.144121
O    -0.670901  -0.335524  6.042418
H    -1.015817  1.882916  -0.387170
H    -2.336373  0.420766  3.324650
C    -1.790342  -1.610923  3.531792
C    -1.760039  -2.150500  2.090047
C    -2.670170  -1.457227  1.067965
N    -2.135250  -0.159991  0.637346
C    -2.534673  0.498785  -0.452381
N    -3.572600  0.067869  -1.183189
N    -1.887875  1.617233  -0.824747
H    -2.785409  -1.766403  3.975513
H    -1.117064  -2.262800  4.122657
H    -2.078496  -3.200763  2.132710
H    -0.730222  -2.165837  1.705016
H    -3.684091  -1.333212  1.486969
H    -2.749608  -2.116462  0.190454
H    -1.391100  0.259738  1.233233
H    -3.802803  0.490768  -2.074188
H    -4.154983  -0.699873  -0.876655
H    -2.217838  2.192573  -1.589341
N    -1.884958  1.456929  5.536221
C    -2.678286  2.402291  4.745488
H    -1.755458  1.675417  6.525196
H    -2.200688  2.593116  3.779117
H    -2.720341  3.344922  5.299096
H    -3.704495  2.039030  4.604632
Cd    0.911387  -1.495789  5.255605
