36
Energy: -175309.090604 eV PBE+vdW (tier 2 basis)
C    0.347528  0.462288  0.107650
C    0.284575  0.225605  1.583265
O    1.294480  0.591723  2.268120
H    -0.520422  0.064610  -0.436128
H    1.269686  0.022619  -0.292671
H    0.412873  1.546296  -0.066304
N    -0.826999  -0.331123  2.086717
C    -1.269755  -0.366358  3.493673
C    -0.729196  -1.606882  4.235791
O    0.504957  -1.701370  4.543794
H    -1.592850  -0.478630  1.405238
H    -0.784746  0.482548  4.008197
C    -2.787078  -0.065812  3.572069
C    -3.869774  -1.042828  3.038211
C    -3.657217  -1.762514  1.699128
N    -3.318215  -0.822434  0.625254
C    -2.906492  -1.214601  -0.660355
N    -2.647000  -2.538743  -0.852617
N    -2.624275  -0.381052  -1.617846
H    -2.904901  0.902758  3.065653
H    -3.022786  0.140441  4.625810
H    -4.797195  -0.452750  2.981282
H    -4.120620  -1.816717  3.782211
H    -4.571579  -2.336440  1.470852
H    -2.832099  -2.489449  1.774109
H    -3.888294  0.021802  0.602468
H    -2.356218  -2.777952  -1.797254
H    -3.162552  -3.255573  -0.355290
H    -2.857999  0.591598  -1.395551
N    -1.544661  -2.583630  4.588001
C    -1.119726  -3.774965  5.332595
H    -2.528923  -2.486382  4.358635
H    -2.003696  -4.380948  5.545554
H    -0.642399  -3.480217  6.274336
H    -0.406784  -4.359929  4.739824
Cd    1.993764  -0.171677  4.153957
