36
Energy: -175310.427463 eV PBE+vdW (tier 2 basis)
C    0.074743  -0.157515  0.042344
C    0.064140  -0.075017  1.547741
O    1.187212  0.231551  2.087279
H    -0.863316  0.165405  -0.412590
H    0.261847  -1.202083  -0.249022
H    0.905085  0.441707  -0.342725
N    -0.988801  -0.278866  2.357562
C    -2.022035  -1.305598  2.288994
C    -1.379425  -2.632659  2.830439
O    -0.494805  -2.595763  3.740865
H    -4.346715  2.301283  2.608226
H    -2.733149  -1.043668  3.094954
C    -2.882762  -1.425060  1.013917
C    -3.932350  -0.307911  0.831403
C    -3.411867  1.074997  0.408390
N    -4.497592  1.993265  0.039970
C    -5.015332  2.979878  0.784709
N    -5.815036  3.890822  0.213406
N    -4.737526  3.077364  2.092363
H    -3.480246  -2.345284  1.089381
H    -2.265164  -1.538915  0.113636
H    -4.525714  -0.215357  1.755696
H    -4.638975  -0.649091  0.060341
H    -2.775614  0.986562  -0.482218
H    -2.794227  1.548763  1.182481
H    -4.905670  1.866985  -0.881510
H    -6.398169  4.504784  0.770114
H    -5.863890  3.998033  -0.792928
H    -4.969144  3.914505  2.613552
N    -1.789057  -3.810329  2.380945
C    -1.282520  -5.088457  2.892868
H    -2.495445  -3.837455  1.655223
H    -1.717374  -5.895050  2.297349
H    -1.564122  -5.217266  3.944686
H    -0.190248  -5.120887  2.812442
Cd    0.454628  -0.591012  4.036409
