36
Energy: -175309.17538 eV PBE+vdW (tier 2 basis)
C    0.712332  0.067522  0.768212
C    0.386234  -0.153913  2.212716
O    1.261308  -0.770067  2.913662
H    1.592645  0.721601  0.698557
H    -0.118277  0.518815  0.215298
H    0.994170  -0.891612  0.314949
N    -0.780626  0.316083  2.655634
C    -1.459840  0.086319  3.946287
C    -0.783285  0.887345  5.082544
O    0.148714  0.411482  5.813426
H    -1.450369  0.630082  1.912646
H    -2.434699  0.563315  3.797811
C    -1.734722  -1.404868  4.292312
C    -3.208543  -1.713936  4.639699
C    -4.137875  -2.045111  3.444092
N    -4.291349  -0.976087  2.464115
C    -3.403886  -0.699814  1.447973
N    -2.688332  -1.756291  0.944899
N    -3.111294  0.505425  1.019216
H    -1.131344  -1.709180  5.170154
H    -1.408841  -2.029164  3.449892
H    -3.636529  -0.887356  5.229231
H    -3.242421  -2.591750  5.300413
H    -5.134546  -2.279633  3.841186
H    -3.787133  -2.956545  2.944798
H    -4.885041  -0.197921  2.736539
H    -2.233357  -1.541683  0.061990
H    -3.126715  -2.671991  0.954981
H    -3.737617  1.221496  1.398197
N    -1.199845  2.118866  5.331871
C    -2.259214  2.883608  4.665131
H    -0.706002  2.582855  6.095924
H    -2.206782  3.912551  5.032156
H    -3.252397  2.486294  4.911370
H    -2.109421  2.903653  3.579647
Cd    1.384902  -1.160589  5.006152
