36
Energy: -175308.772271 eV PBE+vdW (tier 2 basis)
C    0.085695  1.948456  -0.820369
C    0.665084  1.627499  0.523216
O    1.949905  1.671295  0.599565
H    -0.904537  2.412117  -0.736250
H    -0.009841  1.019090  -1.400903
H    0.763294  2.612810  -1.364795
N    -0.087461  1.289052  1.554538
C    -1.543207  1.355879  1.728512
C    -1.676880  1.439857  3.282179
O    -0.645388  1.480119  3.971286
H    0.331914  1.216953  2.506259
H    -1.904611  2.319244  1.332509
C    -2.326879  0.225783  1.031343
C    -2.173215  -1.193431  1.602098
C    -3.258628  -1.634216  2.613313
N    -4.590110  -1.774584  2.042219
C    -5.592046  -0.845225  2.097970
N    -6.824951  -1.239808  1.704520
N    -5.294619  0.377862  2.512662
H    -2.027818  0.226558  -0.025536
H    -3.386660  0.521719  1.017228
H    -1.201581  -1.316209  2.105194
H    -2.170316  -1.915451  0.774365
H    -3.319918  -0.941155  3.458527
H    -2.979165  -2.618613  3.012096
H    -4.817436  -2.679184  1.638989
H    -7.583581  -0.571548  1.654839
H    -7.058188  -2.206604  1.508806
H    -6.133187  0.966450  2.542013
N    -2.914176  1.500140  3.794709
C    -3.139821  1.675562  5.223949
H    -3.734905  1.276891  3.204195
H    -2.652592  0.877343  5.801453
H    -4.216909  1.656729  5.409881
H    -2.724966  2.633376  5.563657
Cd    3.345073  1.797715  2.247663
