36
Energy: -175308.580591 eV PBE+vdW (tier 2 basis)
C    -0.188020  0.262138  -0.639015
C    -0.009881  0.213666  0.842770
O    1.095143  0.586637  1.341546
H    0.573876  0.926337  -1.059730
H    -1.187733  0.594693  -0.933719
H    -0.016204  -0.739855  -1.064977
N    -0.997748  -0.209232  1.677546
C    -1.840985  -1.404547  1.511545
C    -0.902422  -2.647370  1.507229
O    0.328431  -2.555461  1.798397
H    -0.793611  0.008977  2.652318
H    -2.406790  -1.470343  2.455183
C    -2.875589  -1.331828  0.370367
C    -3.842034  -0.148808  0.534510
C    -4.843270  0.023417  -0.626932
N    -4.237514  0.539371  -1.849115
C    -3.696934  -0.173806  -2.889732
N    -4.021552  -1.497732  -3.011150
N    -2.810733  0.312451  -3.725090
H    -3.467145  -2.259870  0.384347
H    -2.373483  -1.315996  -0.604883
H    -3.282612  0.790619  0.658295
H    -4.427405  -0.277822  1.458004
H    -5.618792  0.738495  -0.321431
H    -5.363261  -0.919987  -0.836457
H    -4.068728  1.540455  -1.884160
H    -3.660152  -1.923172  -3.861169
H    -4.950990  -1.806415  -2.745358
H    -2.675201  1.325183  -3.638655
N    -1.425588  -3.833091  1.232025
C    -0.670096  -5.089997  1.283662
H    -2.407236  -3.882298  0.979095
H    0.098912  -5.107450  0.502223
H    -1.367047  -5.916684  1.125233
H    -0.189769  -5.201262  2.262248
Cd    1.908181  -1.115252  2.542651
