36
Energy: -175308.83602 eV PBE+vdW (tier 2 basis)
C    -2.723187  1.603705  -0.806884
C    -1.913388  1.332822  0.407170
O    -1.180606  2.258343  0.896025
H    -3.501422  0.842319  -0.966927
H    -2.038881  1.555691  -1.670660
H    -3.140192  2.615720  -0.778955
N    -1.903946  0.108578  0.986016
C    -3.092114  -0.682002  1.309234
C    -3.775310  -0.021653  2.517719
O    -3.164022  0.791525  3.302455
H    -1.121333  -0.038264  1.626805
H    -3.774716  -0.666343  0.439271
C    -2.718791  -2.160788  1.610463
C    -3.107601  -3.179574  0.530367
C    -2.258836  -3.239229  -0.740204
N    -2.256086  -2.077708  -1.650534
C    -3.378711  -1.533349  -2.248147
N    -3.246263  -1.221749  -3.566877
N    -4.426732  -1.256739  -1.503393
H    -3.205991  -2.467074  2.546351
H    -1.638578  -2.213852  1.821172
H    -4.167087  -3.069846  0.269343
H    -3.010542  -4.178552  0.980750
H    -2.579043  -4.131557  -1.305614
H    -1.205218  -3.401308  -0.474119
H    -1.429157  -2.059680  -2.242806
H    -2.598299  -1.719797  -4.167644
H    -3.983187  -0.710031  -4.038087
H    -5.220869  -0.962313  -2.080339
N    -5.033484  -0.323458  2.795912
C    -5.912721  -1.269717  2.104725
H    -5.400137  0.116668  3.640938
H    -6.942394  -0.910961  2.199888
H    -5.843943  -2.267455  2.557747
H    -5.658749  -1.330408  1.041380
Cd    -1.582086  2.283105  3.060445
