36
Energy: -175309.623275 eV PBE+vdW (tier 2 basis)
C    -1.019898  0.181335  3.105094
C    -0.010947  1.210518  2.737923
O    1.218254  0.876826  2.629805
H    -1.073106  -0.595297  2.329661
H    -2.009717  0.605195  3.294443
H    -0.662545  -0.320802  4.016832
N    -0.363254  2.504002  2.533399
C    -1.440170  2.978771  1.646193
C    -1.029776  2.678208  0.184767
O    0.244568  2.825254  -0.186122
H    0.427450  3.151832  2.570729
H    -2.341447  2.389380  1.850319
C    -1.696436  4.474746  1.960249
C    -2.209903  5.412426  0.855976
C    -3.546236  5.118904  0.155290
N    -4.641428  4.710008  1.040518
C    -5.304026  3.544559  0.966288
N    -6.500301  3.433647  1.569236
N    -4.776671  2.489365  0.333817
H    -0.744673  4.914832  2.296679
H    -2.359819  4.511726  2.835490
H    -1.457316  5.504603  0.058388
H    -2.264428  6.409885  1.315883
H    -3.425453  4.340840  -0.602293
H    -3.864624  6.025136  -0.378818
H    -5.045655  5.423268  1.640191
H    -6.955643  2.535092  1.671930
H    -7.036859  4.250931  1.834237
H    -5.376081  1.710448  0.087964
N    -1.977144  2.381655  -0.630546
C    -1.713206  2.021894  -2.014214
H    -3.804059  2.482131  -0.036052
H    -1.758642  2.922517  -2.646645
H    -2.501101  1.343579  -2.362580
H    -0.729611  1.558023  -2.160925
Cd    1.848153  1.833184  0.746387
