36
Energy: -175311.112556 eV PBE+vdW (tier 2 basis)
C    -0.464074  1.583493  -0.637712
C    -0.427175  1.058213  0.756765
O    0.556666  1.464253  1.496679
H    -0.502907  2.680648  -0.614458
H    -1.315135  1.195252  -1.206036
H    0.469376  1.305795  -1.147030
N    -1.356097  0.214565  1.156706
C    -1.498236  -0.522955  2.412171
C    -2.404733  -1.728732  1.983028
O    -3.217268  -1.521290  1.084014
H    -2.119187  -0.062171  0.512480
H    -0.509328  -0.889189  2.743529
C    -2.215869  0.343740  3.484357
C    -2.374164  -0.288965  4.872212
C    -1.141627  -0.279965  5.783753
N    -0.864103  1.044488  6.374168
C    0.341879  1.647466  6.471536
N    0.599800  2.388295  7.559295
N    1.261091  1.527581  5.495616
H    -3.207007  0.589665  3.076868
H    -1.715470  1.331254  3.573839
H    -2.711673  -1.330045  4.770127
H    -3.197524  0.220902  5.393223
H    -0.229386  -0.621032  5.274481
H    -1.301339  -0.985512  6.612575
H    -1.557456  1.360082  7.048881
H    1.349347  3.071861  7.568412
H    0.078836  2.269366  8.422207
H    2.201436  1.801950  5.774673
N    -2.253693  -2.883971  2.650860
C    -3.052084  -4.076829  2.353141
H    -1.465678  -2.988222  3.280747
H    -3.982148  -3.762887  1.871632
H    -3.280008  -4.604079  3.285251
H    -2.509552  -4.749833  1.676951
Cd    0.852210  1.431280  3.494752
