36
Energy: -175310.538795 eV PBE+vdW (tier 2 basis)
C    -0.451784  -1.018181  0.639758
C    -0.026316  -0.233484  1.844177
O    0.874930  0.613312  1.813398
H    -0.893314  -0.320934  -0.085981
H    -1.179826  -1.807183  0.858837
H    0.433863  -1.455106  0.163573
N    -0.691041  -0.486430  3.026276
C    -0.539901  0.389833  4.183360
C    0.769939  0.083939  4.970447
O    0.880337  -0.272704  6.217066
H    -1.381704  -1.227378  3.044667
H    -0.341138  1.392159  3.766040
C    -1.846880  0.514232  4.988654
C    -2.592292  -0.771880  5.399310
C    -3.791365  -0.488167  6.349935
N    -3.945557  -1.501640  7.404123
C    -3.064979  -1.664327  8.405671
N    -2.966918  -2.832454  9.043504
N    -2.223033  -0.655876  8.811702
H    -2.527780  1.133406  4.386877
H    -1.642737  1.141846  5.877684
H    -1.914085  -1.507658  5.871144
H    -2.970193  -1.297876  4.511722
H    -4.733859  -0.467327  5.793004
H    -3.700544  0.505729  6.809047
H    -4.681561  -2.194179  7.284289
H    -3.475970  -3.662563  8.754644
H    -2.511433  -2.850749  9.951425
H    -2.702390  0.247620  8.749267
N    1.865732  0.240069  4.274869
C    3.222843  0.024670  4.774232
H    1.702531  0.517235  3.270389
H    3.409537  0.646810  5.657550
H    3.922325  0.299690  3.981192
H    3.373017  -1.028614  5.042032
Cd    -0.503881  -0.449720  7.684549
