36
Energy: -175308.673543 eV PBE+vdW (tier 2 basis)
C    0.117194  0.893910  0.218362
C    -0.073567  0.289277  1.569389
O    0.782559  0.491421  2.477109
H    -0.160070  1.959163  0.247977
H    -0.456928  0.391614  -0.566190
H    1.186897  0.862888  -0.024640
N    -1.157486  -0.495183  1.831172
C    -2.527663  -0.129473  1.470591
C    -2.980457  0.979827  2.467730
O    -2.327690  1.231095  3.522914
H    -1.098613  -0.946911  2.745567
H    -2.512511  0.304334  0.460015
C    -3.476297  -1.345549  1.490034
C    -3.269059  -2.380713  0.367619
C    -2.171748  -3.435921  0.629189
N    -2.099009  -4.446411  -0.416240
C    -2.944209  -5.509186  -0.605811
N    -3.867295  -5.805069  0.344295
N    -2.954365  -6.264007  -1.686309
H    -4.503731  -0.965101  1.410684
H    -3.425590  -1.824669  2.482348
H    -3.058346  -1.872197  -0.585428
H    -4.222715  -2.906583  0.220461
H    -2.336960  -3.925756  1.602779
H    -1.179898  -2.971062  0.689339
H    -1.427157  -4.301236  -1.161967
H    -4.416928  -6.642144  0.174616
H    -3.813129  -5.463624  1.294900
H    -2.216342  -6.020744  -2.356495
N    -4.089265  1.650354  2.185140
C    -4.646253  2.706062  3.038508
H    -4.601524  1.409025  1.341362
H    -4.979780  2.288354  3.996002
H    -5.497905  3.154126  2.520641
H    -3.890234  3.476355  3.227865
Cd    -0.201401  1.246054  4.367717
