36
Energy: -175310.822048 eV PBE+vdW (tier 2 basis)
C    0.231543  1.627695  0.912725
C    0.078117  0.364133  1.690749
O    1.154667  -0.292792  2.012288
H    -0.724375  2.120120  0.708746
H    0.714926  1.381327  -0.044634
H    0.905136  2.318724  1.435524
N    -1.130080  -0.075433  1.967447
C    -1.580537  -1.362763  2.501884
C    -3.125973  -1.284382  2.269258
O    -3.611339  -0.168866  2.049804
H    -1.979408  0.479012  1.716684
H    -1.133625  -2.167505  1.900430
C    -1.244314  -1.605558  3.988850
C    -1.634846  -0.491128  4.969272
C    -0.800551  -0.516866  6.255147
N    0.577186  0.019553  5.981189
C    1.699827  -0.579448  6.647490
N    1.692535  -0.732485  7.967719
N    2.653067  -0.945509  5.820232
H    -0.159721  -1.827499  4.061037
H    -1.712156  -2.551420  4.294856
H    -2.694676  -0.587014  5.241396
H    -1.539634  0.501532  4.503151
H    -0.692321  -1.544551  6.628402
H    -1.288980  0.074362  7.041616
H    0.593889  1.035166  6.120827
H    2.451641  -1.193766  8.462954
H    0.944028  -0.351066  8.537343
H    3.525356  -1.326581  6.191146
N    -3.855528  -2.408549  2.339949
C    -3.420259  -3.794041  2.483954
H    -4.852614  -2.247445  2.205723
H    -2.388371  -3.923236  2.140062
H    -4.053836  -4.430710  1.857026
H    -3.504659  -4.142961  3.522808
Cd    1.872427  -0.590126  3.892075
