36
Energy: -175309.335335 eV PBE+vdW (tier 2 basis)
C    0.387453  0.551484  0.313960
C    -0.318721  0.560134  1.631560
O    -0.248044  1.610617  2.342660
H    -0.021554  1.364250  -0.303315
H    0.283520  -0.394892  -0.227304
H    1.450629  0.775623  0.469501
N    -1.013013  -0.535914  1.986476
C    -1.990601  -0.664198  3.082220
C    -1.280704  -1.126766  4.374127
O    -0.625184  -0.290073  5.089131
H    -0.970985  -1.315866  1.334431
H    -2.374813  0.347924  3.292278
C    -3.163638  -1.541844  2.622433
C    -4.372278  -1.513245  3.580089
C    -5.281445  -2.774067  3.506686
N    -5.120350  -3.692930  4.629890
C    -4.029541  -4.472755  4.917882
N    -3.117232  -4.690557  3.869324
N    -3.715031  -4.955800  6.076827
H    -2.805638  -2.570950  2.470260
H    -3.476425  -1.182509  1.631759
H    -4.980452  -0.627496  3.353188
H    -4.048075  -1.398152  4.624471
H    -5.133752  -3.306996  2.555187
H    -6.333796  -2.470564  3.514607
H    -5.778212  -3.584395  5.396022
H    -2.512284  -5.474483  4.119539
H    -3.551093  -4.863108  2.962196
H    -4.405981  -4.773927  6.810748
N    -1.339660  -2.390742  4.737099
C    -0.695128  -2.934285  5.937209
H    -1.899018  -3.060581  4.183055
H    0.342667  -3.216807  5.717243
H    -1.258437  -3.818263  6.253399
H    -0.698091  -2.184712  6.734018
Cd    -0.249499  1.759011  4.504130
