36
Energy: -175311.196528 eV PBE+vdW (tier 2 basis)
C    0.200345  1.035005  2.413988
C    -0.393973  0.172607  3.481011
O    0.171225  0.105875  4.606837
H    0.366340  2.042306  2.816402
H    -0.415895  1.098798  1.510964
H    1.188275  0.633584  2.147764
N    -1.527203  -0.506599  3.182608
C    -2.242682  -1.379313  4.112842
C    -1.508334  -2.732779  4.279230
O    -0.742098  -2.879515  5.284542
H    -1.904506  -0.390720  2.245979
H    -2.128105  -0.918399  5.103285
C    -3.766234  -1.397288  3.891443
C    -4.478939  -0.225473  4.597924
C    -4.493660  -0.303117  6.154546
N    -3.782903  0.794916  6.824486
C    -2.525758  0.769971  7.314595
N    -1.859163  1.936014  7.439629
N    -1.885461  -0.361910  7.663145
H    -4.167296  -2.349125  4.269762
H    -4.005426  -1.378069  2.818851
H    -5.515041  -0.199464  4.237827
H    -4.031607  0.729890  4.284613
H    -4.078265  -1.256167  6.505754
H    -5.527019  -0.282823  6.519379
H    -4.270250  1.687285  6.851597
H    -1.133731  2.003250  8.145640
H    -2.243337  2.808257  7.093950
H    -2.527074  -1.119916  7.896069
N    -1.634290  -3.727425  3.412461
C    -2.441653  -3.808073  2.193854
H    -1.086722  -4.554436  3.654700
H    -3.471834  -4.114196  2.414730
H    -1.989159  -4.558883  1.539157
H    -2.443852  -2.855464  1.655229
Cd    -0.287190  -1.048856  6.430489
