36
Energy: -175309.699948 eV PBE+vdW (tier 2 basis)
C    -2.060567  -0.924257  0.141769
C    -1.454948  -0.729016  1.512024
O    -0.238348  -0.189392  1.397779
H    -3.066512  -1.348171  0.203647
H    -1.414180  -1.576961  -0.459563
H    -2.109805  0.040987  -0.377766
N    -2.132071  -1.118699  2.550648
C    -1.659565  -1.106015  3.951350
C    -1.661251  0.309980  4.566073
O    -0.626276  1.073726  4.615740
H    -3.345391  -2.708366  2.094368
H    -2.451658  -1.625868  4.506748
C    -0.345593  -1.907839  4.192451
C    -0.413113  -3.071235  5.205583
C    -1.582658  -4.074796  5.062241
N    -2.064435  -4.176242  3.676019
C    -3.356867  -4.318850  3.323990
N    -4.158262  -5.117161  4.040060
N    -3.801726  -3.617963  2.275927
H    0.463974  -1.247753  4.555153
H    0.000850  -2.284272  3.219821
H    -0.450297  -2.681146  6.231744
H    0.539011  -3.612626  5.128157
H    -2.437180  -3.767825  5.681773
H    -1.249978  -5.053185  5.435506
H    -1.470655  -3.800739  2.944470
H    -3.771116  -5.869465  4.599470
H    -5.161263  -5.121334  3.892485
H    -4.667981  -3.855022  1.805102
N    -2.779616  0.779662  5.093381
C    -4.085545  0.122942  5.187922
H    -2.704706  1.723537  5.475301
H    -4.327716  -0.385297  4.248942
H    -4.837207  0.898288  5.363342
H    -4.115594  -0.581096  6.030070
Cd    0.660096  0.814949  2.947444
