36
Energy: -175311.68589 eV PBE+vdW (tier 2 basis)
C    0.385574  -0.757769  0.646882
C    -0.029518  0.470711  1.397443
O    0.685573  1.502693  1.344030
H    -0.271749  -1.618364  0.808334
H    1.409687  -1.024395  0.937716
H    0.411095  -0.521685  -0.425760
N    -1.171237  0.396762  2.115671
C    -1.835867  1.428884  2.934684
C    -2.309260  2.606201  2.044111
O    -1.544490  3.552311  1.673207
H    -1.653083  -0.496038  2.076282
H    -2.736686  0.921268  3.299442
C    -1.066318  1.958381  4.181527
C    0.139555  1.165760  4.702888
C    1.022876  2.009406  5.651332
N    1.495089  3.249255  5.019165
C    2.540656  3.390432  4.152775
N    3.712385  2.816169  4.459806
N    2.341978  4.104043  3.038996
H    -1.807237  2.078610  4.984607
H    -0.746687  2.992134  3.964211
H    0.769450  0.816011  3.873310
H    -0.188706  0.267931  5.244430
H    1.878947  1.408858  5.979949
H    0.475809  2.296528  6.558242
H    0.855975  4.037311  5.020678
H    4.461743  2.757300  3.779319
H    3.944601  2.598601  5.423547
H    3.184221  4.440851  2.572531
N    -3.577961  2.613082  1.668165
C    -4.171974  3.647183  0.813525
H    -4.181182  1.863163  1.993299
H    -5.234517  3.423751  0.691054
H    -3.683268  3.654598  -0.167854
H    -4.056175  4.633040  1.278634
Cd    0.571279  3.616531  2.007613
