36
Energy: -175309.097163 eV PBE+vdW (tier 2 basis)
C    -1.027808  -0.911520  -0.318310
C    -0.470493  -0.466401  0.982573
O    0.783636  -0.555223  1.197453
H    -0.374655  -0.617554  -1.146940
H    -2.065378  -0.563051  -0.463455
H    -1.051176  -2.014185  -0.296866
N    -1.284101  -0.011324  1.968042
C    -2.305684  1.026273  1.810382
C    -1.588711  2.386916  1.776389
O    -0.403967  2.551458  2.244654
H    -0.861947  -0.032328  2.898759
H    -2.836184  0.862045  0.853365
C    -3.318380  0.933369  2.971251
C    -4.263637  -0.270198  2.846122
C    -5.429426  -0.049120  1.840809
N    -5.514523  -1.016748  0.758226
C    -5.047460  -0.799551  -0.505357
N    -5.495350  -1.641783  -1.471598
N    -4.178195  0.181629  -0.699499
H    -3.901695  1.862703  3.027428
H    -2.759815  0.883664  3.919985
H    -4.679502  -0.480152  3.839457
H    -3.699191  -1.168914  2.559850
H    -5.366073  0.945465  1.384203
H    -6.384662  -0.089287  2.379122
H    -6.081182  -1.843389  0.917426
H    -6.320552  -2.217233  -1.347177
H    -5.136913  -1.567998  -2.414746
H    -4.017837  0.319281  -1.701848
N    -2.215516  3.444420  1.286177
C    -3.571509  3.530113  0.738293
H    -1.685834  4.315381  1.347109
H    -3.869922  2.575052  0.290816
H    -3.574547  4.299480  -0.040656
H    -4.289008  3.820985  1.516990
Cd    1.397228  1.302405  2.218908
