36
Energy: -175309.101058 eV PBE+vdW (tier 2 basis)
C    -1.865702  1.503394  0.823153
C    -1.286244  1.085718  2.131597
O    -0.076719  1.419680  2.369568
H    -1.886759  2.601658  0.779659
H    -2.885976  1.104366  0.672251
H    -1.208026  1.165808  0.011263
N    -2.059233  0.389729  2.978375
C    -1.673838  0.018496  4.331462
C    -0.601089  -1.102760  4.374093
O    0.549525  -0.801334  4.854151
H    -3.063164  0.242913  2.722197
H    -1.115441  0.872389  4.756119
C    -2.857619  -0.137653  5.327278
C    -4.144574  -0.930449  5.016277
C    -5.213988  -0.213255  4.180612
N    -4.859016  -0.152027  2.758393
C    -5.462196  0.726406  1.831180
N    -6.378968  1.608213  2.304031
N    -5.005480  0.623626  0.617788
H    -3.151838  0.888956  5.594001
H    -2.411710  -0.551819  6.243659
H    -4.607247  -1.134688  5.992357
H    -3.940843  -1.922109  4.594046
H    -5.328466  0.816607  4.549071
H    -6.178785  -0.726726  4.328655
H    -4.755551  -1.063804  2.312222
H    -6.912416  1.431026  3.148213
H    -6.781372  2.282674  1.662242
H    -5.482912  1.238636  -0.047567
N    -0.778644  -2.345236  3.954940
C    -1.927912  -2.998694  3.335603
H    0.048559  -2.931175  4.087004
H    -1.552331  -3.690512  2.573350
H    -2.568209  -2.262681  2.845609
H    -2.499289  -3.573666  4.074905
Cd    1.289457  1.075192  4.027832
