36
Energy: -175310.261577 eV PBE+vdW (tier 2 basis)
C    1.424920  -2.713405  3.213181
C    0.566866  -1.520893  2.885385
O    1.126976  -0.742711  1.985014
H    1.420093  -3.418688  2.370018
H    1.068599  -3.212069  4.120493
H    2.464804  -2.399054  3.358753
N    -0.595736  -1.393064  3.488016
C    -1.483326  -0.309623  3.125592
C    -0.989550  1.074884  3.623660
O    -0.692223  2.002846  2.790575
H    -1.342089  -3.067885  3.884552
H    -1.519870  -0.177219  2.009115
C    -2.970125  -0.599880  3.462306
C    -3.428900  -0.757403  4.920840
C    -2.996428  -2.016852  5.686706
N    -3.597339  -3.250155  5.170760
C    -2.956538  -4.232077  4.516256
N    -3.556092  -5.426895  4.383378
N    -1.744844  -4.022877  3.997507
H    -3.233950  -1.505122  2.893885
H    -3.562716  0.209645  3.011503
H    -4.529166  -0.728295  4.908268
H    -3.153633  0.120076  5.525625
H    -3.310466  -1.919178  6.735167
H    -1.907896  -2.146467  5.693141
H    -4.571385  -3.417434  5.403412
H    -3.197464  -6.127602  3.746623
H    -4.347792  -5.690586  4.957392
H    -1.202879  -4.811375  3.666200
N    -0.860277  1.288172  4.919974
C    -0.391647  2.536815  5.525729
H    -1.107933  0.523743  5.541375
H    -1.243869  3.171244  5.801371
H    0.234260  3.075265  4.809131
H    0.185944  2.296257  6.423710
Cd    0.261433  0.973757  1.144600
