36
Energy: -175309.813114 eV PBE+vdW (tier 2 basis)
C    1.261935  -0.220793  1.581944
C    0.397550  0.246344  2.730564
O    1.054778  0.078483  3.887789
H    0.788527  -0.014130  0.618389
H    1.466388  -1.295024  1.682473
H    2.231670  0.290421  1.620504
N    -0.796182  0.681933  2.474347
C    -1.781334  1.119674  3.477453
C    -1.448241  2.527464  4.020903
O    -0.813362  2.738216  5.122424
H    -1.504092  -0.551666  0.652565
H    -2.705695  1.288804  2.906143
C    -2.146846  0.089721  4.595398
C    -3.563522  -0.513978  4.486008
C    -3.710478  -1.716465  3.546032
N    -3.316211  -1.379906  2.174360
C    -2.583843  -2.124816  1.332740
N    -2.576940  -3.459978  1.428120
N    -1.852220  -1.482951  0.412068
H    -2.089887  0.583281  5.580792
H    -1.408011  -0.723962  4.595322
H    -4.285723  0.270924  4.208141
H    -3.883432  -0.859430  5.478720
H    -4.751632  -2.070676  3.571448
H    -3.068595  -2.541899  3.884557
H    -3.536384  -0.448326  1.839530
H    -1.898567  -4.015381  0.919402
H    -3.346585  -3.956692  1.862802
H    -1.493250  -1.953853  -0.410327
N    -1.840682  3.591422  3.341479
C    -2.591374  3.641743  2.083936
H    -1.576899  4.483646  3.761835
H    -2.194734  2.910305  1.372211
H    -2.462389  4.641010  1.657833
H    -3.663552  3.477769  2.254633
Cd    0.630876  1.241012  5.525770
