36
Energy: -175311.22625 eV PBE+vdW (tier 2 basis)
C    -1.113502  -2.072261  -0.601343
C    -0.792123  -1.448777  0.718772
O    0.361318  -0.972222  0.907538
H    -0.461768  -2.944959  -0.747053
H    -0.872043  -1.360603  -1.401482
H    -2.159255  -2.383651  -0.693960
N    -1.769360  -1.422702  1.655537
C    -1.648913  -0.821798  2.985623
C    -0.881767  -1.770292  3.935384
O    0.381095  -1.673531  4.006277
H    -2.652419  -1.863898  1.411513
H    -0.971747  0.029806  2.862665
C    -2.973591  -0.214226  3.489867
C    -3.271226  1.164495  2.858998
C    -2.638217  2.390652  3.563225
N    -1.198191  2.281981  3.854398
C    -0.188245  2.255658  2.963283
N    -0.446866  2.495695  1.661542
N    1.079481  1.898630  3.289043
H    -2.925151  -0.123957  4.585481
H    -3.809542  -0.899700  3.280815
H    -4.355384  1.340941  2.876439
H    -3.000790  1.140485  1.792196
H    -3.123536  2.555121  4.532679
H    -2.833804  3.300907  2.976846
H    -0.945130  2.047981  4.808565
H    0.348277  2.726152  1.073855
H    -1.342343  2.867726  1.366749
H    1.261810  1.991838  4.290856
N    -1.553752  -2.677401  4.628368
C    -0.950221  -3.672495  5.520324
H    -2.567314  -2.684644  4.546885
H    -1.302581  -4.671433  5.239218
H    -1.240114  -3.467139  6.557963
H    0.136644  -3.623454  5.426033
Cd    1.347553  -0.158366  2.688237
