36
Energy: -175308.974454 eV PBE+vdW (tier 2 basis)
C    0.060181  0.620823  -0.296330
C    0.000344  0.203647  1.133660
O    1.062581  -0.154668  1.729688
H    0.477512  1.636750  -0.371419
H    -0.912582  0.582341  -0.795561
H    0.768194  -0.039286  -0.814472
N    -1.177403  0.188817  1.808109
C    -2.158829  1.274424  1.797731
C    -1.579058  2.418702  2.664102
O    -0.647146  2.203025  3.505299
H    -1.124906  -0.293292  2.707131
H    -2.272593  1.627000  0.762650
C    -3.513433  0.774801  2.341088
C    -4.159047  -0.272661  1.426678
C    -5.385343  -0.976844  2.037009
N    -6.580567  -0.152028  2.155043
C    -7.013717  0.392891  3.336599
N    -8.299212  0.833157  3.379099
N    -6.139753  0.470430  4.319029
H    -4.186160  1.630713  2.479888
H    -3.360964  0.364198  3.352035
H    -3.430988  -1.065509  1.195969
H    -4.434044  0.183694  0.462683
H    -5.144882  -1.359933  3.035597
H    -5.643954  -1.834364  1.400648
H    -7.214689  -0.137315  1.362304
H    -8.644410  1.286323  4.215830
H    -8.997391  0.543377  2.703183
H    -6.563610  0.855087  5.169331
N    -2.071928  3.646785  2.559567
C    -3.165841  4.138090  1.722428
H    -1.645654  4.321341  3.196348
H    -4.104872  4.176216  2.289812
H    -3.300640  3.506365  0.839687
H    -2.917262  5.149953  1.385370
Cd    1.196794  0.921744  3.684524
