36
Energy: -175311.300645 eV PBE+vdW (tier 2 basis)
C    -1.751530  -2.259304  2.088180
C    -1.355980  -1.135463  2.995138
O    -0.305545  -1.020637  3.581486
H    -1.526760  -1.972192  1.048480
H    -2.821174  -2.499629  2.143073
H    -1.152994  -3.144462  2.323755
N    -2.364634  -0.095966  3.180520
C    -1.829385  1.220693  3.604427
C    -1.211126  1.037352  4.999925
O    -1.867268  0.406693  5.900720
H    -2.978898  -0.020087  2.367800
H    -1.052161  1.548430  2.897754
C    -2.949351  2.291110  3.702169
C    -3.991010  2.357872  2.569527
C    -5.237313  1.458796  2.691823
N    -6.053909  1.721402  3.888446
C    -6.533393  0.778654  4.742915
N    -7.742797  0.988493  5.288226
N    -5.816567  -0.312416  5.048349
H    -2.438592  3.260465  3.775895
H    -3.482631  2.197053  4.668271
H    -3.526496  2.162383  1.589848
H    -4.337408  3.399224  2.503220
H    -5.007247  0.385920  2.694941
H    -5.865925  1.624383  1.804253
H    -6.575562  2.594236  3.873863
H    -8.046085  0.476414  6.109225
H    -8.417749  1.617994  4.866989
H    -6.357462  -1.037705  5.515268
N    -0.070902  1.629912  5.279782
C    0.606445  1.569272  6.577676
H    0.440460  2.044839  4.504391
H    -0.133977  1.435961  7.370175
H    1.152229  2.504699  6.733255
H    1.311703  0.728047  6.591184
Cd    -3.736903  -0.306906  5.222439
