36
Energy: -175310.305237 eV PBE+vdW (tier 2 basis)
C    -0.528772  2.126236  -0.424684
C    0.037092  1.719880  0.899102
O    1.063425  2.348198  1.325384
H    -0.801666  3.189555  -0.373241
H    -1.409928  1.544791  -0.715318
H    0.246407  2.034026  -1.196122
N    -0.572361  0.737123  1.575115
C    -0.362845  0.305996  2.977249
C    0.685334  -0.821652  3.073421
O    1.979438  -0.499094  3.201876
H    -1.337591  0.275354  1.088746
H    0.008193  1.186893  3.526548
C    -1.728835  -0.100822  3.549169
C    -1.715593  -0.380990  5.056294
C    -3.097612  -0.854271  5.532482
N    -3.159213  -1.164177  6.964436
C    -3.028784  -2.377659  7.518138
N    -3.368177  -2.561688  8.802115
N    -2.565375  -3.413299  6.805262
H    -2.055046  -1.005457  3.011712
H    -2.446891  0.703328  3.326124
H    -1.432466  0.524978  5.613962
H    -0.959370  -1.146397  5.283299
H    -3.426116  -1.742616  4.973985
H    -3.855844  -0.082048  5.344346
H    -3.331396  -0.391476  7.599719
H    -3.093668  -3.396826  9.305659
H    -3.941977  -1.891389  9.299697
H    -2.118154  -3.282078  5.907560
N    0.290078  -2.034611  3.067622
C    1.203420  -3.161798  3.046775
H    -2.670701  -4.364092  7.138365
H    0.639319  -4.067421  2.797809
H    1.667150  -3.307062  4.034823
H    2.014437  -3.030640  2.316552
Cd    2.567715  1.366624  2.512758
