36
Energy: -175308.706912 eV PBE+vdW (tier 2 basis)
C    0.148682  0.569363  3.711730
C    0.010558  -0.743609  3.020035
O    1.074138  -1.373467  2.705921
H    1.107967  0.571704  4.242384
H    0.197695  1.375568  2.962937
H    -0.666317  0.776129  4.408976
N    -1.187239  -1.321627  2.741740
C    -2.367862  -0.713742  2.105568
C    -2.008965  -0.493486  0.613792
O    -0.790870  -0.428987  0.238216
H    -1.072029  -2.303967  2.487931
H    -3.148417  -1.488620  2.152031
C    -2.955561  0.532703  2.788865
C    -3.486790  0.206727  4.190307
C    -4.450118  1.252433  4.756814
N    -5.644038  1.556662  3.957557
C    -6.551056  0.643455  3.463343
N    -7.847047  1.050467  3.429936
N    -6.110034  -0.511188  3.006145
H    -3.792558  0.871149  2.165531
H    -2.236280  1.362025  2.798574
H    -2.666191  0.118963  4.917482
H    -3.988131  -0.768313  4.166801
H    -3.936504  2.214512  4.890319
H    -4.758397  0.919231  5.763074
H    -6.016540  2.487154  4.125580
H    -8.533239  0.527446  2.900062
H    -8.186517  1.848009  3.955289
H    -6.896429  -1.129145  2.779095
N    -2.967349  -0.357312  -0.291980
C    -4.421489  -0.359851  -0.131822
H    -2.617176  -0.212189  -1.240546
H    -4.852881  -1.045761  -0.870467
H    -4.818194  0.647450  -0.315008
H    -4.717593  -0.679050  0.872754
Cd    1.083925  -1.619575  0.509930
