36
Energy: -175310.800445 eV PBE+vdW (tier 2 basis)
C    1.373851  -0.069873  3.075689
C    1.062568  -0.803304  1.801632
O    2.014161  -0.978995  0.961230
H    1.745411  0.930237  2.815911
H    2.184971  -0.583627  3.605873
H    0.500680  0.030273  3.728364
N    -0.153278  -1.241237  1.463403
C    -1.193093  -1.798881  2.275854
C    -1.153008  -3.350994  2.037054
O    -0.686154  -3.867481  0.984439
H    -6.474392  3.106769  3.758963
H    -1.017793  -1.628248  3.353863
C    -2.555604  -1.182043  1.857809
C    -3.778775  -1.553391  2.703665
C    -5.091715  -0.938197  2.190143
N    -5.182270  0.525303  2.293040
C    -5.868538  1.215663  3.217027
N    -6.282322  0.632592  4.349224
N    -6.137725  2.512739  3.010112
H    -2.735349  -1.447380  0.803503
H    -2.393009  -0.094177  1.880753
H    -3.617784  -1.263338  3.755292
H    -3.936778  -2.642441  2.696537
H    -5.951666  -1.369947  2.718941
H    -5.235663  -1.190296  1.130132
H    -4.777063  1.070273  1.539246
H    -6.973339  1.076200  4.942986
H    -5.947275  -0.278260  4.632517
H    -6.086632  2.924153  2.085815
N    -1.646279  -4.128958  2.996154
C    -1.672916  -5.593239  2.919903
H    -1.955196  -3.687251  3.856013
H    -2.273182  -5.920980  2.063618
H    -2.112051  -5.980545  3.842839
H    -0.655674  -5.987170  2.808402
Cd    0.685866  -2.437831  -0.172675
