36
Energy: -175310.63411 eV PBE+vdW (tier 2 basis)
C    -0.791120  2.121299  0.997875
C    -0.830482  0.868009  1.796112
O    -0.052576  0.690418  2.775198
H    -1.121891  2.966555  1.619666
H    -1.381206  2.069174  0.078513
H    0.259175  2.328736  0.745694
N    -1.727174  -0.124660  1.483618
C    -3.169717  0.079381  1.301165
C    -3.661008  1.066371  2.381752
O    -3.147860  1.052891  3.546908
H    -1.477046  -1.031528  1.875246
H    -3.375770  0.452937  0.289755
C    -3.929600  -1.251916  1.560328
C    -3.339467  -2.548892  0.946069
C    -3.140115  -3.712389  1.948990
N    -1.779459  -3.854418  2.499717
C    -1.191391  -3.112940  3.460258
N    0.156162  -3.150569  3.563960
N    -1.867950  -2.298592  4.286598
H    -4.955742  -1.105734  1.200381
H    -4.021293  -1.373278  2.649102
H    -2.392249  -2.363367  0.418710
H    -4.025552  -2.904322  0.167399
H    -3.337824  -4.663338  1.442457
H    -3.875771  -3.659891  2.765121
H    -1.231684  -4.621434  2.119623
H    0.575936  -2.976849  4.471121
H    0.720830  -3.669821  2.900364
H    -2.856821  -2.533504  4.359678
N    -4.652881  1.901738  2.110887
C    -5.374706  2.073428  0.844120
H    -4.953502  2.472533  2.901419
H    -4.684683  2.292301  0.020593
H    -6.048141  2.927328  0.955907
H    -5.978594  1.190127  0.603012
Cd    -1.464493  -0.206388  4.279930
