36
Energy: -175309.959543 eV PBE+vdW (tier 2 basis)
C    1.297014  0.203813  2.144412
C    0.036676  0.959072  2.450949
O    -0.062280  1.471398  3.673346
H    1.412502  -0.643431  2.836158
H    1.312553  -0.182039  1.120973
H    2.164863  0.856057  2.310481
N    -0.856965  1.127049  1.517918
C    -2.115898  1.816933  1.720547
C    -2.888842  1.556436  3.015422
O    -2.835865  0.426039  3.629965
H    1.204996  1.052888  -1.320317
H    -1.903272  2.900597  1.704313
C    -3.056715  1.521552  0.510250
C    -3.202190  0.019390  0.175291
C    -2.500755  -0.407557  -1.117545
N    -1.077185  -0.064903  -1.067610
C    -0.220425  -0.218768  -2.074655
N    -0.562147  -0.901163  -3.176938
N    1.015923  0.310587  -1.980997
H    -2.655348  2.075065  -0.350155
H    -4.043243  1.959028  0.706864
H    -4.262533  -0.235634  0.058321
H    -2.834326  -0.598983  1.007634
H    -2.967158  0.093383  -1.981727
H    -2.631997  -1.494154  -1.245295
H    -0.759901  0.380642  -0.178614
H    -1.407689  -1.455701  -3.212112
H    0.040841  -0.929635  -3.989870
H    1.717583  0.135222  -2.689327
N    -3.708922  2.495041  3.477728
C    -3.968903  3.834922  2.947649
H    -4.266898  2.203753  4.280692
H    -3.029536  4.337697  2.687573
H    -4.467996  4.418356  3.726408
H    -4.619730  3.799854  2.064874
Cd    -1.161957  0.277034  4.993817
