36
Energy: -175310.212303 eV PBE+vdW (tier 2 basis)
C    0.476762  -0.626634  0.431045
C    0.272120  -0.313420  1.879419
O    1.286384  0.094629  2.536275
H    -0.427275  -1.004828  -0.057849
H    1.285903  -1.360863  0.329343
H    0.806666  0.287303  -0.082267
N    -0.954258  -0.462994  2.398911
C    -1.396210  -0.023378  3.737139
C    -0.964534  -1.009785  4.847856
O    -0.044525  -0.566151  5.708994
H    -1.664725  -0.794995  1.754166
H    -0.851166  0.916071  3.928492
C    -2.883602  0.411294  3.744165
C    -3.997417  -0.627701  3.917358
C    -4.136093  -1.655112  2.785813
N    -5.172002  -2.652988  3.047294
C    -4.976245  -3.767646  3.771407
N    -5.966328  -4.666695  3.878945
N    -3.798411  -3.984065  4.362829
H    -3.047424  1.008562  2.832611
H    -2.981161  1.123113  4.575429
H    -4.942261  -0.070731  3.999314
H    -3.866126  -1.148227  4.874674
H    -3.196569  -2.203074  2.618606
H    -4.399879  -1.162827  1.839298
H    -6.122332  -2.436182  2.766372
H    -5.907776  -5.440866  4.528752
H    -6.796513  -4.614943  3.301400
H    -3.607383  -4.885122  4.783019
N    -1.496110  -2.180095  4.939937
C    -0.966058  -3.105199  5.938237
H    -3.070540  -3.252813  4.446259
H    -1.531748  -3.011091  6.877988
H    0.091475  -2.932256  6.173778
H    -1.092045  -4.132867  5.573912
Cd    1.523807  0.318468  4.662927
