36
Energy: -175309.130326 eV PBE+vdW (tier 2 basis)
C    -0.534962  0.420233  -0.055847
C    -0.439257  -0.134995  1.330985
O    0.368830  -1.108980  1.505583
H    0.448205  0.810786  -0.352047
H    -1.281659  1.216232  -0.143581
H    -0.775254  -0.394742  -0.751468
N    -1.200070  0.419732  2.278616
C    -1.452241  -0.008919  3.673198
C    -0.265019  0.320378  4.598357
O    0.716525  -0.488416  4.787163
H    -1.870956  1.127125  1.949042
H    -2.257239  0.664862  3.990470
C    -1.999979  -1.456815  3.819324
C    -3.329307  -1.517778  4.602170
C    -4.614902  -1.354137  3.751905
N    -4.558101  -0.349077  2.693749
C    -4.350330  0.985644  2.901847
N    -3.996894  1.723360  1.763294
N    -4.275214  1.591897  4.050619
H    -1.274616  -2.092721  4.360848
H    -2.128760  -1.897522  2.821155
H    -3.298334  -0.779023  5.416064
H    -3.415001  -2.492390  5.100918
H    -5.462615  -1.163433  4.429188
H    -4.836123  -2.302319  3.247633
H    -4.771614  -0.667010  1.754499
H    -4.172674  2.718295  1.900874
H    -4.389189  1.402469  0.879600
H    -4.641393  1.020091  4.815957
N    -0.242753  1.459808  5.265821
C    -1.192173  2.577072  5.310550
H    0.596256  1.574581  5.840205
H    -0.748268  3.445653  4.807106
H    -1.372588  2.834496  6.360510
H    -2.150891  2.331379  4.839155
Cd    1.120363  -1.970872  3.306108
