36
Energy: -175310.579704 eV PBE+vdW (tier 2 basis)
C    -0.707414  0.022493  -0.226191
C    -1.525461  -0.101611  1.008459
O    -1.317703  -1.048892  1.826006
H    0.293081  0.402579  0.034521
H    -1.162935  0.665719  -0.984637
H    -0.547777  -0.984312  -0.635514
N    -2.506621  0.805265  1.296078
C    -2.332492  2.257472  1.225598
C    -1.028235  2.604649  1.982593
O    -0.652039  1.886761  2.963013
H    -3.203048  0.457087  1.964365
H    -2.285080  2.571662  0.175015
C    -3.480942  3.008427  1.966333
C    -4.909073  2.427702  1.839364
C    -5.661098  2.313706  3.192913
N    -4.842573  1.764906  4.293065
C    -4.223029  0.573942  4.285773
N    -4.616158  -0.355472  3.358776
N    -3.171336  0.256980  5.061548
H    -3.460471  4.048388  1.618154
H    -3.198564  3.045715  3.028416
H    -4.891052  1.452078  1.334978
H    -5.523372  3.061907  1.187476
H    -6.583088  1.726348  3.070974
H    -5.984093  3.302475  3.537811
H    -4.502555  2.435103  4.975332
H    -4.405398  -1.319678  3.609116
H    -5.537143  -0.247802  2.941330
H    -2.996079  0.943509  5.797614
N    -0.321953  3.675437  1.646309
C    -0.582356  4.667169  0.599934
H    0.484888  3.848244  2.247822
H    -1.139666  4.227113  -0.232194
H    0.377902  5.024748  0.214949
H    -1.140755  5.522006  1.002709
Cd    -1.448667  -0.052020  3.798739
