36
Energy: -175310.579727 eV PBE+vdW (tier 2 basis)
C    -0.189885  -0.390334  -0.940913
C    0.149582  -0.299140  0.506006
O    1.404599  -0.354258  0.816408
H    0.489756  0.261133  -1.505017
H    -1.227357  -0.118375  -1.155861
H    -0.005116  -1.416367  -1.291464
N    -0.772804  -0.174027  1.450523
C    -2.236814  -0.125483  1.423910
C    -2.580807  0.582349  2.761378
O    -1.719582  0.569944  3.676079
H    -0.490798  0.058056  2.422995
H    -2.569180  0.500797  0.585687
C    -2.917661  -1.521270  1.297090
C    -2.310314  -2.748614  2.005110
C    -2.273929  -2.812744  3.549788
N    -1.136990  -2.097817  4.144655
C    0.130000  -2.506069  4.141889
N    0.488493  -3.723994  3.695160
N    1.167644  -1.685855  4.539808
H    -2.949670  -1.765551  0.225710
H    -3.968147  -1.404280  1.599649
H    -1.301985  -2.945660  1.607836
H    -2.916898  -3.603840  1.673442
H    -2.248546  -3.861021  3.879564
H    -3.183131  -2.386976  3.992618
H    -1.285544  -1.085433  4.277717
H    1.385419  -4.085672  4.005470
H    -0.200718  -4.409861  3.407601
H    0.852149  -0.955608  5.184648
N    -3.768246  1.163495  2.914458
C    -4.870477  1.308652  1.963615
H    -3.905327  1.574371  3.838180
H    -5.670347  0.587511  2.177083
H    -4.527459  1.168654  0.934491
H    -5.279023  2.321338  2.049149
Cd    1.924516  -0.812961  2.793943
