36
Energy: -175310.43613 eV PBE+vdW (tier 2 basis)
C    -0.673716  1.099680  0.742159
C    -0.480719  0.332300  2.001937
O    0.622807  0.532012  2.657359
H    -1.636843  0.898858  0.264593
H    0.143279  0.876341  0.043035
H    -0.599784  2.171746  0.975096
N    -1.367850  -0.528802  2.473409
C    -2.639853  -1.083302  2.002731
C    -3.274239  -1.551781  3.347660
O    -2.492567  -1.739684  4.309864
H    -1.307945  -0.866141  3.467628
H    -3.243433  -0.305284  1.518622
C    -2.475998  -2.297849  1.047947
C    -1.829706  -3.563403  1.656346
C    -0.295154  -3.587137  1.530042
N    0.416995  -4.484245  2.453946
C    1.020157  -4.065598  3.583651
N    2.116154  -4.688257  4.030558
N    0.540261  -3.016088  4.308225
H    -1.924511  -1.966390  0.154535
H    -3.481804  -2.552491  0.688833
H    -2.236616  -4.446011  1.146309
H    -2.116741  -3.673661  2.711336
H    0.120108  -2.580413  1.676439
H    -0.008490  -3.891430  0.514492
H    0.645564  -5.414774  2.110830
H    2.373360  -4.589897  5.007528
H    2.620305  -5.372890  3.476319
H    -0.482976  -2.946399  4.231028
N    -4.580715  -1.791389  3.422928
C    -5.618707  -1.598989  2.411072
H    -4.882112  -2.146291  4.330288
H    -5.301727  -0.875313  1.654199
H    -6.516097  -1.202500  2.897780
H    -5.874594  -2.547992  1.921953
Cd    1.127173  -1.046238  3.947810
