36
Energy: -175311.29092 eV PBE+vdW (tier 2 basis)
C    0.836900  0.904874  1.500323
C    0.029948  0.802685  2.753718
O    0.543922  1.206598  3.838122
H    1.144040  1.949974  1.360108
H    0.301128  0.562366  0.608881
H    1.757091  0.317273  1.621164
N    -1.216220  0.289045  2.660205
C    -2.176611  0.180361  3.764144
C    -1.828446  -1.052928  4.632333
O    -1.041209  -0.915847  5.611592
H    -1.513516  -0.020604  1.738090
H    -1.984924  1.053641  4.399683
C    -3.631493  0.313337  3.283933
C    -4.712898  0.324253  4.386516
C    -4.796378  1.537130  5.337145
N    -3.704808  1.585821  6.322081
C    -2.602769  2.353628  6.309358
N    -2.462050  3.329545  5.378198
N    -1.541425  2.141391  7.125226
H    -3.874448  -0.498958  2.578495
H    -3.694872  1.237925  2.689815
H    -4.657534  -0.594542  4.991627
H    -5.686517  0.272111  3.878402
H    -5.741913  1.483433  5.892357
H    -4.834243  2.479810  4.776779
H    -3.694362  0.828052  6.999881
H    -1.786293  4.054482  5.602290
H    -3.256174  3.636328  4.828478
H    -1.780544  1.556369  7.929278
N    -2.335389  -2.232467  4.297208
C    -2.028311  -3.498880  4.968090
H    -2.980473  -2.268311  3.512455
H    -2.924711  -3.885712  5.467926
H    -1.241234  -3.328842  5.705895
H    -1.688489  -4.230116  4.225764
Cd    -0.098416  1.113340  5.897792
