36
Energy: -175309.045808 eV PBE+vdW (tier 2 basis)
C    -0.863667  -0.852314  -0.130090
C    -0.805913  -0.094095  1.160908
O    -0.030554  -0.555037  2.062263
H    -1.558977  -0.411837  -0.851592
H    -1.152183  -1.891283  0.077375
H    0.142103  -0.883425  -0.570266
N    -1.560861  1.003894  1.266105
C    -1.802982  1.859660  2.444100
C    -0.522250  2.595911  2.886128
O    0.214063  2.180782  3.848412
H    -2.238734  1.174402  0.494800
H    -2.461675  2.648170  2.065602
C    -2.553243  1.124241  3.586145
C    -4.075806  1.370410  3.657494
C    -4.920638  1.141654  2.378164
N    -5.072819  2.342868  1.559118
C    -4.432811  2.679643  0.390576
N    -3.892143  1.614928  -0.361068
N    -4.210467  3.879000  -0.037198
H    -2.138946  1.433019  4.558107
H    -2.378835  0.041722  3.488406
H    -4.264029  2.391220  4.023715
H    -4.467756  0.704891  4.438886
H    -5.927096  0.823637  2.685132
H    -4.514171  0.328121  1.765258
H    -5.562260  3.115575  2.004079
H    -3.656025  1.970499  -1.289612
H    -4.519347  0.813932  -0.448411
H    -4.621563  4.613618  0.546466
N    -0.177630  3.729932  2.296320
C    -0.812414  4.491475  1.219612
H    0.683932  4.134081  2.671475
H    -1.775873  4.069051  0.920111
H    -0.148510  4.498104  0.345535
H    -0.962993  5.524674  1.554118
Cd    0.594275  0.068377  4.024253
