36
Energy: -175308.7692 eV PBE+vdW (tier 2 basis)
C    0.054011  2.760370  1.049219
C    -0.108943  1.490094  1.810508
O    0.853987  1.056590  2.518616
H    1.048005  2.750579  0.581134
H    0.050563  3.616034  1.741044
H    -0.710940  2.903391  0.280864
N    -1.263574  0.779977  1.752231
C    -2.598940  1.360497  1.906535
C    -2.759651  1.724387  3.403338
O    -2.037914  1.154785  4.294728
H    -1.181475  -0.155429  2.155074
H    -2.666647  2.274588  1.300678
C    -3.691753  0.354208  1.477751
C    -3.517539  -0.297272  0.095828
C    -3.621950  0.605510  -1.149649
N    -4.889162  1.307138  -1.283686
C    -5.142515  2.549972  -0.772945
N    -6.441125  2.920241  -0.623852
N    -4.215761  3.399263  -0.357945
H    -4.662186  0.865160  1.539996
H    -3.734960  -0.450364  2.229025
H    -4.279285  -1.086979  0.019995
H    -2.550250  -0.818607  0.032831
H    -3.492197  -0.019181  -2.042818
H    -2.803910  1.338545  -1.179164
H    -5.673590  0.762150  -1.632010
H    -6.620114  3.913744  -0.522778
H    -7.203802  2.356287  -0.981464
H    -3.306023  3.160723  -0.763407
N    -3.678853  2.591467  3.794931
C    -4.667407  3.327781  3.004407
H    -3.721158  2.716953  4.808025
H    -4.755300  4.336383  3.422747
H    -5.646804  2.835341  3.068988
H    -4.364965  3.413000  1.953376
Cd    0.086475  0.565870  4.546281
