36
Energy: -175308.850196 eV PBE+vdW (tier 2 basis)
C    0.519614  1.095400  0.377917
C    0.181337  0.525216  1.715025
O    1.104507  0.163971  2.499168
H    -0.307584  1.040447  -0.336305
H    1.386285  0.550575  -0.017493
H    0.840179  2.142564  0.491466
N    -1.117828  0.375891  2.097133
C    -2.128489  1.424166  1.962292
C    -1.828120  2.485889  3.054205
O    -1.104616  2.192753  4.053342
H    -1.210640  -0.149946  2.967789
H    -2.016354  1.884497  0.970524
C    -3.547102  0.837311  2.109148
C    -3.915139  -0.126634  0.974101
C    -5.314545  -0.725966  1.148711
N    -5.618175  -1.633516  0.063513
C    -6.782205  -2.320953  -0.147590
N    -7.806049  -2.177228  0.726624
N    -6.770232  -3.077221  -1.228802
H    -4.268565  1.665291  2.147541
H    -3.616781  0.332064  3.086579
H    -3.178570  -0.942959  0.924156
H    -3.871941  0.405277  0.010402
H    -6.070626  0.080560  1.178737
H    -5.378087  -1.262521  2.114265
H    -4.922468  -1.830807  -0.652115
H    -8.669018  -2.683407  0.569792
H    -7.759963  -1.596955  1.555109
H    -7.651925  -3.582427  -1.371719
N    -2.347361  3.706035  2.956967
C    -3.233192  4.261458  1.934482
H    -2.113543  4.318629  3.739421
H    -2.955403  5.306951  1.763442
H    -4.280911  4.227245  2.261220
H    -3.129115  3.722978  0.987823
Cd    0.830179  1.056988  4.561517
