36
Energy: -175311.019697 eV PBE+vdW (tier 2 basis)
C    -0.597450  2.359247  -0.697603
C    -0.030293  1.306438  0.185938
O    1.263397  1.207005  0.233355
H    -0.297941  2.167607  -1.737076
H    -0.150137  3.323565  -0.417349
H    -1.686544  2.431358  -0.634826
N    -0.773247  0.494679  0.918123
C    -2.210832  0.235289  1.009569
C    -2.323596  -0.459492  2.393736
O    -1.330995  -1.106655  2.797432
H    -0.325225  -0.092136  1.647745
H    -2.759740  1.186089  0.996065
C    -2.750141  -0.694754  -0.118149
C    -2.669642  -2.226063  0.072843
C    -1.394611  -2.997680  -0.290498
N    -0.231986  -2.676047  0.556719
C    0.975114  -3.289907  0.449762
N    1.091581  -4.444452  -0.212584
N    2.048816  -2.671075  0.983860
H    -2.285213  -0.391408  -1.068443
H    -3.815994  -0.448941  -0.223042
H    -3.441380  -2.655628  -0.581483
H    -2.984633  -2.503424  1.090012
H    -1.651666  -4.066327  -0.202295
H    -1.116289  -2.811677  -1.338725
H    -0.449919  -2.245798  1.468214
H    2.000066  -4.819740  -0.463519
H    0.285731  -5.033421  -0.395260
H    2.883713  -3.237213  1.124267
N    -3.484744  -0.368275  3.034300
C    -3.774604  -1.016275  4.315212
H    -4.208275  0.222996  2.633912
H    -2.910631  -1.617550  4.607935
H    -4.657928  -1.657780  4.216168
H    -3.966282  -0.256074  5.081719
Cd    2.021486  -0.626884  0.797860
