36
Energy: -175310.46485 eV PBE+vdW (tier 2 basis)
C    0.035098  2.332145  1.476285
C    -0.009260  0.925514  1.990586
O    1.118519  0.336609  2.210512
H    -0.241783  2.347169  0.411020
H    1.049220  2.730675  1.566433
H    -0.663103  2.986932  2.013842
N    -1.116077  0.211871  2.233104
C    -2.458595  0.638945  1.859131
C    -3.050926  1.424093  3.036018
O    -2.443271  1.319258  4.184566
H    -1.628790  0.773901  3.990630
H    -2.459969  1.306506  0.979573
C    -3.366580  -0.595489  1.562450
C    -3.287183  -1.195434  0.144835
C    -2.011804  -1.903228  -0.349597
N    -1.857656  -3.346786  -0.062185
C    -1.024377  -3.844073  0.882491
N    -0.302356  -4.939297  0.625687
N    -0.922675  -3.271376  2.106141
H    -4.415686  -0.297572  1.704976
H    -3.178590  -1.342663  2.349003
H    -3.488734  -0.385811  -0.573660
H    -4.130934  -1.892142  0.034029
H    -1.105610  -1.385420  -0.005854
H    -2.001293  -1.830740  -1.444663
H    -2.102332  -3.969104  -0.829032
H    0.081630  -5.470551  1.400437
H    -0.188586  -5.313604  -0.310101
H    -1.816452  -2.821425  2.317617
N    -4.122380  2.164173  2.948520
C    -4.756696  2.909470  4.047003
H    -4.568231  2.222228  2.034250
H    -4.960788  3.930061  3.705832
H    -4.087628  2.931777  4.909872
H    -5.700089  2.421787  4.321451
Cd    0.360619  -1.645399  2.480677
