36
Energy: -175310.515104 eV PBE+vdW (tier 2 basis)
C    -2.034690  5.021011  2.682692
C    -1.589924  3.929525  1.773696
O    -0.427115  3.931158  1.283274
H    -1.626430  4.845263  3.690881
H    -3.122866  5.118802  2.741107
H    -1.589819  5.962334  2.335543
N    -2.442031  2.900458  1.462433
C    -3.203585  2.152312  2.460381
C    -2.202526  1.588607  3.498533
O    -0.994810  1.347364  3.172440
H    -2.142141  2.338646  0.663989
H    -3.915244  2.835585  2.941249
C    -3.968704  0.948431  1.829756
C    -4.526438  1.125739  0.393675
C    -3.826590  0.287139  -0.695301
N    -2.409521  0.647866  -0.880891
C    -1.318412  0.070767  -0.329829
N    -1.436559  -1.048472  0.406529
N    -0.079359  0.623008  -0.409646
H    -4.794577  0.714901  2.512391
H    -3.305504  0.073565  1.869035
H    -4.522925  2.184612  0.095911
H    -5.583610  0.828409  0.381457
H    -4.331985  0.434725  -1.657920
H    -3.906810  -0.787139  -0.480359
H    -2.225459  1.443532  -1.486637
H    -0.580073  -1.560763  0.592239
H    -2.296149  -1.584134  0.426089
H    0.013058  1.257240  -1.207495
N    -2.604425  1.313684  4.731527
C    -3.935859  1.452031  5.326212
H    -1.882003  0.901709  5.324208
H    -4.519487  2.222461  4.814030
H    -3.819914  1.750969  6.373028
H    -4.478608  0.498790  5.289237
Cd    0.235993  1.786176  1.377007
