36
Energy: -175309.193585 eV PBE+vdW (tier 2 basis)
C    -0.006714  0.084092  -0.006121
C    -0.082877  0.101504  1.488344
O    0.943886  0.404126  2.152895
H    0.254909  1.092384  -0.355573
H    -0.939756  -0.231070  -0.485555
H    0.808206  -0.582304  -0.316551
N    -1.267270  -0.204991  2.064046
C    -1.552400  -0.088258  3.493676
C    -0.880531  -1.225703  4.303873
O    0.118500  -0.944353  5.035559
H    -2.043751  -0.400117  1.438252
H    -1.039519  0.817237  3.854589
C    -3.057667  0.126556  3.738575
C    -3.414939  0.270286  5.223669
C    -4.882537  0.661964  5.428862
N    -5.184687  0.773668  6.838735
C    -6.386529  1.094623  7.412068
N    -7.449195  1.357562  6.613296
N    -6.369525  1.105820  8.729287
H    -3.645091  -0.683906  3.284064
H    -3.328680  1.047857  3.200191
H    -2.775113  1.037092  5.688265
H    -3.220096  -0.673579  5.757387
H    -5.544289  -0.091977  4.962746
H    -5.083704  1.624451  4.922491
H    -4.462747  0.607138  7.535303
H    -8.336625  1.605086  7.033440
H    -7.401841  1.375137  5.602156
H    -7.279266  1.345810  9.137767
N    -1.305493  -2.484910  4.267331
C    -2.432458  -3.084737  3.553229
H    -0.752266  -3.112773  4.851961
H    -2.231312  -4.155260  3.448531
H    -2.534206  -2.664812  2.548157
H    -3.371407  -2.964609  4.109054
Cd    1.714860  0.408350  4.250406
