36
Energy: -175310.329132 eV PBE+vdW (tier 2 basis)
C    -0.267061  0.141388  -0.525794
C    0.035615  -0.330976  0.855781
O    1.174312  -0.909259  1.029852
H    0.377853  -0.382125  -1.237355
H    -0.041730  1.217826  -0.591640
H    -1.319147  -0.008243  -0.794715
N    -0.842514  -0.159171  1.844271
C    -2.062273  0.670087  1.811777
C    -1.655331  2.150004  1.625265
O    -0.601766  2.563300  2.144864
H    -0.618587  -0.546123  2.761173
H    -2.680786  0.320178  0.974964
C    -2.898004  0.501634  3.112003
C    -2.502425  1.346229  4.347287
C    -1.726634  0.670736  5.489304
N    -0.546031  -0.147275  5.123154
C    0.683188  0.278694  4.765851
N    0.863125  1.491994  4.232973
N    1.774528  -0.545325  4.849194
H    -2.953791  -0.572277  3.349975
H    -3.923441  0.775835  2.834457
H    -3.427910  1.699081  4.823167
H    -1.986393  2.263262  4.038408
H    -2.384466  -0.022906  6.026105
H    -1.408401  1.437930  6.209160
H    -0.585599  -1.117902  5.422075
H    0.159620  1.982002  3.643332
H    1.811484  1.854685  4.213221
H    1.704651  -1.293003  5.542295
N    -2.485406  2.950685  0.945074
C    -3.732605  2.606491  0.258695
H    -2.192163  3.926419  0.926006
H    -4.086314  3.497788  -0.266801
H    -4.516982  2.299027  0.962095
H    -3.578568  1.819877  -0.491161
Cd    2.163327  -1.070103  2.863357
