36
Energy: -175310.424992 eV PBE+vdW (tier 2 basis)
C    -1.491183  -0.026741  -1.174467
C    -0.895956  0.175233  0.171260
O    -0.070703  1.118254  0.375111
H    -2.224138  0.770881  -1.372404
H    -1.961513  -1.006723  -1.295265
H    -0.698230  0.101109  -1.924429
N    -1.226254  -0.648998  1.211004
C    -2.601708  -0.977466  1.610214
C    -3.412767  0.342630  1.623654
O    -2.847414  1.432272  1.935779
H    -0.588706  -0.564420  2.000533
H    -3.027669  -1.695705  0.895097
C    -2.658581  -1.571722  3.052313
C    -1.561140  -2.543649  3.529959
C    -0.145955  -2.053875  3.909234
N    0.037347  -1.160445  5.078686
C    0.209468  0.185448  4.973619
N    1.211815  0.779102  5.629137
N    -0.646567  0.923732  4.244620
H    -3.611909  -2.114368  3.111082
H    -2.781270  -0.751528  3.776274
H    -1.411206  -3.327158  2.771191
H    -1.972861  -3.063419  4.406892
H    0.396129  -1.607375  3.062470
H    0.430268  -2.957478  4.147852
H    0.460384  -1.601490  5.892017
H    1.168961  1.773687  5.825322
H    1.983347  0.253649  6.026235
H    -1.554770  0.459974  4.228274
N    -4.706746  0.269417  1.343989
C    -5.648079  1.390814  1.393859
H    -5.082737  -0.639915  1.085692
H    -6.158173  1.482934  0.428183
H    -5.097134  2.308776  1.609418
H    -6.393877  1.215420  2.178628
Cd    -0.643671  1.900330  2.358360
