36
Energy: -175310.742736 eV PBE+vdW (tier 2 basis)
C    -0.215335  -1.120437  -0.188073
C    0.022447  -0.426295  1.111061
O    1.237535  -0.026074  1.321088
H    0.080253  -0.460013  -1.013964
H    -1.258834  -1.425907  -0.313896
H    0.431651  -2.007410  -0.239672
N    -0.986348  -0.278521  1.949352
C    -1.077173  0.232510  3.321713
C    -2.298072  -0.577706  3.884714
O    -3.186949  -0.867344  3.086395
H    -1.914068  -0.661812  1.687901
H    -0.159331  -0.021279  3.884179
C    -1.393097  1.755851  3.320574
C    -1.631677  2.431911  4.682708
C    -0.404280  2.750664  5.552828
N    0.432340  3.830456  5.000657
C    1.531050  3.675670  4.252138
N    1.927997  4.653361  3.423434
N    2.290701  2.538866  4.282081
H    -2.303865  1.874633  2.716223
H    -0.613601  2.296146  2.751367
H    -2.316282  1.821156  5.288762
H    -2.177058  3.369246  4.499707
H    0.226387  1.868828  5.720436
H    -0.734283  3.078504  6.546432
H    0.058088  4.773099  5.096518
H    1.369237  5.485829  3.262778
H    2.907078  4.695132  3.156952
H    2.243981  2.075255  5.191004
N    -2.302638  -0.858703  5.197709
C    -3.394540  -1.592426  5.845246
H    -1.466215  -0.679012  5.742277
H    -3.590832  -1.159759  6.831779
H    -3.136716  -2.653130  5.957467
H    -4.288796  -1.507179  5.222095
Cd    1.957546  1.201059  2.762233
