36
Energy: -175309.472173 eV PBE+vdW (tier 2 basis)
C    -0.442574  0.239642  -0.185869
C    -0.331204  -0.045992  1.280374
O    0.778337  -0.474141  1.714780
H    -1.431776  0.598244  -0.489358
H    -0.208315  -0.680641  -0.738565
H    0.318167  0.980517  -0.464739
N    -1.426964  0.161238  2.035667
C    -1.717222  -0.179487  3.447746
C    -1.057958  0.829744  4.410340
O    0.181796  0.792846  4.703700
H    -2.223009  0.525353  1.520249
H    -2.799013  -0.027515  3.530648
C    -1.446084  -1.647741  3.832586
C    -2.234177  -2.104237  5.067462
C    -3.725466  -2.380918  4.765898
N    -4.489086  -2.718157  5.947948
C    -5.044329  -1.774333  6.772355
N    -5.803999  -2.232607  7.800862
N    -4.789493  -0.508584  6.513104
H    -0.369138  -1.820822  4.029076
H    -1.678058  -2.277060  2.960843
H    -2.169217  -1.357198  5.872693
H    -1.775449  -3.023372  5.455661
H    -3.814338  -3.219160  4.061629
H    -4.203420  -1.506358  4.304909
H    -4.585709  -3.697816  6.190515
H    -6.232892  -1.576576  8.440634
H    -6.113171  -3.195482  7.866321
H    -5.281023  0.100067  7.174276
N    -1.806379  1.772044  4.960910
C    -3.250153  2.003201  4.814309
H    -1.294318  2.402489  5.579117
H    -3.510412  2.226727  3.772298
H    -3.501952  2.882652  5.413574
H    -3.824224  1.144959  5.195338
Cd    1.651569  -0.455645  3.698846
