36
Energy: -175311.591237 eV PBE+vdW (tier 2 basis)
C    0.948863  -1.678326  0.416311
C    0.138775  -2.036613  1.623484
O    -0.284684  -3.227980  1.708941
H    0.356687  -1.896194  -0.482626
H    1.834275  -2.327169  0.379265
H    1.266138  -0.630710  0.393225
N    -0.081724  -1.057949  2.523590
C    -0.877971  -1.017990  3.774506
C    -0.215993  -1.883606  4.865454
O    -0.256262  -3.142699  4.831459
H    0.352344  -0.173021  2.277514
H    -0.799115  0.028316  4.100068
C    -2.386743  -1.275246  3.535641
C    -3.294192  -1.162499  4.781818
C    -3.681610  -2.476169  5.488328
N    -4.513784  -3.358244  4.657207
C    -4.076317  -4.417082  3.946828
N    -4.792833  -4.842914  2.893882
N    -2.928094  -5.082096  4.234037
H    -2.557203  -2.237040  3.025427
H    -2.693717  -0.526788  2.792871
H    -4.218537  -0.646966  4.486360
H    -2.834086  -0.506728  5.537246
H    -4.252642  -2.242192  6.395606
H    -2.797125  -3.032347  5.817916
H    -5.483910  -3.076342  4.533991
H    -5.603644  -4.341730  2.547739
H    -4.660877  -5.797823  2.577026
H    -2.702622  -5.000687  5.227937
N    0.401064  -1.231398  5.847422
C    1.119248  -1.868399  6.952577
H    0.403068  -0.215510  5.820477
H    0.700547  -1.531289  7.907994
H    2.180306  -1.594076  6.910128
H    1.018585  -2.952380  6.865212
Cd    -1.235220  -4.357115  3.220140
