36
Energy: -175311.84616 eV PBE+vdW (tier 2 basis)
C    -1.840522  0.078209  0.539718
C    -1.460742  -0.271110  1.944843
O    -0.538813  -1.114811  2.128246
H    -2.659862  0.801328  0.472220
H    -2.125773  -0.841239  0.011504
H    -0.957934  0.481098  0.025132
N    -2.141848  0.341265  2.937732
C    -2.026137  0.152236  4.398556
C    -0.691508  0.746206  4.897674
O    0.420911  0.177787  4.694254
H    -2.846282  1.006030  2.632593
H    -2.828776  0.767237  4.824767
C    -2.299404  -1.323002  4.812558
C    -1.709755  -1.776389  6.155446
C    -1.821765  -3.287627  6.407531
N    -1.392614  -4.201440  5.314390
C    -0.103844  -4.576225  5.049801
N    0.151820  -5.889668  4.931323
N    0.852515  -3.659022  4.879802
H    -1.966897  -1.999946  4.008851
H    -3.390861  -1.453396  4.818511
H    -2.228360  -1.280758  6.989383
H    -0.657254  -1.473757  6.260882
H    -2.872122  -3.548735  6.585275
H    -1.271024  -3.532431  7.326485
H    -2.068503  -4.937461  5.132086
H    -0.454106  -6.589018  5.347346
H    1.001401  -6.224805  4.489379
H    1.796186  -4.042158  4.913345
N    -0.755126  1.902839  5.545757
C    0.406180  2.631626  6.060463
H    -1.666143  2.336843  5.664818
H    0.147712  3.074364  7.027615
H    0.693282  3.428839  5.362857
H    1.242413  1.938374  6.179435
Cd    0.511286  -1.843141  3.879520
