36
Energy: -175311.136752 eV PBE+vdW (tier 2 basis)
C    -1.226593  1.501330  -1.043089
C    -1.094383  0.373805  -0.081696
O    0.032381  0.062822  0.398141
H    -1.248323  2.453412  -0.488761
H    -2.116413  1.428190  -1.675575
H    -0.322051  1.532029  -1.663611
N    -2.198360  -0.337423  0.310351
C    -3.460187  0.263076  0.730936
C    -3.181820  1.175210  1.953997
O    -2.129861  1.057230  2.655530
H    -2.016343  -1.266592  0.702613
H    -3.837655  0.893579  -0.087646
C    -4.505520  -0.853432  1.003536
C    -4.651770  -1.462991  2.413889
C    -3.437876  -1.966070  3.202092
N    -2.554164  -2.892418  2.446818
C    -1.328447  -3.266090  2.962774
N    -1.014004  -4.569535  2.953096
N    -0.489725  -2.333461  3.406446
H    -4.306599  -1.637702  0.258477
H    -5.494765  -0.459143  0.736641
H    -5.376643  -2.284725  2.311332
H    -5.147346  -0.739998  3.079131
H    -3.808129  -2.469710  4.108701
H    -2.829484  -1.126750  3.552555
H    -3.059444  -3.666210  2.017104
H    -0.062281  -4.883354  3.113685
H    -1.723360  -5.291453  2.882627
H    0.321664  -2.695132  3.904193
N    -4.090259  2.090337  2.254725
C    -3.984321  3.012742  3.391428
H    -4.900450  2.179005  1.647061
H    -4.900571  3.606214  3.440017
H    -3.124836  3.681095  3.261180
H    -3.862487  2.452351  4.325110
Cd    -0.462652  -0.414053  2.509824
