36
Energy: -175310.528971 eV PBE+vdW (tier 2 basis)
C    0.167431  0.948589  -2.004067
C    0.695706  1.257268  -0.624567
O    1.428672  2.223366  -0.477273
H    -3.606102  3.766812  0.006192
H    -0.926309  0.956175  -2.098318
H    0.630965  1.617118  -2.730840
N    0.420247  0.451896  0.481618
C    -0.573217  -0.580554  0.802021
C    -0.069903  -2.016454  0.515586
O    0.288853  -2.434102  -0.627411
H    0.926351  0.811219  1.288389
H    -0.672222  -0.516106  1.896232
C    -1.999702  -0.348981  0.248937
C    -2.589771  0.982092  0.740216
C    -4.086043  1.182649  0.454300
N    -4.430019  1.501717  -0.940223
C    -4.672911  2.732788  -1.421915
N    -5.322727  2.872170  -2.586815
N    -4.261375  3.821978  -0.762550
H    -2.622306  -1.183063  0.608742
H    -2.015359  -0.413775  -0.848690
H    -2.012974  1.828403  0.337158
H    -2.474955  1.036780  1.834127
H    -4.483055  1.985793  1.089836
H    -4.655067  0.281883  0.722101
H    -4.663553  0.728416  -1.553742
H    -5.364728  3.767057  -3.061073
H    -5.899568  2.128834  -2.962721
H    -4.608354  4.742792  -1.005775
N    -0.045279  -2.852520  1.547680
C    0.383292  -4.250556  1.451696
H    -0.306576  -2.499297  2.462867
H    0.166244  -4.745233  2.401765
H    1.460155  -4.307369  1.250087
H    -0.156710  -4.755048  0.643122
Cd    0.693743  -1.126119  -2.334976
