36
Energy: -175308.630512 eV PBE+vdW (tier 2 basis)
C    0.865530  -0.135886  1.265029
C    -0.396750  0.656776  1.185279
O    -0.350246  1.865559  0.804997
H    1.635424  0.367729  0.671737
H    0.733467  -1.166567  0.921673
H    1.220010  -0.158916  2.308862
N    -1.598464  0.115340  1.518954
C    -1.875963  -0.703079  2.712354
C    -1.462128  0.128898  3.958338
O    -1.352312  1.393083  3.903577
H    -2.382679  0.697970  1.228727
H    -2.976499  -0.745386  2.756692
C    -1.379830  -2.162459  2.662474
C    -1.842968  -2.903855  1.399991
C    -1.534235  -4.414548  1.382489
N    -0.122897  -4.756733  1.274639
C    0.719660  -5.007258  2.323197
N    2.016877  -5.297707  2.035968
N    0.402588  -4.930366  3.602669
H    -1.809571  -2.677228  3.536908
H    -0.288591  -2.211473  2.778276
H    -1.407647  -2.439317  0.502914
H    -2.934676  -2.803018  1.294309
H    -2.040663  -4.862202  0.517771
H    -1.960923  -4.909272  2.267332
H    0.249726  -4.844471  0.333613
H    2.591575  -5.586146  2.821383
H    2.316451  -5.593080  1.113728
H    -0.610576  -4.879425  3.741929
N    -1.271161  -0.496070  5.109872
C    -0.973440  0.191217  6.371792
H    -1.345129  -1.508229  5.128571
H    -1.764069  0.913583  6.604729
H    -0.014676  0.718418  6.302603
H    -0.918643  -0.557525  7.165781
Cd    -1.255103  3.103261  2.438488
