36
Energy: -175309.259839 eV PBE+vdW (tier 2 basis)
C    -0.065269  0.139337  0.147710
C    -0.188719  0.222803  1.635552
O    0.735909  0.805579  2.280234
H    -0.895572  -0.394301  -0.327148
H    0.884762  -0.344059  -0.113446
H    -0.021870  1.162220  -0.253442
N    -1.285161  -0.307732  2.210210
C    -1.781513  -0.088530  3.576316
C    -1.252058  -1.159219  4.556349
O    -0.010348  -1.170065  4.881319
H    -1.940001  -0.745908  1.568550
H    -1.303506  0.840106  3.933690
C    -3.302825  0.211037  3.575884
C    -4.264285  -0.547962  2.636528
C    -4.452432  -2.062045  2.795040
N    -4.743081  -2.420383  4.180676
C    -5.019536  -3.734099  4.616347
N    -4.820209  -4.738510  3.717865
N    -5.349423  -3.825662  5.866838
H    -3.399402  1.271744  3.306314
H    -3.646945  0.156792  4.618452
H    -4.013869  -0.352503  1.581898
H    -5.243783  -0.062494  2.764029
H    -3.546778  -2.613590  2.488113
H    -5.261290  -2.370846  2.109163
H    -5.329837  -1.767840  4.702401
H    -4.868138  -4.580524  2.717292
H    -5.015463  -5.688178  4.015889
H    -5.581555  -4.779806  6.158167
N    -2.062876  -2.039315  5.096143
C    -1.653869  -3.025143  6.100059
H    -3.068456  -2.067000  4.811878
H    -2.558692  -3.389671  6.595235
H    -0.986504  -2.561854  6.833997
H    -1.129159  -3.864566  5.625601
Cd    1.411543  0.340155  4.287378
