36
Energy: -175311.582328 eV PBE+vdW (tier 2 basis)
C    -0.632254  0.605159  0.336053
C    -0.487493  0.141012  1.752443
O    0.624719  -0.343945  2.107920
H    -0.379388  -0.225099  -0.336368
H    0.101725  1.400861  0.149534
H    -1.633990  0.974196  0.092864
N    -1.568632  0.272419  2.551711
C    -1.777785  -0.122950  3.961877
C    -0.920108  0.757603  4.899034
O    0.333593  0.629237  4.999402
H    -2.373930  0.696210  2.100723
H    -2.826382  0.132504  4.162515
C    -1.637031  -1.657976  4.171747
C    -1.481327  -2.098236  5.634384
C    -1.240162  -3.604861  5.858414
N    -0.252975  -4.273975  4.987246
C    0.930982  -3.810526  4.547558
N    1.485451  -4.388259  3.459327
N    1.578326  -2.762879  5.096499
H    -0.804666  -2.037259  3.559956
H    -2.528044  -2.120847  3.723850
H    -2.397255  -1.862685  6.196451
H    -0.689097  -1.516348  6.125317
H    -2.175487  -4.151978  5.685891
H    -0.979155  -3.767075  6.914863
H    -0.505167  -5.217425  4.704934
H    2.493896  -4.345168  3.357092
H    1.002001  -5.108049  2.933813
H    1.312799  -2.609771  6.069105
N    -1.569819  1.678169  5.603034
C    -0.936663  2.628149  6.520053
H    -2.574974  1.757731  5.476774
H    0.081390  2.295426  6.734731
H    -1.517979  2.674631  7.447135
H    -0.904971  3.625933  6.064251
Cd    1.457853  -0.967924  3.990869
