36
Energy: -175311.33363 eV PBE+vdW (tier 2 basis)
C    -1.197643  0.820756  0.289816
C    -1.260899  -0.101434  1.469056
O    -0.690330  -1.217658  1.419295
H    -1.805931  1.724625  0.399870
H    -1.514002  0.276149  -0.608814
H    -0.149889  1.111716  0.130066
N    -1.951615  0.328955  2.550486
C    -2.182883  -0.331483  3.848939
C    -0.846529  -0.522546  4.610299
O    -0.083112  -1.527904  4.438406
H    -2.364626  1.251841  2.459753
H    -2.756049  0.417238  4.406053
C    -3.044485  -1.626912  3.869083
C    -4.157709  -1.774606  2.808322
C    -3.889881  -2.818999  1.705519
N    -3.710827  -4.182566  2.225652
C    -2.527693  -4.787759  2.460743
N    -2.468582  -5.787304  3.354408
N    -1.371343  -4.432481  1.842587
H    -3.487550  -1.655742  4.873794
H    -2.406977  -2.524687  3.853109
H    -4.360406  -0.816774  2.308233
H    -5.093883  -2.039349  3.318142
H    -3.009035  -2.552439  1.110888
H    -4.737426  -2.837313  1.008925
H    -4.553921  -4.659443  2.538331
H    -1.690837  -6.436661  3.297793
H    -3.256343  -6.046433  3.938159
H    -1.564111  -4.037699  0.918591
N    -0.479232  0.394951  5.493595
C    -1.173468  1.624958  5.891145
H    0.415274  0.202218  5.946115
H    -1.298858  2.305149  5.040017
H    -0.553214  2.130089  6.636603
H    -2.144358  1.406706  6.352919
Cd    -0.290318  -2.909290  2.823736
