36
Energy: -175310.324059 eV PBE+vdW (tier 2 basis)
C    1.417341  0.583608  0.447666
C    0.853721  0.302035  1.803170
O    1.675147  0.231214  2.781317
H    1.935527  1.552661  0.484502
H    0.655580  0.617066  -0.338170
H    2.174256  -0.171784  0.201228
N    -0.472358  0.158288  1.926130
C    -1.311795  0.170871  3.150628
C    -1.587234  -1.258667  3.666975
O    -0.671892  -1.849641  4.441520
H    -0.995440  0.178108  1.053058
H    -0.746426  0.722458  3.920951
C    -2.592320  0.944996  2.815428
C    -3.517810  1.164116  4.019788
C    -4.979006  1.370508  3.568857
N    -5.971605  0.923435  4.546154
C    -6.402089  -0.342621  4.652072
N    -7.501034  -0.610357  5.373898
N    -5.751845  -1.335604  4.030748
H    -3.125755  0.362676  2.047087
H    -2.312881  1.907153  2.362808
H    -3.182018  2.019408  4.621718
H    -3.474485  0.287055  4.679318
H    -5.169150  0.822499  2.634546
H    -5.187760  2.425576  3.357165
H    -6.375678  1.609316  5.174962
H    -7.739187  -1.557739  5.640831
H    -8.155469  0.119055  5.630664
H    -6.185378  -2.247033  3.947935
N    -2.688839  -1.844692  3.370014
C    -2.898867  -3.240325  3.743688
H    -4.785900  -1.249225  3.700024
H    -3.737520  -3.638488  3.160455
H    -3.140823  -3.331369  4.813992
H    -2.014013  -3.862462  3.554466
Cd    1.246960  -1.072298  4.417354
