36
Energy: -175310.493444 eV PBE+vdW (tier 2 basis)
C    -0.016806  1.208746  -0.557435
C    0.012032  0.696254  0.841662
O    1.128066  0.176001  1.282984
H    0.787829  1.938281  -0.716182
H    -0.981283  1.648519  -0.829809
H    0.190568  0.363286  -1.231393
N    -1.086491  0.729657  1.563626
C    -1.441144  0.069865  2.825798
C    -2.997235  0.241616  2.838260
O    -3.477239  1.116279  2.107598
H    -1.956569  1.182048  1.197554
H    -1.161885  -0.990267  2.750504
C    -0.809388  0.655632  4.118109
C    -0.745473  2.185021  4.195428
C    -0.270415  2.760140  5.544806
N    0.881058  2.094803  6.195469
C    2.032983  1.712713  5.629014
N    2.779150  0.755126  6.209004
N    2.485459  2.232161  4.455802
H    0.192562  0.206071  4.249582
H    -1.385345  0.264810  4.969339
H    -1.745236  2.611285  4.023789
H    -0.139252  2.589715  3.367122
H    -1.083373  2.675420  6.276397
H    -0.070939  3.836716  5.439744
H    0.766150  1.894429  7.186162
H    3.777091  0.741305  6.021624
H    2.459554  0.251224  7.029958
H    2.126630  3.175056  4.294417
N    -3.735603  -0.535363  3.645042
C    -3.333661  -1.664817  4.476917
H    -4.731573  -0.323413  3.602521
H    -4.091924  -2.451653  4.398585
H    -3.243562  -1.379086  5.534533
H    -2.384780  -2.091327  4.135063
Cd    2.168388  1.079171  2.772746
