36
Energy: -175309.230736 eV PBE+vdW (tier 2 basis)
C    -0.257624  2.094617  0.913621
C    -0.230079  0.782575  1.635139
O    0.663985  -0.053783  1.276485
H    -1.087521  2.736487  1.226846
H    -0.319420  1.905852  -0.166434
H    0.692584  2.617582  1.088291
N    -1.143924  0.582292  2.591799
C    -1.512520  -0.631134  3.359951
C    -0.527664  -0.909220  4.509017
O    0.606521  -1.489170  4.328631
H    -1.806588  1.354587  2.715901
H    -2.460464  -0.335472  3.830157
C    -1.821925  -1.894832  2.526728
C    -2.714449  -1.750861  1.280306
C    -4.191635  -1.323403  1.469095
N    -4.397336  0.114316  1.561949
C    -4.341699  0.837310  2.722482
N    -3.991385  2.178140  2.580663
N    -4.443631  0.368033  3.934426
H    -2.266311  -2.620201  3.225803
H    -0.891817  -2.390727  2.177363
H    -2.732786  -2.743212  0.807068
H    -2.243085  -1.083575  0.543142
H    -4.638969  -1.820334  2.340586
H    -4.760681  -1.675912  0.599789
H    -4.408165  0.620535  0.681380
H    -4.304410  2.745815  3.366565
H    -4.200214  2.620414  1.688266
H    -4.817954  -0.584552  3.944848
N    -0.837259  -0.580891  5.750369
C    -2.024373  0.061076  6.324015
H    -0.107421  -0.829285  6.423312
H    -2.475139  -0.619520  7.056685
H    -2.771858  0.313809  5.563833
H    -1.710303  0.975944  6.841495
Cd    1.445452  -1.707435  2.382872
