36
Energy: -175310.804805 eV PBE+vdW (tier 2 basis)
C    0.770087  1.588686  0.036455
C    0.763764  0.993913  1.418535
O    1.845865  0.449503  1.835663
H    1.541109  2.366952  -0.024760
H    -0.200358  2.013894  -0.242575
H    1.057047  0.807322  -0.679686
N    -0.308174  0.957885  2.214402
C    -1.331654  1.947951  2.390827
C    -1.040453  2.677747  3.757547
O    -0.254010  2.215845  4.634238
H    -2.379318  0.401733  -1.838412
H    -1.286973  2.729180  1.609598
C    -2.747105  1.329892  2.427408
C    -3.279551  0.763433  1.098949
C    -2.678379  -0.585011  0.660363
N    -3.537826  -1.318582  -0.280888
C    -3.433513  -1.349428  -1.615933
N    -4.100601  -2.278659  -2.313838
N    -2.652335  -0.472882  -2.265328
H    -3.459505  2.094180  2.767632
H    -2.759770  0.543604  3.199040
H    -3.173795  1.513954  0.298348
H    -4.362607  0.618712  1.224602
H    -2.549528  -1.239228  1.532961
H    -1.684057  -0.482215  0.209290
H    -4.293667  -1.863877  0.122412
H    -4.494327  -3.097658  -1.865573
H    -4.238633  -2.190287  -3.313924
H    -2.440143  -0.595742  -3.248326
N    -1.671660  3.823249  3.976801
C    -1.529233  4.611160  5.205780
H    -2.290287  4.177574  3.253704
H    -1.958730  4.073236  6.059373
H    -2.056393  5.558992  5.070985
H    -0.469979  4.807517  5.405655
Cd    0.980238  0.465272  3.940300
