36
Energy: -175309.837109 eV PBE+vdW (tier 2 basis)
C    0.262966  -0.493844  0.266270
C    -0.407222  -0.434239  1.601109
O    -0.228259  -1.428968  2.388605
H    0.057693  0.377740  -0.364069
H    -0.082318  -1.399310  -0.253034
H    1.346388  -0.603022  0.406323
N    -1.159946  0.639816  1.881961
C    -2.148171  0.947366  2.950035
C    -1.626082  1.529276  4.280125
O    -0.800373  0.818397  5.068652
H    -1.135981  1.345935  1.150501
H    -2.728653  1.760216  2.497633
C    -3.185790  -0.179774  3.208423
C    -4.319550  0.273108  4.152323
C    -4.048576  0.000410  5.646220
N    -4.932321  0.748053  6.538568
C    -4.556115  1.691248  7.425547
N    -5.410418  2.019361  8.409362
N    -3.365918  2.289344  7.347830
H    -2.722749  -1.104738  3.595274
H    -3.602405  -0.463044  2.232872
H    -5.242485  -0.244808  3.859002
H    -4.517619  1.345003  4.010427
H    -3.019647  0.248719  5.928984
H    -4.185222  -1.071689  5.856141
H    -5.909057  0.471472  6.563655
H    -5.280172  2.861141  8.957437
H    -6.186742  1.420374  8.663290
H    -3.051093  2.856638  8.126796
N    -2.073573  2.609937  4.793333
C    -2.733589  3.697174  4.104138
H    -2.799903  2.346436  6.474032
H    -2.141574  4.611670  4.248474
H    -3.717100  3.885328  4.557796
H    -2.869229  3.555483  3.019423
Cd    -0.220973  -1.062590  4.471049
