36
Energy: -175310.877135 eV PBE+vdW (tier 2 basis)
C    -0.029178  1.011572  0.034325
C    -0.174813  0.404443  1.388284
O    0.893999  0.374724  2.130193
H    0.342576  2.040902  0.119548
H    -0.963569  0.996136  -0.535219
H    0.735230  0.443911  -0.516967
N    -1.338773  -0.096618  1.748302
C    -1.675781  -1.087687  2.777662
C    -2.563739  -2.088389  1.946110
O    -3.093009  -1.646980  0.922020
H    -2.081811  -0.178385  1.014164
H    -0.758543  -1.575738  3.137348
C    -2.539403  -0.558366  3.948356
C    -1.836422  0.117284  5.139093
C    -1.607866  1.632528  4.997641
N    -1.041068  2.273384  6.183025
C    0.214776  2.163553  6.671423
N    0.474150  2.727012  7.862170
N    1.181363  1.515231  6.003448
H    -3.078331  -1.424941  4.352818
H    -3.321697  0.094953  3.533086
H    -0.900210  -0.417487  5.381237
H    -2.463316  -0.020158  6.031382
H    -2.572499  2.125495  4.820992
H    -1.023999  1.911808  4.091805
H    -1.665463  2.891102  6.690221
H    1.419224  2.795850  8.220728
H    -0.259895  3.110096  8.447222
H    2.063305  1.448401  6.505591
N    -2.734125  -3.340787  2.394851
C    -2.176693  -3.986037  3.577285
H    -3.372271  -3.890914  1.821518
H    -1.209557  -3.548200  3.847938
H    -2.004318  -5.044213  3.354117
H    -2.857025  -3.921619  4.438584
Cd    1.111406  0.872630  4.066434
