36
Energy: -175309.819738 eV PBE+vdW (tier 2 basis)
C    -0.322159  0.461861  -0.027007
C    -0.465394  0.487939  1.465923
O    0.664740  0.627302  2.158407
H    0.210442  1.363223  -0.357677
H    -1.286294  0.400699  -0.537189
H    0.293394  -0.394997  -0.338568
N    -1.646613  0.433637  2.010284
C    -1.857396  0.462910  3.446305
C    -0.992018  -0.442299  4.330118
O    -0.455864  -1.525043  3.888148
H    -3.358449  0.243076  0.925581
H    -1.663496  1.495718  3.786938
C    -3.361105  0.166632  3.701673
C    -3.801659  -1.170714  3.092854
C    -5.280946  -1.237368  2.702646
N    -5.811465  -0.095832  1.921431
C    -5.435573  0.329316  0.700960
N    -6.360611  0.880539  -0.101844
N    -4.168112  0.229622  0.280439
H    -3.910517  0.999830  3.241265
H    -3.593940  0.207820  4.773608
H    -3.626216  -1.998570  3.794626
H    -3.180910  -1.397449  2.214803
H    -5.905731  -1.262875  3.603810
H    -5.471558  -2.170070  2.151883
H    -6.729814  0.222876  2.213174
H    -6.098523  1.465043  -0.887073
H    -7.350248  0.713818  0.038657
H    -3.972467  0.422332  -0.695135
N    -0.842088  -0.142709  5.617347
C    -1.367766  0.991425  6.376973
H    -0.326118  -0.845248  6.148136
H    -0.707294  1.168884  7.231105
H    -2.378648  0.785793  6.752213
H    -1.388464  1.896255  5.759835
Cd    1.416087  -1.194775  2.848219
