36
Energy: -175310.860102 eV PBE+vdW (tier 2 basis)
C    -1.757258  1.790487  0.157927
C    -1.457412  1.431641  1.584045
O    -1.304058  2.236675  2.486344
H    -2.772103  2.208907  0.107521
H    -1.685156  0.945089  -0.535874
H    -1.072067  2.585124  -0.160164
N    -1.327701  0.048582  1.862022
C    -1.262171  -0.330658  3.258170
C    0.049142  -1.041241  3.591156
O    0.290262  -1.603365  4.734079
H    -1.700544  -0.607682  1.180758
H    -1.157900  0.662670  3.758283
C    -2.571630  -0.954102  3.789349
C    -3.012331  -2.333973  3.244154
C    -3.234094  -3.450885  4.281768
N    -4.129148  -3.095060  5.391165
C    -3.856361  -3.144696  6.717859
N    -4.887197  -3.305693  7.562589
N    -2.606080  -3.016041  7.189929
H    -3.343679  -0.203843  3.571812
H    -2.587650  -0.937601  4.900824
H    -2.279381  -2.729611  2.524368
H    -3.941939  -2.211619  2.672926
H    -2.285795  -3.813224  4.710217
H    -3.653501  -4.330478  3.771604
H    -5.114775  -3.026730  5.152039
H    -4.791763  -3.112920  8.553413
H    -5.778533  -3.678993  7.253995
H    -2.494489  -3.262208  8.170680
N    1.014912  -0.977697  2.704556
C    2.389477  -1.444857  2.874113
H    0.757087  -0.484618  1.846020
H    3.050208  -0.588998  3.063317
H    2.709779  -1.947318  1.955416
H    2.443776  -2.138882  3.715703
Cd    -1.076995  -2.154093  6.131632
