36
Energy: -175308.943188 eV PBE+vdW (tier 2 basis)
C    -0.870119  1.908105  0.638413
C    -0.389314  0.567249  1.001246
O    0.671207  0.137483  0.427691
H    -0.976435  2.536171  1.531812
H    -0.174446  2.359475  -0.074514
H    -1.900616  1.906084  0.146704
N    -0.938143  -0.213549  1.990087
C    -2.303024  -0.701237  2.222868
C    -2.404307  -2.141338  1.637923
O    -1.630969  -2.603082  0.738633
H    -0.232342  -0.808478  2.425527
H    -2.419525  -0.792174  3.315490
C    -3.438085  0.185706  1.681147
C    -3.721405  1.429651  2.535882
C    -4.802415  2.349593  1.914046
N    -4.311807  3.553943  1.249439
C    -3.872552  3.608776  -0.038686
N    -3.871697  4.828673  -0.635017
N    -3.460127  2.487997  -0.611740
H    -4.348592  -0.430679  1.662630
H    -3.258978  0.460502  0.633002
H    -2.812353  2.017180  2.716832
H    -4.071134  1.105534  3.526958
H    -5.471375  2.701077  2.707505
H    -5.419759  1.783375  1.202570
H    -4.477684  4.434823  1.723762
H    -3.447933  4.948082  -1.546392
H    -4.454473  5.589922  -0.304500
H    -3.218421  2.642553  -1.594955
N    -3.375336  -2.908131  2.107467
C    -3.651878  -4.271256  1.640969
H    -3.987520  -2.523152  2.822053
H    -4.384046  -4.723028  2.314890
H    -2.731298  -4.864628  1.652018
H    -4.056190  -4.253978  0.621474
Cd    0.364059  -1.996788  0.038493
