36
Energy: -175310.269052 eV PBE+vdW (tier 2 basis)
C    -0.074669  -0.069507  -0.098519
C    -0.358986  -0.694370  1.245459
O    0.523786  -1.653604  1.508729
H    -0.913171  0.564791  -0.404437
H    0.078565  -0.849806  -0.852966
H    0.855649  0.513972  -0.050842
N    -1.358153  -0.232826  1.946113
C    -1.652896  -0.696081  3.296018
C    -2.484435  -1.998120  3.302035
O    -1.934361  -3.142527  3.513680
H    -1.001850  2.182799  1.412137
H    -0.729814  -0.957909  3.873741
C    -2.335581  0.427842  4.102523
C    -1.492383  1.718667  4.142503
C    -2.241225  2.898656  3.498346
N    -1.385009  4.033746  3.155457
C    -0.720200  4.146136  1.997800
N    -0.108507  5.297460  1.685174
N    -0.667150  3.109250  1.149705
H    -2.549627  0.064059  5.115776
H    -3.309003  0.652279  3.637366
H    -0.545284  1.559071  3.607052
H    -1.222893  1.971695  5.175631
H    -3.024526  3.275599  4.168009
H    -2.750935  2.572702  2.580070
H    -1.260376  4.769091  3.843444
H    0.537220  5.359238  0.907622
H    -0.294056  6.151442  2.197316
H    -0.366575  3.244268  0.192596
N    -3.781621  -1.944331  3.077568
C    -4.670839  -3.107587  3.016450
H    -4.194854  -1.024211  2.953832
H    -5.527820  -2.857044  2.384825
H    -5.024356  -3.371688  4.021292
H    -4.132558  -3.959831  2.591915
Cd    0.128663  -3.028890  2.999986
