36
Energy: -175308.972004 eV PBE+vdW (tier 2 basis)
C    0.133388  -1.158042  0.116156
C    -0.034336  -0.726650  1.537764
O    0.941920  -0.140966  2.104035
H    -0.485854  -0.512441  -0.531248
H    -0.201956  -2.194991  -0.018372
H    1.182463  -1.072783  -0.177061
N    -1.219778  -0.964509  2.132604
C    -1.633195  -0.399893  3.414929
C    -1.035201  -1.162742  4.630644
O    -0.085346  -0.599909  5.282286
H    -1.942665  -1.386014  1.528483
H    -1.130633  0.578106  3.504436
C    -3.142791  -0.039264  3.478367
C    -4.193021  -0.993957  2.868256
C    -5.101841  -0.325075  1.812681
N    -4.390359  0.354370  0.733309
C    -3.491301  -0.195487  -0.144328
N    -3.328882  -1.585415  -0.076138
N    -2.702690  0.454998  -0.943615
H    -3.214783  0.928566  2.962903
H    -3.378717  0.172249  4.529936
H    -4.857231  -1.380967  3.651378
H    -3.726560  -1.879735  2.421713
H    -5.732330  0.434625  2.290463
H    -5.796173  -1.080378  1.407607
H    -4.581159  1.341225  0.597688
H    -2.839956  -1.914658  -0.908435
H    -4.185332  -2.119000  0.068463
H    -2.862071  1.466659  -0.946349
N    -1.441045  -2.344471  5.063815
C    -2.499612  -3.230928  4.584829
H    -0.928299  -2.663266  5.888114
H    -2.267903  -4.242010  4.933229
H    -2.530511  -3.245816  3.492206
H    -3.476049  -2.939451  4.989791
Cd    1.359911  0.533482  4.124571
