36
Energy: -175309.142291 eV PBE+vdW (tier 2 basis)
C    1.986940  0.908314  1.400032
C    1.271228  0.583659  2.672552
O    1.950854  0.599660  3.750384
H    2.289027  1.965316  1.421445
H    1.372598  0.717231  0.514076
H    2.909491  0.317236  1.346640
N    -0.037305  0.296752  2.607134
C    -0.903065  0.067446  3.765862
C    -0.626466  -1.303542  4.430863
O    -0.049668  -1.335197  5.573732
H    -0.481797  0.391256  1.668210
H    -0.624717  0.797157  4.548171
C    -2.390393  0.304771  3.443418
C    -2.788012  1.800755  3.365125
C    -3.796167  2.127392  2.238151
N    -3.157866  2.225616  0.918028
C    -2.541552  1.125890  0.328826
N    -3.308128  0.004904  0.192314
N    -1.272283  1.088160  0.014910
H    -2.985438  -0.184891  4.226875
H    -2.644851  -0.211858  2.510532
H    -1.899110  2.434238  3.217018
H    -3.227264  2.113404  4.322250
H    -4.264896  3.099375  2.433030
H    -4.607543  1.388480  2.208602
H    -2.624385  3.084283  0.795257
H    -2.915718  -0.705507  -0.418380
H    -4.310864  0.132992  0.097564
H    -0.840502  2.014839  0.082278
N    -0.980379  -2.455375  3.884479
C    -1.684390  -2.732803  2.631101
H    -0.746328  -3.266956  4.459480
H    -1.379022  -3.727730  2.291821
H    -1.411126  -2.008420  1.859037
H    -2.771357  -2.731895  2.781336
Cd    1.568513  0.092523  5.821261
