36
Energy: -175311.238424 eV PBE+vdW (tier 2 basis)
C    0.590480  -0.785077  1.103290
C    -0.402168  -0.254109  2.086962
O    -0.153727  0.819383  2.699714
H    0.828723  0.001873  0.375924
H    1.523843  -1.017498  1.634543
H    0.244996  -1.678704  0.572961
N    -1.544829  -0.959739  2.271849
C    -2.633680  -0.558869  3.163998
C    -2.274580  -0.890177  4.631938
O    -1.681791  -0.019585  5.341841
H    -1.642803  -1.829850  1.755056
H    -2.649567  0.535457  3.125204
C    -4.019973  -1.018159  2.671065
C    -4.601843  -0.182499  1.509426
C    -5.216004  1.194468  1.847136
N    -4.231031  2.213084  2.246369
C    -3.825306  2.524782  3.490733
N    -4.476164  2.011134  4.560897
N    -2.716098  3.259919  3.745085
H    -4.713234  -0.994197  3.524952
H    -3.973031  -2.072449  2.353230
H    -5.412453  -0.766587  1.050649
H    -3.849575  -0.058435  0.714289
H    -5.991015  1.106404  2.620520
H    -5.733171  1.576986  0.958102
H    -3.655076  2.583409  1.495177
H    -4.334754  2.497953  5.440918
H    -5.383902  1.575500  4.447325
H    -2.406167  3.794493  2.930520
N    -2.563440  -2.090692  5.109918
C    -2.229544  -2.566264  6.456043
H    -3.059706  -2.737702  4.502373
H    -1.620623  -1.813157  6.960341
H    -1.669836  -3.505494  6.379900
H    -3.149198  -2.740855  7.027394
Cd    -1.174069  1.879133  4.363368
