36
Energy: -175310.112996 eV PBE+vdW (tier 2 basis)
C    0.464733  -3.715301  0.191903
C    0.502290  -2.703084  1.303027
O    1.757930  -2.297520  1.538374
H    0.915372  -3.290731  -0.715037
H    -0.569987  -4.007840  -0.008504
H    1.060387  -4.596307  0.463412
N    -0.618478  -2.342746  1.856336
C    -0.715081  -1.264001  2.815754
C    -0.456736  -1.767200  4.250102
O    0.637546  -1.433131  4.852820
H    -3.418544  4.331853  -0.371770
H    0.067125  -0.473676  2.673758
C    -2.056110  -0.510838  2.631641
C    -2.131590  0.133992  1.241774
C    -3.524478  0.642737  0.850090
N    -4.000412  1.819430  1.594298
C    -3.994328  3.087057  1.157114
N    -4.726514  4.013160  1.794430
N    -3.257718  3.449017  0.098659
H    -2.158123  0.240468  3.430092
H    -2.882453  -1.226007  2.734599
H    -1.392648  0.947670  1.156639
H    -1.853430  -0.627083  0.497228
H    -4.272622  -0.148538  0.997896
H    -3.557331  0.884844  -0.220574
H    -4.455083  1.655527  2.486239
H    -4.599217  5.001664  1.612048
H    -5.486804  3.754331  2.411570
H    -2.568627  2.829170  -0.305579
N    -1.286178  -2.567579  4.895936
C    -2.523826  -3.194347  4.425594
H    -0.963813  -2.830123  5.828227
H    -2.593898  -4.182533  4.892031
H    -2.487022  -3.324010  3.340272
H    -3.401896  -2.607338  4.722902
Cd    2.145177  -1.368780  3.336809
