36
Energy: -175310.759383 eV PBE+vdW (tier 2 basis)
C    0.550144  0.752561  1.153684
C    -0.371764  -0.146226  1.894170
O    0.074612  -0.971572  2.747613
H    1.011715  1.464930  1.853647
H    0.064571  1.284813  0.330911
H    1.376576  0.144310  0.757776
N    -1.720129  -0.108186  1.671018
C    -2.544468  1.104594  1.731076
C    -2.088373  1.921553  2.959798
O    -1.709206  1.318360  4.012631
H    -2.212021  -0.920637  2.063275
H    -2.457651  1.678446  0.799668
C    -4.027770  0.729321  2.009763
C    -4.726468  -0.370673  1.187125
C    -4.337501  -1.863833  1.390982
N    -3.603995  -2.176898  2.638910
C    -4.096896  -2.054711  3.930236
N    -5.420362  -2.001290  4.118799
N    -3.197464  -1.940755  4.900561
H    -4.609013  1.650386  1.865697
H    -4.122662  0.501941  3.083079
H    -4.637727  -0.158520  0.112902
H    -5.794132  -0.257446  1.417161
H    -3.658395  -2.185483  0.592587
H    -5.235730  -2.490518  1.279314
H    -2.952186  -2.955873  2.554015
H    -5.812121  -1.790348  5.031353
H    -6.060392  -2.379281  3.427214
H    -3.546563  -2.059153  5.851224
N    -2.135311  3.246229  2.933612
C    -2.546434  4.115432  1.824821
H    -1.869727  3.697600  3.809018
H    -1.965203  3.905697  0.919055
H    -2.349959  5.149838  2.119081
H    -3.618237  4.017642  1.612761
Cd    -1.414600  -0.881917  4.383736
