36
Energy: -175311.33616 eV PBE+vdW (tier 2 basis)
C    0.108007  -0.091759  0.697674
C    -0.540624  0.063530  2.035325
O    0.004525  0.764903  2.926255
H    0.326229  0.902081  0.286230
H    -0.498073  -0.657826  -0.017518
H    1.074320  -0.597606  0.830950
N    -1.725082  -0.569016  2.244774
C    -2.446466  -0.444608  3.502452
C    -1.846564  -1.351428  4.599822
O    -1.036994  -0.849124  5.446456
H    -2.108378  -1.138151  1.495064
H    -2.219061  0.570306  3.848762
C    -3.976849  -0.442003  3.414763
C    -4.615893  0.830644  2.792613
C    -3.888049  2.190926  2.874730
N    -3.257119  2.482016  4.176591
C    -2.280933  3.420921  4.373165
N    -2.297890  4.530428  3.621409
N    -1.324091  3.159020  5.271176
H    -4.335773  -0.552403  4.448853
H    -4.359030  -1.325370  2.880537
H    -5.615174  0.931229  3.236830
H    -4.793139  0.672240  1.720405
H    -4.627438  2.960055  2.603942
H    -3.085909  2.240495  2.123783
H    -3.624178  2.048412  5.017960
H    -1.500768  5.157591  3.596794
H    -3.157330  4.865898  3.198189
H    -0.783105  3.968657  5.574816
N    -2.171348  -2.631869  4.640840
C    -1.653015  -3.603825  5.609174
H    -2.856656  -2.968675  3.969245
H    -2.417796  -3.825943  6.363961
H    -0.768892  -3.187820  6.097403
H    -1.388353  -4.526099  5.081156
Cd    -0.484599  1.214970  5.100236
