36
Energy: -175310.358387 eV PBE+vdW (tier 2 basis)
C    -0.208083  0.131723  -0.589302
C    -0.021122  0.044763  0.889278
O    1.193595  0.108940  1.330697
H    -0.742082  -0.750855  -0.968888
H    0.765514  0.199614  -1.081070
H    -0.803663  1.019395  -0.847834
N    -1.043237  -0.095877  1.728349
C    -2.481822  -0.129900  1.431035
C    -3.071068  0.836984  2.489762
O    -2.397977  1.013101  3.526414
H    -0.957611  0.231937  2.716842
H    -2.647993  0.235646  0.411589
C    -3.104518  -1.553456  1.565745
C    -3.495753  -2.023632  2.991767
C    -2.702222  -3.178742  3.630113
N    -1.233662  -3.044228  3.639947
C    -0.480029  -2.230036  4.387575
N    -1.022428  -1.247478  5.115975
N    0.891204  -2.322054  4.413210
H    -2.421468  -2.265570  1.080015
H    -4.008807  -1.550705  0.943991
H    -4.532879  -2.385328  2.968125
H    -3.528118  -1.167644  3.679516
H    -2.900368  -4.113543  3.092831
H    -3.048606  -3.330509  4.662830
H    -0.720302  -3.672538  3.030477
H    -0.462636  -0.823199  5.847897
H    -1.971586  -0.909854  4.989906
H    1.242424  -3.262168  4.217952
N    -4.271189  1.385996  2.292296
C    -5.171508  1.247766  1.148865
H    -4.591682  1.966115  3.067196
H    -5.702220  2.194044  1.002300
H    -5.911715  0.453957  1.316197
H    -4.614151  1.034552  0.231006
Cd    1.628447  -0.865563  3.116405
