36
Energy: -175308.742208 eV PBE+vdW (tier 2 basis)
C    -1.015671  0.126640  -0.398253
C    -0.581280  -0.000464  1.020358
O    0.656483  -0.134780  1.290215
H    -2.066300  -0.138823  -0.554134
H    -0.367048  -0.509926  -1.013676
H    -0.846720  1.159457  -0.742743
N    -1.479684  0.030281  2.034746
C    -2.558737  1.014585  2.142988
C    -1.892781  2.375626  2.454184
O    -0.742255  2.430180  3.018394
H    -1.084760  -0.245157  2.936166
H    -3.101732  1.070443  1.186673
C    -3.525459  0.635617  3.290204
C    -4.137504  -0.779481  3.272241
C    -5.375902  -1.048536  2.390796
N    -5.118298  -1.318905  0.982524
C    -5.000654  -0.372770  0.008453
N    -4.573722  -0.787205  -1.225037
N    -5.169800  0.921497  0.191990
H    -4.322123  1.392177  3.330051
H    -2.972654  0.749477  4.237059
H    -4.455957  -0.983547  4.304658
H    -3.369558  -1.535250  3.048161
H    -6.104361  -0.228480  2.481042
H    -5.883837  -1.937670  2.784580
H    -4.986474  -2.293238  0.726741
H    -4.760109  -0.131450  -1.978426
H    -4.650829  -1.765190  -1.485905
H    -5.669209  1.098163  1.068946
N    -2.520394  3.511165  2.196829
C    -3.847433  3.726972  1.615080
H    -2.010926  4.344354  2.496629
H    -3.815810  4.653667  1.032846
H    -4.601469  3.839332  2.405530
H    -4.122397  2.905646  0.944304
Cd    1.190107  1.382868  2.814143
