36
Energy: -175310.981076 eV PBE+vdW (tier 2 basis)
C    -1.921890  -2.307162  1.163577
C    -1.371797  -1.207596  2.005423
O    -0.394118  -1.501670  2.816701
H    -1.122224  -2.770918  0.571806
H    -2.730133  -1.972185  0.506077
H    -2.310061  -3.088474  1.834599
N    -1.915735  -0.011629  1.947707
C    -1.786972  1.140696  2.842605
C    -3.048164  1.989135  2.447955
O    -3.605525  1.722627  1.378603
H    -2.704841  0.189946  1.290636
H    -1.874275  0.791034  3.882558
C    -0.490875  1.970572  2.700181
C    -0.092420  2.399733  1.272835
C    1.283596  1.917036  0.799429
N    2.398513  2.373900  1.643596
C    3.377942  1.633539  2.211095
N    4.549262  2.239805  2.467206
N    3.205891  0.341943  2.538627
H    0.347300  1.435468  3.196091
H    -0.605380  2.852427  3.344796
H    -0.123509  3.495067  1.198651
H    -0.827613  2.043149  0.537016
H    1.461249  2.271058  -0.226927
H    1.330336  0.818100  0.728203
H    2.584180  3.372743  1.601594
H    5.226918  1.831710  3.101312
H    4.824483  3.092884  1.992318
H    4.069239  -0.149118  2.759863
N    -3.409639  2.963269  3.291953
C    -4.563141  3.835946  3.058238
H    -2.947395  3.029220  4.193409
H    -4.288929  4.874083  3.274673
H    -5.403839  3.541241  3.698661
H    -4.861764  3.744614  2.010804
Cd    1.416537  -0.607627  2.833912
