36
Energy: -175309.21767 eV PBE+vdW (tier 2 basis)
C    -0.221344  -1.146356  0.098921
C    -0.183038  -0.854056  1.566920
O    0.917785  -1.043298  2.178490
H    -0.802874  -2.071852  -0.060584
H    0.793899  -1.285948  -0.280490
H    -0.711098  -0.333994  -0.454261
N    -1.325434  -0.431306  2.131445
C    -1.731444  -0.347750  3.551008
C    -1.136892  0.880580  4.267064
O    0.060453  0.941351  4.697798
H    -2.145317  -0.487809  1.514102
H    -2.809149  -0.151722  3.475887
C    -1.553336  -1.677141  4.336104
C    -2.852500  -2.244175  4.935054
C    -3.980547  -2.561905  3.924709
N    -3.558895  -3.398916  2.813175
C    -3.297489  -3.002554  1.523081
N    -3.832423  -1.769330  1.115926
N    -2.540562  -3.627005  0.676910
H    -0.843662  -1.544136  5.170275
H    -1.110122  -2.421513  3.660981
H    -3.266954  -1.559499  5.690972
H    -2.591762  -3.162711  5.480367
H    -4.420000  -1.641312  3.523228
H    -4.790458  -3.068905  4.469665
H    -3.248825  -4.339895  3.041538
H    -3.796265  -1.718895  0.096770
H    -4.784192  -1.589788  1.434333
H    -2.173411  -4.517244  1.025684
N    -1.937837  1.913901  4.469139
C    -1.524942  3.150479  5.143544
H    -2.894021  1.855730  4.131572
H    -2.397324  3.802565  5.230486
H    -0.745357  3.657003  4.561930
H    -1.135734  2.922136  6.142309
Cd    1.593770  -0.471171  4.131421
