36
Energy: -175309.071981 eV PBE+vdW (tier 2 basis)
C    -2.044927  1.614615  -0.047537
C    -1.433577  1.440215  1.300824
O    -0.265274  1.928590  1.498714
H    -2.453641  2.635613  -0.108461
H    -2.871211  0.898079  -0.227360
H    -1.279717  1.521922  -0.825421
N    -2.149467  0.819554  2.244630
C    -1.984141  0.886295  3.705512
C    -1.030752  -0.219563  4.220386
O    -0.096383  -0.633344  3.448884
H    -3.077003  0.465366  1.940500
H    -1.443848  1.825884  3.928898
C    -3.388310  1.010372  4.338867
C    -4.339085  -0.210851  4.261416
C    -5.399697  -0.171239  3.152249
N    -4.803239  -0.347631  1.828110
C    -5.400294  0.042834  0.620532
N    -6.594627  0.682840  0.678211
N    -4.689051  -0.211394  -0.443450
H    -3.859843  1.882873  3.863111
H    -3.259553  1.307306  5.384360
H    -4.891713  -0.272260  5.208709
H    -3.775328  -1.155962  4.189961
H    -5.904178  0.805323  3.176253
H    -6.160913  -0.942996  3.355840
H    -4.318522  -1.235054  1.688956
H    -7.230254  0.572644  1.460758
H    -7.006862  1.027649  -0.181819
H    -5.155524  0.057614  -1.314815
N    -1.060989  -0.739788  5.442909
C    -1.907787  -0.525892  6.623494
H    -0.299212  -1.407136  5.575699
H    -1.438901  -1.061386  7.453687
H    -2.914012  -0.934146  6.482045
H    -1.959066  0.534697  6.889250
Cd    1.257131  0.715445  2.403361
