36
Energy: -175309.25911 eV PBE+vdW (tier 2 basis)
C    0.300421  0.168204  0.259873
C    0.091776  0.667080  1.654925
O    0.995550  1.380309  2.180145
H    -0.517511  -0.466446  -0.097682
H    1.245194  -0.388405  0.213375
H    0.405650  1.032897  -0.409902
N    -1.056233  0.337365  2.278236
C    -1.512642  0.868984  3.560624
C    -0.806367  0.170832  4.751288
O    0.139004  0.788164  5.348837
H    -1.718505  -0.224752  1.750190
H    -1.129645  1.898914  3.624285
C    -3.064372  0.977205  3.667414
C    -3.912676  0.156379  2.687197
C    -5.385752  0.135539  3.148330
N    -6.233884  -0.723446  2.343030
C    -6.290043  -2.080154  2.525216
N    -7.269901  -2.753049  1.867276
N    -5.378963  -2.623075  3.308365
H    -3.316702  2.038883  3.547104
H    -3.347555  0.728366  4.700490
H    -3.593927  -0.894653  2.635620
H    -3.858264  0.580607  1.673091
H    -5.812448  1.146515  3.114104
H    -5.430690  -0.210787  4.190171
H    -6.879681  -0.287268  1.695101
H    -7.326524  -3.760465  1.944282
H    -8.053445  -2.287146  1.424011
H    -5.533724  -3.630910  3.407371
N    -1.138255  -1.030700  5.200254
C    -2.172963  -1.962513  4.747017
H    -0.575295  -1.329077  5.997869
H    -1.966763  -2.931755  5.209391
H    -2.139384  -2.092777  3.660947
H    -3.178890  -1.645254  5.045395
Cd    1.452790  2.112676  4.202671
