36
Energy: -175310.44174 eV PBE+vdW (tier 2 basis)
C    -0.336016  -0.457557  -0.550347
C    -0.142162  -0.233438  0.912459
O    1.074268  -0.085423  1.328940
H    0.610721  -0.291440  -1.071486
H    -1.104453  0.209893  -0.961296
H    -0.655116  -1.494643  -0.735462
N    -1.168106  -0.182917  1.755950
C    -2.579185  -0.514450  1.516942
C    -3.386112  0.429546  2.431392
O    -2.869694  0.808669  3.500751
H    -1.012583  0.186856  2.702049
H    -2.803804  -0.315742  0.462880
C    -2.872832  -2.024790  1.813347
C    -3.539244  -2.472863  3.133631
C    -2.872579  -2.225262  4.505232
N    -1.425372  -2.486088  4.518977
C    -0.448952  -1.610314  4.758910
N    -0.706939  -0.277767  4.891892
N    0.868403  -1.941696  4.776391
H    -1.927037  -2.567300  1.665786
H    -3.533118  -2.386065  1.013503
H    -3.702721  -3.554826  3.020355
H    -4.548978  -2.042979  3.210977
H    -3.038642  -1.201868  4.848939
H    -3.343977  -2.886190  5.245473
H    -1.131502  -3.433506  4.290162
H    -0.155390  0.219304  5.586444
H    -1.634276  0.113973  4.669191
H    1.091630  -2.932195  4.878483
N    -4.624755  0.767730  2.063427
C    -5.324736  0.431341  0.821515
H    -5.102790  1.377497  2.725216
H    -6.344905  0.818231  0.893343
H    -5.392316  -0.653787  0.675053
H    -4.849664  0.898715  -0.051119
Cd    1.642743  -0.775758  3.216932
