36
Energy: -175310.404414 eV PBE+vdW (tier 2 basis)
C    -0.072424  0.611473  0.185737
C    -0.404444  -0.047749  1.501774
O    0.138569  -1.195088  1.693370
H    -0.041472  1.701694  0.249474
H    -0.837318  0.325508  -0.551536
H    0.884640  0.221524  -0.174124
N    -1.177691  0.453983  2.473494
C    -2.439306  1.174538  2.399796
C    -3.569853  0.096794  2.215605
O    -3.428663  -1.076939  2.677520
H    2.768052  5.048312  -0.916877
H    -2.623134  1.528309  3.431781
C    -2.526821  2.441755  1.518800
C    -1.862778  3.680483  2.157445
C    -0.334733  3.794368  2.157865
N    0.168069  4.219661  0.839885
C    1.467469  4.368172  0.527318
N    2.414744  4.071902  1.424928
N    1.817045  4.772217  -0.701705
H    -3.584122  2.723020  1.412988
H    -2.168412  2.252770  0.499034
H    -2.184637  3.744190  3.207110
H    -2.276395  4.586202  1.685512
H    0.130197  2.834615  2.427158
H    -0.048354  4.540828  2.916430
H    -0.498367  4.692623  0.236187
H    3.397071  4.092255  1.176282
H    2.193449  3.964382  2.406697
H    1.132020  4.884565  -1.438997
N    -4.716564  0.421737  1.635266
C    -5.849662  -0.503043  1.518691
H    -4.832531  1.359677  1.271087
H    -6.644356  -0.005443  0.957226
H    -6.221205  -0.778130  2.512862
H    -5.542574  -1.412949  0.990970
Cd    -1.351611  -1.597973  3.326303
