36
Energy: -175308.625084 eV PBE+vdW (tier 2 basis)
C    -2.155289  2.176395  0.334007
C    -0.878247  1.913346  1.061170
O    0.172154  2.528920  0.705805
H    -3.007112  2.284809  1.012940
H    -2.363489  1.347437  -0.361465
H    -2.036359  3.083923  -0.265965
N    -0.806189  1.044737  2.107247
C    -1.373430  -0.311384  2.176888
C    -0.700284  -1.164125  1.060222
O    0.270067  -0.720587  0.375748
H    0.071324  1.137897  2.617845
H    -0.988760  -0.716170  3.126949
C    -2.912262  -0.392325  2.246354
C    -3.493268  0.425728  3.407152
C    -5.029917  0.345104  3.518845
N    -5.748209  0.876771  2.365893
C    -5.830990  2.190984  1.982286
N    -5.337200  3.146014  2.824543
N    -6.270209  2.593349  0.811504
H    -3.187928  -1.448198  2.394365
H    -3.358675  -0.092376  1.288921
H    -3.182624  1.476370  3.320631
H    -3.082398  0.065013  4.362433
H    -5.350919  0.862576  4.436928
H    -5.352756  -0.696955  3.638330
H    -6.246791  0.221927  1.773836
H    -5.528507  4.099221  2.527304
H    -5.326552  2.993668  3.827381
H    -6.682227  1.838928  0.252031
N    -1.138854  -2.398252  0.858058
C    -0.535522  -3.331533  -0.100453
H    -1.929311  -2.727653  1.402878
H    -1.026139  -4.301815  0.009503
H    0.535950  -3.440328  0.102016
H    -0.672072  -2.968821  -1.126090
Cd    1.730476  1.003728  0.206380
