36
Energy: -175310.747252 eV PBE+vdW (tier 2 basis)
C    -0.076619  0.055713  -0.262185
C    -0.209295  -0.792269  0.957445
O    0.849722  -1.405111  1.402104
H    0.737969  0.781099  -0.142136
H    0.212940  -0.601124  -1.097191
H    -1.005549  0.569459  -0.529531
N    -1.395184  -0.936600  1.515519
C    -1.879480  -1.939491  2.472274
C    -3.432031  -1.787172  2.341230
O    -3.866312  -0.734312  1.860748
H    -2.221139  -0.412661  1.156530
H    -1.552914  -2.928565  2.116195
C    -1.440634  -1.803830  3.948220
C    -1.884970  -0.586415  4.773125
C    -1.374201  0.803463  4.391743
N    0.117031  0.893012  4.282909
C    0.938206  0.639851  5.437293
N    0.622825  1.164163  6.616407
N    1.962210  -0.144197  5.177778
H    -0.346959  -1.961442  4.021975
H    -1.834520  -2.693815  4.460414
H    -1.626348  -0.795481  5.822549
H    -2.983149  -0.521387  4.758923
H    -1.769168  1.538940  5.111273
H    -1.749375  1.108288  3.407743
H    0.376622  1.802686  3.886545
H    -0.123900  1.846290  6.705267
H    1.160651  0.966521  7.456445
H    2.663632  -0.317015  5.899804
N    -4.178431  -2.799612  2.799828
C    -5.642449  -2.801781  2.755110
H    -3.717728  -3.658439  3.084727
H    -6.000013  -3.502637  1.990653
H    -5.983723  -1.793950  2.505213
H    -6.043002  -3.096528  3.731415
Cd    1.595325  -0.852757  3.224373
