36
Energy: -175309.406415 eV PBE+vdW (tier 2 basis)
C    -1.126585  1.028042  0.126823
C    -1.184451  1.165330  1.614302
O    -0.979687  2.335183  2.092557
H    -1.829939  1.742406  -0.322014
H    -1.376197  0.017556  -0.210632
H    -0.123169  1.302664  -0.224776
N    -1.454149  0.082877  2.349217
C    -1.726623  0.078226  3.784985
C    -0.431664  0.149129  4.637295
O    -0.190908  1.243054  5.297441
H    -1.572587  -0.828859  1.873667
H    -2.237299  1.033994  4.005714
C    -2.798346  -0.966848  4.190332
C    -2.525363  -2.477921  4.196882
C    -2.523109  -3.257428  2.869885
N    -1.567435  -2.821787  1.827334
C    -0.191326  -2.867892  2.049368
N    0.586313  -2.432153  1.018312
N    0.376658  -3.128206  3.200187
H    -3.677675  -0.745087  3.564876
H    -3.090951  -0.689730  5.213712
H    -3.353186  -2.921548  4.770340
H    -1.637823  -2.693195  4.804174
H    -3.514882  -3.173345  2.406626
H    -2.379210  -4.325651  3.099705
H    -1.862229  -3.099947  0.890961
H    1.570630  -2.674140  1.079469
H    0.210708  -2.356428  0.079868
H    -0.249790  -3.669481  3.799571
N    0.412354  -0.845358  4.716679
C    1.655421  -0.785725  5.490820
H    0.309991  -1.729647  4.115203
H    2.258549  -1.653601  5.210836
H    1.436076  -0.824197  6.565348
H    2.202611  0.140705  5.280135
Cd    -0.708208  2.940097  4.131220
