36
Energy: -175310.952171 eV PBE+vdW (tier 2 basis)
C    0.928874  0.289466  0.274630
C    0.652167  0.109639  1.731520
O    1.625193  0.145220  2.543242
H    1.607018  -0.507679  -0.059223
H    1.458420  1.239977  0.126351
H    0.024186  0.277815  -0.342332
N    -0.632072  -0.077641  2.114675
C    -1.032491  -0.202415  3.515070
C    -0.750125  -1.633179  4.034860
O    0.303474  -1.819262  4.715155
H    -1.338873  -0.086874  1.384305
H    -0.294030  0.410999  4.045359
C    -2.366554  0.453302  3.928119
C    -2.253197  0.991170  5.375384
C    -1.371934  2.261816  5.442564
N    -0.568464  2.497658  6.659716
C    0.694332  2.017083  6.798767
N    1.655187  2.804956  7.293172
N    0.989185  0.743358  6.468683
H    -3.213772  -0.236138  3.850723
H    -2.578349  1.284075  3.237557
H    -1.860862  0.202763  6.035491
H    -3.256125  1.213620  5.759398
H    -2.010699  3.145457  5.326633
H    -0.675277  2.289148  4.588524
H    -0.811734  3.322290  7.202499
H    1.539068  3.808021  7.388758
H    2.488468  2.384874  7.691859
H    0.158765  0.160584  6.590517
N    -1.548883  -2.659932  3.769924
C    -2.780609  -2.726255  2.984164
H    -1.222865  -3.540078  4.172553
H    -3.664302  -2.721978  3.635511
H    -2.774779  -3.659802  2.411034
H    -2.846622  -1.897471  2.274830
Cd    1.790064  -0.125313  4.701505
