36
Energy: -175311.735899 eV PBE+vdW (tier 2 basis)
C    1.267472  0.546623  0.257156
C    0.846958  0.248594  1.664212
O    1.596349  -0.453531  2.391340
H    1.461000  -0.402336  -0.260279
H    2.218580  1.095298  0.281132
H    0.532623  1.123788  -0.313401
N    -0.337886  0.748969  2.067416
C    -1.117498  0.585925  3.312462
C    -0.471139  1.296795  4.510096
O    0.707437  1.049905  4.920773
H    -0.816666  1.298836  1.360515
H    -2.022038  1.157862  3.080000
C    -1.671051  -0.844412  3.634122
C    -0.945749  -1.840456  4.566994
C    -0.070144  -2.917338  3.884994
N    0.587741  -3.806809  4.837659
C    1.831221  -3.673938  5.358894
N    2.324827  -4.731900  6.033197
N    2.544650  -2.554258  5.226249
H    -1.887084  -1.317667  2.664716
H    -2.655297  -0.657467  4.084238
H    -1.723450  -2.379056  5.126991
H    -0.391141  -1.315331  5.365010
H    0.684495  -2.502766  3.200797
H    -0.710090  -3.543370  3.248542
H    0.054066  -4.609910  5.152379
H    1.937847  -5.661900  5.924013
H    3.167668  -4.651182  6.588264
H    3.513670  -2.656727  5.516988
N    -1.179721  2.212368  5.160673
C    -2.523677  2.726183  4.870598
H    -0.689019  2.625365  5.954519
H    -3.270458  1.923335  4.876743
H    -2.548488  3.263362  3.914101
H    -2.786931  3.433938  5.661468
Cd    1.884923  -0.694796  4.543431
