36
Energy: -175309.924036 eV PBE+vdW (tier 2 basis)
C    0.082692  0.585667  0.691968
C    -0.041883  0.308511  2.164630
O    1.059907  0.681977  2.816994
H    -0.819338  0.244928  0.175267
H    0.966520  0.079916  0.283447
H    0.221322  1.662214  0.525433
N    -1.150296  -0.214737  2.611216
C    -1.381422  -0.383148  4.021178
C    -0.696881  -1.651261  4.593586
O    0.217105  -1.504859  5.493201
H    -7.071842  0.760609  0.610649
H    -0.900132  0.427827  4.630874
C    -2.876332  -0.176452  4.403885
C    -3.951204  -0.869048  3.562330
C    -5.378081  -0.407260  3.904218
N    -5.700761  0.981084  3.541296
C    -6.325121  1.376887  2.422324
N    -6.850498  2.609129  2.354581
N    -6.427929  0.559603  1.366552
H    -3.019268  0.912890  4.326996
H    -2.999938  -0.430592  5.468459
H    -3.943424  -1.952933  3.733552
H    -3.735025  -0.709050  2.495323
H    -5.560933  -0.496173  4.983896
H    -6.115320  -1.062672  3.420657
H    -5.536034  1.698157  4.239365
H    -7.153677  3.004369  1.472269
H    -7.039172  3.150849  3.189444
H    -5.885358  -0.290974  1.299325
N    -0.951589  -2.883631  4.187142
C    -1.786480  -3.354177  3.083701
H    -0.392959  -3.591223  4.667139
H    -2.696165  -3.837823  3.460001
H    -1.209749  -4.096115  2.519025
H    -2.025499  -2.520251  2.419925
Cd    1.338487  0.212756  4.820210
