36
Energy: -175309.28345 eV PBE+vdW (tier 2 basis)
C    2.134248  0.080229  0.230342
C    1.358480  0.572112  1.413401
O    2.025549  1.162309  2.331841
H    2.558111  0.944082  -0.300511
H    1.518510  -0.503402  -0.462132
H    2.981898  -0.520039  0.585149
N    0.041070  0.365675  1.407550
C    -0.960042  0.513921  2.485076
C    -1.336592  1.992224  2.730666
O    -0.651694  2.789942  3.451097
H    -0.295909  -0.281916  0.658304
H    -1.854633  0.056414  2.044816
C    -0.641657  -0.272650  3.790373
C    -1.784359  -1.195136  4.269388
C    -1.806952  -2.622813  3.666530
N    -1.974816  -2.680977  2.219034
C    -0.965598  -2.529910  1.294400
N    0.293812  -2.912368  1.681383
N    -1.101773  -1.939731  0.130590
H    -0.431734  0.436379  4.614608
H    0.273930  -0.858631  3.636162
H    -2.757404  -0.704295  4.107057
H    -1.702299  -1.327786  5.357502
H    -2.641155  -3.173064  4.121916
H    -0.894963  -3.159825  3.954461
H    -2.909968  -2.499865  1.865602
H    0.938777  -2.994474  0.900428
H    0.372951  -3.676538  2.345170
H    -2.079833  -1.752316  -0.108224
N    -2.450429  2.435729  2.173669
C    -2.940476  3.813541  2.303180
H    -2.996511  1.789162  1.611893
H    -3.883624  3.895479  1.757668
H    -2.210834  4.515217  1.881907
H    -3.104657  4.057484  3.359186
Cd    1.368716  2.288094  4.014759
