36
Energy: -175310.243882 eV PBE+vdW (tier 2 basis)
C    -0.279176  0.911325  -0.530404
C    0.325472  1.588959  0.656094
O    0.689005  2.809587  0.522557
H    -0.560697  -0.129185  -0.337286
H    0.417764  0.957655  -1.376908
H    -1.175785  1.474444  -0.827604
N    0.442937  0.897809  1.797640
C    0.664928  1.390874  3.178709
C    2.137892  1.304458  3.620930
O    3.059937  1.922883  2.880828
H    0.156002  -0.076232  1.737212
H    0.412659  2.467136  3.156863
C    -0.379753  0.729927  4.104022
C    -0.479238  -0.814912  4.122998
C    0.175495  -1.563111  5.293630
N    -0.394923  -1.231978  6.602298
C    0.207963  -0.516840  7.565549
N    -0.302841  -0.527263  8.807843
N    1.291607  0.211985  7.288564
H    -1.351926  1.133157  3.789697
H    -0.220279  1.126896  5.115020
H    -0.051717  -1.271568  3.215261
H    -1.543589  -1.087277  4.095014
H    1.253759  -1.377148  5.323916
H    0.039485  -2.642718  5.143094
H    -1.291456  -1.647397  6.835173
H    0.024217  0.117936  9.516186
H    -0.973239  -1.227734  9.100001
H    1.621778  0.350941  6.313127
N    2.474653  0.662193  4.680937
C    3.878484  0.655341  5.093158
H    1.846706  0.597212  8.042636
H    3.964610  0.160368  6.067086
H    4.297270  1.669320  5.160125
H    4.492589  0.090891  4.377137
Cd    2.488215  3.374742  1.520001
