36
Energy: -175309.403604 eV PBE+vdW (tier 2 basis)
C    0.499048  0.045699  0.207749
C    0.309507  -0.092204  1.685044
O    1.336888  -0.215271  2.414476
H    1.085351  0.954322  0.012285
H    -0.444954  0.100967  -0.344841
H    1.091671  -0.801790  -0.159868
N    -0.947935  -0.070961  2.168995
C    -1.314332  -0.022819  3.586179
C    -1.162463  -1.409520  4.259827
O    -0.183054  -1.608179  5.056356
H    -1.694159  0.068615  1.492631
H    -0.561874  0.604160  4.096455
C    -2.678049  0.649436  3.790544
C    -3.026754  0.838211  5.279505
C    -4.537217  0.781262  5.581652
N    -5.355071  1.713678  4.822848
C    -6.115614  1.335861  3.744408
N    -7.076375  2.208211  3.341031
N    -5.837274  0.182092  3.172493
H    -3.477398  0.088395  3.284540
H    -2.635079  1.627584  3.290260
H    -2.603137  1.784486  5.645360
H    -2.572378  0.045819  5.896684
H    -4.689115  0.987322  6.650054
H    -4.922202  -0.224877  5.380375
H    -5.505378  2.637652  5.214487
H    -7.629001  2.000785  2.519041
H    -7.419048  2.952524  3.937867
H    -6.494650  -0.020877  2.413767
N    -2.014041  -2.404428  4.058704
C    -3.214166  -2.477595  3.218637
H    -1.775836  -3.248491  4.581450
H    -3.452687  -3.536411  3.082574
H    -3.028997  -2.043287  2.231045
H    -4.074327  -1.978050  3.681549
Cd    1.727074  -0.674789  4.527375
