36
Energy: -175309.31165 eV PBE+vdW (tier 2 basis)
C    -2.298144  1.344746  0.760564
C    -1.584734  0.764570  1.938504
O    -0.365185  1.103378  2.099205
H    -1.931197  2.363395  0.589996
H    -3.391755  1.360114  0.878515
H    -2.034694  0.757732  -0.132797
N    -2.254607  -0.072893  2.743822
C    -1.815334  -0.609323  4.039278
C    -0.958220  -1.882431  3.848448
O    0.292353  -1.805112  3.608292
H    -3.249556  -0.257601  2.508645
H    -1.136121  0.127982  4.503419
C    -3.022913  -0.786983  4.974326
C    -3.694935  0.540358  5.417390
C    -5.216534  0.670236  5.137569
N    -5.560657  1.422957  3.935905
C    -5.488284  1.018478  2.631854
N    -5.233470  -0.349067  2.408772
N    -5.542637  1.777211  1.582149
H    -2.672787  -1.325743  5.864760
H    -3.765603  -1.438523  4.488148
H    -3.190665  1.404574  4.961399
H    -3.550442  0.649207  6.499230
H    -5.686242  1.205873  5.970333
H    -5.695939  -0.320640  5.118477
H    -5.768976  2.408283  4.066368
H    -5.468363  -0.567310  1.438865
H    -5.737864  -0.977584  3.034280
H    -5.700337  2.766755  1.795940
N    -1.522594  -3.072839  3.930215
C    -0.798549  -4.337637  3.749740
H    -2.509968  -3.118898  4.163553
H    -1.510665  -5.159475  3.855610
H    -0.012206  -4.434071  4.507722
H    -0.342212  -4.372755  2.753891
Cd    1.239101  0.082509  3.110994
