36
Energy: -175310.605382 eV PBE+vdW (tier 2 basis)
C    -1.350796  -2.754933  0.592629
C    -0.831391  -2.137306  1.846616
O    0.289108  -2.561021  2.303885
H    -0.763929  -3.647169  0.359059
H    -2.412011  -3.021619  0.677806
H    -1.245609  -2.041606  -0.239596
N    -1.522235  -1.174802  2.471524
C    -2.735604  -0.488237  2.008468
C    -2.403187  0.442322  0.809573
O    -1.269222  0.934615  0.676580
H    -1.178527  -0.891249  3.386479
H    -3.442396  -1.262916  1.676409
C    -3.418371  0.271586  3.180379
C    -3.018119  1.718388  3.538545
C    -1.681368  1.987306  4.248559
N    -0.557245  1.944184  3.305603
C    0.517008  1.172270  3.371302
N    1.170282  0.841324  2.156630
N    0.991694  0.519472  4.427861
H    -3.365161  -0.372471  4.073338
H    -4.487581  0.307278  2.931896
H    -3.797674  2.085391  4.221379
H    -3.094200  2.369976  2.653101
H    -1.495399  1.258714  5.050893
H    -1.709998  2.979133  4.719588
H    -0.734251  2.367283  2.394401
H    2.061983  1.323633  2.019792
H    0.537525  0.925193  1.343705
H    0.689700  0.788030  5.363899
N    -3.430351  0.688288  -0.013195
C    -3.369032  1.592412  -1.161842
H    -4.312800  0.214466  0.158699
H    -2.348659  1.972302  -1.253846
H    -4.063007  2.430256  -1.022512
H    -3.641037  1.052237  -2.076178
Cd    1.568081  -1.282641  3.417125
