36
Energy: -175310.609984 eV PBE+vdW (tier 2 basis)
C    -0.507642  1.296824  2.130776
C    -1.920528  1.677890  2.492090
O    -2.211346  2.877298  2.534388
H    -3.914667  3.639491  -3.019856
H    -0.396481  0.995971  1.080169
H    0.151723  2.143931  2.332946
N    -2.901214  0.753746  2.845366
C    -3.275786  -0.551720  2.264459
C    -2.774103  -1.778105  3.063959
O    -1.584180  -1.948056  3.468402
H    -3.694356  1.255359  3.241794
H    -4.370744  -0.581699  2.372012
C    -2.966330  -0.664049  0.749398
C    -4.047871  -0.079368  -0.185762
C    -4.602250  1.334969  0.068251
N    -3.645510  2.443187  -0.006225
C    -3.459744  3.263026  -1.050621
N    -2.789677  4.408849  -0.862200
N    -3.914639  2.955507  -2.272595
H    -2.854137  -1.725151  0.485705
H    -1.991495  -0.208069  0.538638
H    -4.923873  -0.746803  -0.168917
H    -3.653832  -0.141822  -1.211453
H    -5.075707  1.402687  1.057151
H    -5.418835  1.521834  -0.643877
H    -3.228842  2.752750  0.877412
H    -2.496260  4.987783  -1.639647
H    -2.577571  4.741949  0.071449
H    -4.317701  2.051766  -2.479198
N    -3.671947  -2.729190  3.293689
C    -3.362078  -3.992102  3.971158
H    -4.632893  -2.570987  3.007145
H    -4.238644  -4.641643  3.908034
H    -3.119064  -3.809976  5.025108
H    -2.508365  -4.479570  3.487705
Cd    -0.005112  -0.479651  3.239826
