36
Energy: -175311.441044 eV PBE+vdW (tier 2 basis)
C    0.452158  1.004856  -0.218986
C    -0.121174  0.583022  1.099549
O    0.505200  -0.233568  1.818056
H    -0.206228  1.657944  -0.801207
H    0.689638  0.109913  -0.808379
H    1.403238  1.524245  -0.036818
N    -1.315329  1.113621  1.448685
C    -2.133196  0.908172  2.660094
C    -1.415127  1.454946  3.920738
O    -0.511728  0.818999  4.551711
H    -1.704446  1.771796  0.780709
H    -2.997623  1.561124  2.485669
C    -2.715823  -0.512594  2.914959
C    -3.057810  -1.393762  1.693194
C    -2.126630  -2.601743  1.463933
N    -2.100670  -3.540651  2.595251
C    -1.166889  -3.576429  3.568916
N    -1.481573  -4.109934  4.759746
N    0.091250  -3.087754  3.415295
H    -3.621975  -0.342414  3.511894
H    -2.068448  -1.081135  3.601721
H    -3.060679  -0.803292  0.765877
H    -4.086146  -1.762904  1.805515
H    -1.101255  -2.278274  1.253462
H    -2.462589  -3.156333  0.578832
H    -2.918902  -4.135919  2.705414
H    -0.725988  -4.428473  5.357511
H    -2.423382  -4.402701  4.995810
H    0.377675  -3.136963  2.434215
N    -1.783967  2.649595  4.355063
C    -1.194721  3.312193  5.523984
H    -2.515901  3.141865  3.851231
H    -1.740659  4.241416  5.704206
H    -0.137542  3.538101  5.339628
H    -1.273772  2.663321  6.403580
Cd    0.303441  -1.042023  3.888422
