36
Energy: -175309.17204 eV PBE+vdW (tier 2 basis)
C    0.820157  0.643793  0.359630
C    0.406508  0.167165  1.719348
O    1.252517  -0.459485  2.416874
H    0.013894  1.124314  -0.204682
H    1.201432  -0.213708  -0.210860
H    1.656746  1.347110  0.468442
N    -0.859887  0.430261  2.103842
C    -1.625092  -0.017018  3.287729
C    -1.242516  0.777995  4.552161
O    -0.127014  0.658201  5.141413
H    -1.392681  0.978937  1.436015
H    -2.661479  0.258095  3.048684
C    -1.598103  -1.539540  3.546937
C    -2.095608  -2.431849  2.400357
C    -3.625371  -2.406279  2.182729
N    -4.093992  -3.432945  1.271614
C    -4.328104  -4.737930  1.633108
N    -4.717757  -5.598077  0.658444
N    -4.186464  -5.247027  2.839105
H    -2.200746  -1.717482  4.451626
H    -0.576944  -1.861373  3.804380
H    -1.803253  -3.464525  2.637974
H    -1.580886  -2.184845  1.459964
H    -3.957074  -1.443045  1.770101
H    -4.146659  -2.520192  3.146145
H    -4.151364  -3.190691  0.287803
H    -4.928082  -6.547273  0.948885
H    -5.009611  -5.305558  -0.266015
H    -3.962195  -4.542377  3.546582
N    -2.153140  1.606184  5.046547
C    -1.951023  2.406514  6.259300
H    -3.036675  1.705951  4.556164
H    -1.196202  3.182612  6.082890
H    -1.616686  1.763324  7.080731
H    -2.901236  2.876485  6.524741
Cd    1.619470  -0.552895  4.578864
