36
Energy: -175308.814284 eV PBE+vdW (tier 2 basis)
C    0.087138  1.356475  0.111464
C    0.300798  0.964604  1.527272
O    1.478571  0.933762  2.010423
H    0.368580  0.482477  -0.502349
H    0.761863  2.172229  -0.168686
H    -0.957851  1.597534  -0.120844
N    -0.740452  0.583653  2.325011
C    -2.013275  1.270776  2.498624
C    -1.803305  2.445126  3.484163
O    -0.778639  2.564941  4.245761
H    -0.480945  -0.053018  3.083698
H    -2.302156  1.701686  1.519789
C    -3.080306  0.239202  2.945371
C    -4.529492  0.691477  3.193733
C    -5.358355  1.191019  1.999680
N    -5.043920  2.558946  1.543266
C    -4.245404  2.810886  0.432142
N    -4.150330  4.117376  0.052683
N    -3.474500  1.935956  -0.161756
H    -2.721869  -0.239919  3.871561
H    -3.071950  -0.545779  2.173800
H    -4.582733  1.425078  4.011920
H    -5.052669  -0.195020  3.581436
H    -6.413150  1.198567  2.299666
H    -5.296315  0.487733  1.155082
H    -5.803518  3.221059  1.688523
H    -3.705117  4.285450  -0.844029
H    -4.840017  4.802707  0.340116
H    -3.761282  0.975309  0.043856
N    -2.749955  3.361307  3.529943
C    -2.726299  4.532613  4.409541
H    -3.573906  3.214363  2.928550
H    -2.883787  4.236373  5.454182
H    -3.527024  5.210044  4.102006
H    -1.762641  5.047147  4.327884
Cd    1.206002  1.665997  4.073238
