36
Energy: -175311.918243 eV PBE+vdW (tier 2 basis)
C    -0.071757  0.947122  0.229069
C    -0.010925  0.410585  1.625705
O    1.105114  -0.005017  2.051721
H    0.266177  0.165418  -0.464372
H    0.637058  1.781131  0.139295
H    -1.068984  1.286409  -0.069522
N    -1.158599  0.411494  2.333118
C    -1.457405  -0.078781  3.696617
C    -0.656736  0.712975  4.756273
O    0.541180  0.429671  5.041519
H    -1.957569  0.787176  1.830817
H    -2.518095  0.166770  3.845338
C    -1.319451  -1.608490  3.840267
C    -1.658618  -2.144664  5.247416
C    -0.746267  -3.291955  5.714274
N    0.637531  -2.814303  5.813756
C    1.752691  -3.374613  5.275613
N    1.857032  -4.711330  5.243712
N    2.681989  -2.554970  4.770948
H    -0.300881  -1.920564  3.555866
H    -1.967395  -2.069501  3.083175
H    -2.697513  -2.498116  5.278357
H    -1.600521  -1.340889  5.999339
H    -0.770368  -4.127389  5.001348
H    -1.100523  -3.670476  6.683266
H    0.769898  -1.892047  6.220146
H    1.341284  -5.288931  5.899302
H    2.580141  -5.166889  4.698004
H    3.604843  -2.957354  4.616617
N    -1.298020  1.701623  5.368711
C    -0.711964  2.589508  6.374296
H    -2.272095  1.860660  5.124867
H    -1.196032  2.425031  7.344803
H    -0.864384  3.631750  6.071067
H    0.356833  2.381012  6.456467
Cd    1.909332  -0.843059  3.836803
