36
Energy: -175310.729634 eV PBE+vdW (tier 2 basis)
C    0.682177  0.006877  1.063717
C    -0.347327  0.251554  2.128904
O    -0.309179  1.304882  2.772182
H    0.278681  -0.065794  0.044837
H    1.468820  0.760802  1.115440
H    -1.542549  2.662758  2.202065
N    -1.298884  -0.701125  2.474733
C    -2.108586  -1.612785  1.647133
C    -1.572921  -3.063970  1.565144
O    -0.350979  -3.392288  1.496845
H    -1.785069  -0.389352  3.313379
H    -3.049131  -1.698605  2.211531
C    -2.501038  -1.030097  0.266544
C    -3.267653  0.312720  0.398549
C    -2.503216  1.550053  -0.105672
N    -3.227630  2.795322  0.146052
C    -2.928037  3.741119  1.055259
N    -3.591562  4.908204  1.006604
N    -2.001413  3.555128  1.997841
H    -3.135369  -1.770308  -0.237941
H    -1.617420  -0.926390  -0.379595
H    -3.554632  0.482774  1.446699
H    -4.209779  0.240482  -0.161519
H    -2.332667  1.476766  -1.189599
H    -1.512559  1.643293  0.352672
H    -4.048159  2.969404  -0.425940
H    -3.527157  5.581111  1.760686
H    -4.133388  5.179416  0.195387
H    -1.678620  4.345902  2.543378
N    -2.496759  -4.018386  1.549782
C    -2.188994  -5.446037  1.421843
H    -3.471010  -3.754129  1.659874
H    -1.659879  -5.804044  2.313385
H    -1.561282  -5.619640  0.540898
H    -3.128831  -5.993180  1.313970
Cd    1.343444  -2.030722  1.367995
