36
Energy: -175308.728495 eV PBE+vdW (tier 2 basis)
C    -0.311698  0.900233  -0.174225
C    -0.306920  0.445052  1.245633
O    0.775594  0.056125  1.777274
H    0.137151  1.902761  -0.246154
H    -1.310301  0.907934  -0.621087
H    0.342776  0.231228  -0.748691
N    -1.453361  0.429007  1.977262
C    -2.400907  1.540571  2.052792
C    -1.730601  2.674740  2.866280
O    -0.753947  2.434177  3.644110
H    -1.357174  -0.073081  2.861776
H    -2.603334  1.900184  1.034065
C    -3.702286  1.085282  2.745513
C    -4.528074  0.030873  1.997123
C    -5.200678  0.509993  0.688606
N    -5.916949  1.764072  0.816799
C    -7.025262  2.044305  1.580010
N    -7.786697  1.010713  2.023979
N    -7.199928  3.324287  1.824954
H    -4.322530  1.969603  2.943220
H    -3.435154  0.691077  3.738858
H    -5.300606  -0.322447  2.693687
H    -3.918639  -0.851188  1.750635
H    -5.866927  -0.287008  0.321709
H    -4.461617  0.655372  -0.109893
H    -5.513789  2.610618  0.429445
H    -8.634731  1.222844  2.537251
H    -7.769153  0.105923  1.565085
H    -8.049390  3.514247  2.367304
N    -2.205883  3.912661  2.785942
C    -3.324740  4.417345  1.985917
H    -1.731845  4.582876  3.392083
H    -3.222788  5.503781  1.910302
H    -4.297056  4.191957  2.444459
H    -3.289720  4.008258  0.969080
Cd    1.069035  1.100104  3.739933
