36
Energy: -175310.38516 eV PBE+vdW (tier 2 basis)
C    -1.132808  1.287279  -1.608092
C    -0.694312  0.767606  -0.261962
O    0.204925  -0.138609  -0.274459
H    -1.130239  2.382627  -1.644876
H    -2.153661  0.940434  -1.822913
H    -0.468475  0.889815  -2.379853
N    -1.123262  1.213023  0.943589
C    -2.483732  1.498549  1.384745
C    -3.151290  0.159849  1.852431
O    -2.458203  -0.830443  2.239196
H    -0.526435  3.388689  0.907412
H    -2.352324  2.026770  2.347470
C    -3.357692  2.418318  0.489957
C    -3.960238  3.610636  1.248073
C    -2.933790  4.649446  1.720837
N    -2.261390  5.361192  0.622941
C    -0.950573  5.345936  0.333603
N    -0.417119  6.374567  -0.341316
N    -0.165396  4.321051  0.699056
H    -4.146888  1.850581  -0.022305
H    -2.738066  2.810624  -0.324464
H    -4.513590  3.278551  2.140798
H    -4.703002  4.107574  0.606943
H    -2.156104  4.205932  2.356768
H    -3.437602  5.404436  2.339745
H    -2.810262  6.073296  0.148604
H    0.489218  6.300290  -0.788832
H    -0.879005  7.275937  -0.385351
H    0.842077  4.427009  0.674853
N    -4.472859  0.090822  1.923642
C    -5.195729  -1.075783  2.444550
H    -5.019700  0.880589  1.599954
H    -6.265091  -0.850834  2.434686
H    -4.875687  -1.292402  3.470049
H    -5.001972  -1.954498  1.818384
Cd    -0.274240  -0.650128  1.860803
