36
Energy: -175308.377981 eV PBE+vdW (tier 2 basis)
C    -0.380907  0.776032  -0.439904
C    -0.185425  0.681650  1.039645
O    0.981507  0.535790  1.555448
H    0.152111  1.660339  -0.818458
H    -1.428542  0.855415  -0.741484
H    0.056865  -0.110126  -0.918146
N    -1.199170  0.724838  1.893327
C    -2.647970  0.729377  1.668716
C    -3.207475  1.355395  2.979207
O    -2.701938  1.009232  4.046132
H    -0.971899  0.649947  2.895633
H    -2.885118  1.354095  0.797033
C    -3.161969  -0.724958  1.503700
C    -4.679727  -0.952814  1.545186
C    -5.454084  -0.427861  0.332847
N    -6.853505  -0.833390  0.422477
C    -7.751035  -0.781985  -0.603621
N    -9.013605  -1.225420  -0.391317
N    -7.511054  -0.308585  -1.818157
H    -2.717548  -1.309456  2.321398
H    -2.743866  -1.128788  0.568129
H    -5.096592  -0.523614  2.469749
H    -4.836081  -2.039563  1.610096
H    -5.020842  -0.843241  -0.590536
H    -5.389134  0.672635  0.264295
H    -7.189602  -1.106764  1.342438
H    -9.659385  -1.159891  -1.172054
H    -9.314869  -1.708032  0.447181
H    -6.531235  -0.036676  -1.948074
N    -4.241530  2.207935  2.854661
C    -4.849511  2.873871  4.007946
H    -4.493773  2.534387  1.928115
H    -5.907908  3.060103  3.799438
H    -4.350537  3.828062  4.222230
H    -4.752721  2.222796  4.881889
Cd    3.004083  0.970369  0.862375
