36
Energy: -175309.032025 eV PBE+vdW (tier 2 basis)
C    -0.766286  1.637791  0.440645
C    -0.387600  1.048111  1.765198
O    0.621232  0.292784  1.816920
H    -1.635000  2.303115  0.487437
H    -0.978319  0.817844  -0.259146
H    0.093506  2.187506  0.036146
N    -1.160648  1.367061  2.825048
C    -1.120385  0.856043  4.211276
C    0.176739  1.301546  4.925365
O    1.213361  0.573488  4.977484
H    -1.941600  1.979827  2.611071
H    -1.943028  1.384408  4.709373
C    -1.403494  -0.653835  4.318434
C    -1.683620  -1.175752  5.736494
C    -3.091427  -0.835758  6.276624
N    -3.411935  -1.516359  7.517346
C    -3.866994  -2.810154  7.592474
N    -4.072099  -3.332597  8.828160
N    -4.101760  -3.612008  6.574334
H    -0.567043  -1.233320  3.892557
H    -2.256996  -0.868053  3.657629
H    -0.917674  -0.826795  6.446003
H    -1.588444  -2.270620  5.712935
H    -3.855673  -1.086764  5.524934
H    -3.201242  0.240734  6.470128
H    -3.170527  -1.043824  8.382442
H    -4.449363  -4.273912  8.864940
H    -4.083472  -2.780264  9.676887
H    -4.012063  -3.145544  5.667696
N    0.193888  2.483042  5.534431
C    -0.875206  3.480600  5.633542
H    1.086664  2.713594  5.971717
H    -1.167591  3.851661  4.643565
H    -0.491903  4.326190  6.211203
H    -1.751313  3.083260  6.161664
Cd    1.911455  -0.685574  3.302897
