36
Energy: -175309.07708 eV PBE+vdW (tier 2 basis)
C    0.204941  -1.853836  2.128894
C    -0.253912  -0.614181  2.829653
O    0.270840  0.490875  2.515235
H    0.033025  -1.732478  1.050577
H    -0.301508  -2.761162  2.475342
H    1.288434  -1.964240  2.267347
N    -1.220676  -0.735692  3.763665
C    -1.893014  0.374873  4.441447
C    -1.011269  0.967001  5.568802
O    -0.401191  2.065801  5.357663
H    -1.573990  -1.673115  3.934293
H    -1.963579  1.197887  3.712062
C    -3.333078  0.014551  4.849835
C    -4.297830  -0.027290  3.655670
C    -5.763220  -0.316776  4.047304
N    -5.979570  -1.640473  4.614068
C    -5.931627  -2.004520  5.938430
N    -5.978372  -1.009284  6.884824
N    -5.755991  -3.229584  6.360681
H    -3.674940  0.767629  5.575136
H    -3.345314  -0.946365  5.382656
H    -4.290069  0.942401  3.133816
H    -3.972594  -0.778778  2.919320
H    -6.390091  -0.233913  3.149316
H    -6.125646  0.450050  4.743664
H    -6.053038  -2.413874  3.960319
H    -6.067487  -1.378133  7.828766
H    -6.556805  -0.194082  6.706588
H    -5.782619  -3.931548  5.614257
N    -0.864577  0.390184  6.754381
C    -1.451761  -0.836931  7.297395
H    -0.255387  0.915555  7.383319
H    -2.473299  -0.667888  7.659992
H    -0.831770  -1.155471  8.140650
H    -1.445582  -1.641849  6.555786
Cd    0.420925  2.526847  3.366201
