36
Energy: -175310.74252 eV PBE+vdW (tier 2 basis)
C    -0.484631  -0.423715  1.006922
C    -0.824241  0.039228  2.393920
O    0.048245  -0.103233  3.323826
H    0.042850  0.392575  0.489300
H    -1.372210  -0.691677  0.424624
H    0.213470  -1.266012  1.054129
N    -2.001291  0.581814  2.739646
C    -2.886896  1.387610  1.936405
C    -2.952808  2.810017  2.610501
O    -2.363634  3.103899  3.696216
H    -1.434756  -2.662036  4.033559
H    -2.459133  1.565741  0.934348
C    -4.285525  0.749287  1.757175
C    -5.030287  0.377835  3.062381
C    -5.089256  -1.119276  3.380623
N    -3.748897  -1.668645  3.613714
C    -3.477133  -2.935691  3.943338
N    -4.463017  -3.823382  4.118677
N    -2.199351  -3.321312  4.106742
H    -4.151718  -0.140259  1.123573
H    -4.912725  1.424889  1.160385
H    -6.072721  0.711488  2.987470
H    -4.614340  0.917897  3.927065
H    -5.571927  -1.650969  2.543198
H    -5.707192  -1.266424  4.279807
H    -2.967728  -1.039367  3.394367
H    -4.275360  -4.773390  4.415914
H    -5.431613  -3.575931  3.963220
H    -1.959094  -4.279223  4.330147
N    -3.651993  3.741444  1.981261
C    -3.787015  5.123662  2.455608
H    -4.103975  3.495250  1.105723
H    -4.359214  5.686762  1.714234
H    -2.797999  5.580009  2.577463
H    -4.312532  5.148193  3.417305
Cd    -1.088072  1.488530  4.541637
