36
Energy: -175310.188845 eV PBE+vdW (tier 2 basis)
C    -0.694804  0.013680  0.270701
C    -0.534177  0.247310  1.753235
O    0.592483  0.896919  2.006883
H    -1.100746  0.918370  -0.203499
H    -1.365252  -0.832775  0.089422
H    0.275898  -0.191261  -0.192130
N    -1.477487  -0.166975  2.557598
C    -1.497323  0.154190  3.980024
C    -0.638611  -0.817353  4.823657
O    0.538230  -0.483729  5.222450
H    -3.246951  -0.360499  1.641204
H    -1.042157  1.152477  4.192487
C    -2.961287  0.305269  4.455041
C    -3.885534  -0.887456  4.154334
C    -5.326790  -0.501206  3.797266
N    -5.494381  0.512012  2.731988
C    -5.184643  0.373319  1.426413
N    -5.977131  0.946265  0.508175
N    -4.097332  -0.307336  1.047745
H    -3.337306  1.195007  3.928815
H    -2.975927  0.554786  5.525145
H    -3.979482  -1.544299  5.032998
H    -3.470143  -1.501711  3.343129
H    -5.820304  -0.065096  4.674168
H    -5.887649  -1.407779  3.526898
H    -6.194556  1.220218  2.928836
H    -5.659679  1.101286  -0.441926
H    -6.936670  1.196065  0.719341
H    -3.986783  -0.540343  0.067344
N    -1.094091  -2.012113  5.144859
C    -0.334116  -3.006593  5.909823
H    -2.034429  -2.252598  4.847585
H    -0.851727  -3.966376  5.836801
H    -0.263951  -2.708510  6.963167
H    0.676724  -3.100967  5.499054
Cd    1.329591  1.021472  3.937034
