36
Energy: -175308.533483 eV PBE+vdW (tier 2 basis)
C    -0.025296  -1.482731  1.012465
C    -0.379576  -1.220881  2.441820
O    0.359339  -1.640863  3.403226
H    0.893761  -0.930827  0.764007
H    -0.800062  -1.185059  0.301156
H    0.180440  -2.552786  0.882196
N    -1.476639  -0.559335  2.790723
C    -2.582107  -0.051556  1.979130
C    -3.127815  1.142885  2.818120
O    -3.225045  0.990938  4.036653
H    -1.634397  -0.409055  3.796985
H    -2.203523  0.285604  1.004740
C    -3.684714  -1.128150  1.803664
C    -4.896066  -0.655877  0.995699
C    -5.991937  -1.725578  0.804892
N    -6.712994  -2.073918  2.021288
C    -6.457296  -3.139850  2.835022
N    -7.244837  -3.327657  3.920725
N    -5.459819  -4.000073  2.684598
H    -3.984977  -1.450492  2.811972
H    -3.217707  -1.996343  1.310795
H    -4.583114  -0.344682  -0.013566
H    -5.351164  0.228323  1.465987
H    -5.578504  -2.639804  0.357158
H    -6.734633  -1.346595  0.090113
H    -7.445654  -1.428775  2.307067
H    -7.051141  -4.144969  4.490070
H    -8.127014  -2.848840  4.060433
H    -4.993679  -3.894800  1.778093
N    -3.479046  2.247612  2.139608
C    -3.994615  3.450743  2.792972
H    -3.287789  2.290559  1.144036
H    -4.801475  3.876783  2.186964
H    -3.201829  4.200191  2.914074
H    -4.376126  3.175440  3.780376
Cd    2.495385  -2.093448  3.548569
