36
Energy: -175309.136496 eV PBE+vdW (tier 2 basis)
C    -0.030840  -1.103401  0.157947
C    0.081706  -0.076359  1.238678
O    0.954960  0.835580  1.111424
H    -0.794821  -1.862350  0.357901
H    0.943260  -1.586573  0.009360
H    -0.276247  -0.588896  -0.782483
N    -0.765664  -0.159940  2.282021
C    -1.071577  0.876732  3.278991
C    -0.176591  0.738807  4.529850
O    1.085431  0.938282  4.440692
H    -1.408629  -0.946424  2.254616
H    -0.750962  1.836085  2.837340
C    -2.602587  1.005913  3.484053
C    -3.495173  -0.251148  3.556496
C    -3.322376  -1.233651  4.720682
N    -3.430701  -0.548131  6.014140
C    -3.226962  -1.188311  7.253284
N    -2.676784  -2.437039  7.220036
N    -3.402724  -0.618647  8.405328
H    -2.971115  1.591743  2.630800
H    -2.765710  1.653130  4.357633
H    -3.436359  -0.829067  2.620374
H    -4.532429  0.117813  3.562199
H    -2.336132  -1.725089  4.685035
H    -4.081235  -2.028109  4.615186
H    -4.187749  0.132837  6.065200
H    -2.551350  -2.862691  8.135210
H    -2.868691  -3.078785  6.459477
H    -3.797830  0.324756  8.345173
N    -0.697555  0.449022  5.702235
C    0.084349  0.355959  6.939229
H    -1.714891  0.263893  5.779458
H    0.725917  1.237303  7.048088
H    0.715443  -0.541570  6.928169
H    -0.613011  0.298402  7.779366
Cd    2.097094  1.756147  2.708697
