36
Energy: -175309.255878 eV PBE+vdW (tier 2 basis)
C    -0.169294  -0.028752  0.037636
C    -0.248825  -0.278233  1.513183
O    0.690990  -0.917659  2.065524
H    -1.031735  0.512325  -0.365679
H    -0.081341  -0.997133  -0.473835
H    0.749543  0.530467  -0.182397
N    -1.338111  0.185541  2.158004
C    -1.817379  -0.048300  3.539037
C    -1.038065  0.800704  4.565740
O    0.132541  0.511625  4.953583
H    -1.989736  0.693059  1.566821
H    -2.845415  0.340250  3.522975
C    -1.915769  -1.536416  3.926641
C    -2.729279  -1.754085  5.208461
C    -2.842577  -3.252976  5.578051
N    -3.562639  -3.473838  6.810423
C    -4.910716  -3.651099  7.000880
N    -5.709439  -3.884901  5.921461
N    -5.292998  -3.547981  8.253233
H    -0.914556  -1.980555  4.035510
H    -2.385319  -2.060111  3.080949
H    -3.743412  -1.342915  5.089761
H    -2.267989  -1.223419  6.055716
H    -1.838966  -3.686948  5.698205
H    -3.317113  -3.809342  4.757427
H    -3.079424  -3.334552  7.695462
H    -6.679275  -4.118214  6.102942
H    -5.332950  -4.269973  5.062130
H    -6.303096  -3.674605  8.377522
N    -1.668235  1.860728  5.058577
C    -1.108958  2.798283  6.034165
H    -2.617944  2.037351  4.742027
H    -1.677859  2.743364  6.970319
H    -1.171788  3.817576  5.635692
H    -0.065610  2.538400  6.224148
Cd    1.658052  -0.785132  4.024863
