36
Energy: -175310.639415 eV PBE+vdW (tier 2 basis)
C    1.114918  -1.199960  0.611382
C    1.171379  -0.857952  2.056610
O    2.277749  -0.960746  2.679898
H    1.527422  -0.365638  0.021790
H    0.105030  -1.434521  0.262448
H    1.780307  -2.055128  0.434108
N    0.058893  -0.449561  2.721447
C    -0.863941  0.569999  2.223091
C    -0.074892  1.901085  2.132908
O    1.016830  2.038122  2.754913
H    0.164234  -0.446035  3.736514
H    -1.161036  0.288495  1.203258
C    -2.168548  0.633859  3.069121
C    -2.123833  0.500715  4.606996
C    -1.743286  1.710814  5.485858
N    -0.324433  2.088518  5.467293
C    0.697729  1.406515  6.003393
N    0.479517  0.291230  6.727425
N    2.005805  1.747120  5.787826
H    -2.796204  -0.192071  2.708633
H    -2.706953  1.552461  2.797591
H    -1.545535  -0.390019  4.903438
H    -3.152859  0.247698  4.903232
H    -2.042953  1.511487  6.525599
H    -2.308057  2.601891  5.184578
H    -0.046538  2.813704  4.813310
H    1.240754  -0.018259  7.325093
H    -0.453993  0.007205  7.003080
H    2.096352  2.742001  5.562118
N    -0.550988  2.895408  1.384489
C    -1.760776  2.951407  0.560258
H    0.041111  3.726431  1.376816
H    -2.575878  3.463277  1.088165
H    -2.092276  1.949538  0.271558
H    -1.532985  3.509860  -0.353761
Cd    2.536771  0.676757  4.033781
