36
Energy: -175309.600017 eV PBE+vdW (tier 2 basis)
C    -0.328293  0.083044  -0.065926
C    -0.242077  0.181758  1.424299
O    0.766191  0.758793  1.933438
H    -0.293730  1.098718  -0.484364
H    -1.236318  -0.419178  -0.416299
H    0.555685  -0.445815  -0.445482
N    -1.252365  -0.329343  2.150404
C    -1.509301  -0.144060  3.588855
C    -0.803783  -1.256558  4.391772
O    0.453610  -1.228214  4.594909
H    -1.990520  -0.792045  1.624929
H    -1.020785  0.798659  3.887063
C    -3.017291  -0.020264  3.846847
C    -3.647395  1.249588  3.261352
C    -5.181801  1.287005  3.393955
N    -5.681583  1.450037  4.752922
C    -6.182643  0.417821  5.505993
N    -6.970580  0.759092  6.560275
N    -5.839283  -0.808071  5.169785
H    -3.183306  -0.039155  4.932902
H    -3.544862  -0.902001  3.444270
H    -3.424537  1.332416  2.186154
H    -3.211208  2.141036  3.738031
H    -5.618732  0.368697  2.982684
H    -5.561030  2.130678  2.801811
H    -5.864223  2.397341  5.067300
H    -7.297820  0.042952  7.195981
H    -7.397573  1.674055  6.649737
H    -6.325380  -1.497823  5.751039
N    -1.515438  -2.265443  4.861885
C    -0.943265  -3.388819  5.611662
H    -2.522132  -2.245864  4.718905
H    -1.745354  -4.095288  5.838191
H    -0.493241  -3.032183  6.545963
H    -0.172661  -3.888758  5.013792
Cd    1.807943  0.292399  3.793142
