36
Energy: -175310.432035 eV PBE+vdW (tier 2 basis)
C    0.756864  -0.582491  0.821044
C    0.359843  0.091273  2.094245
O    1.153338  0.978898  2.564406
H    0.855268  0.186080  0.040778
H    0.035256  -1.336167  0.488922
H    1.746689  -1.040927  0.941145
N    -0.803763  -0.250074  2.664265
C    -1.569271  0.452570  3.723014
C    -1.298597  -0.138563  5.122513
O    -0.152860  0.166141  5.736693
H    -1.306660  -1.007289  2.206237
H    -1.218412  1.500376  3.722690
C    -3.049023  0.443489  3.318008
C    -3.948990  1.300542  4.234946
C    -5.282709  0.631025  4.572576
N    -5.034470  -0.629123  5.278379
C    -5.979597  -1.480408  5.675056
N    -7.278703  -1.158827  5.588903
N    -5.630215  -2.685218  6.160850
H    -3.385431  -0.604648  3.315384
H    -3.123396  0.800483  2.281912
H    -4.167053  2.263288  3.756661
H    -3.435272  1.534765  5.178364
H    -5.861478  0.435679  3.654917
H    -5.867583  1.318102  5.204577
H    -4.032243  -0.860911  5.445063
H    -8.004147  -1.833074  5.799516
H    -7.575553  -0.213408  5.385719
H    -6.303777  -3.293194  6.609178
N    -2.168675  -0.895860  5.686649
C    -1.890987  -1.444542  7.013587
H    -4.681246  -3.023806  6.075086
H    -2.793393  -1.933552  7.398706
H    -1.587347  -0.666080  7.727007
H    -1.084932  -2.190990  6.972308
Cd    1.260518  1.241050  4.677046
