36
Energy: -175311.237565 eV PBE+vdW (tier 2 basis)
C    -0.326992  1.419907  0.859763
C    -0.975018  1.136492  2.175180
O    -0.708628  1.881555  3.162328
H    -0.627241  0.724172  0.069243
H    0.763492  1.380573  0.984941
H    -0.574617  2.445559  0.554647
N    -1.826608  0.087064  2.251612
C    -2.575050  -0.257225  3.458202
C    -1.655758  -0.942963  4.502086
O    -1.245104  -0.255093  5.485587
H    -1.996332  -0.438369  1.398268
H    -2.828253  0.707362  3.924394
C    -3.947844  -0.901309  3.215556
C    -4.817249  -0.886532  4.490626
C    -5.311704  0.522050  4.940326
N    -5.003184  0.839146  6.340160
C    -3.940442  1.542063  6.785231
N    -3.472690  1.295581  8.021660
N    -3.310123  2.482546  6.049590
H    -3.858687  -1.931945  2.852131
H    -4.446102  -0.333577  2.414553
H    -4.268415  -1.355673  5.321488
H    -5.686927  -1.530061  4.310917
H    -6.398327  0.598602  4.819734
H    -4.891051  1.313141  4.307282
H    -5.571308  0.368491  7.040713
H    -2.966512  2.028663  8.506684
H    -3.796129  0.509321  8.573899
H    -3.924332  2.910132  5.355916
N    -1.271398  -2.209310  4.390936
C    -1.572670  -3.208574  3.364639
H    -0.654070  -2.509775  5.146425
H    -1.694672  -2.746440  2.381141
H    -2.470652  -3.785997  3.619450
H    -0.724227  -3.897644  3.304705
Cd    -1.429080  1.956741  5.219677
