36
Energy: -175308.606389 eV PBE+vdW (tier 2 basis)
C    -0.383225  1.797057  -0.787999
C    -0.416608  0.801710  0.323605
O    0.616385  0.127799  0.598287
H    0.132303  2.709962  -0.451320
H    -1.376627  2.058947  -1.164788
H    0.226498  1.384260  -1.601719
N    -1.559440  0.601032  1.040477
C    -2.363120  1.692075  1.596802
C    -1.558069  2.283465  2.785737
O    -0.637006  1.606776  3.339182
H    -1.478622  -0.188460  1.683597
H    -2.479027  2.463706  0.823008
C    -3.753531  1.203227  2.052285
C    -4.753259  0.868335  0.929537
C    -4.600345  -0.531569  0.294859
N    -5.641152  -0.826247  -0.679373
C    -6.941377  -1.180126  -0.425373
N    -7.314798  -1.475580  0.846111
N    -7.890631  -1.218796  -1.338477
H    -4.197867  1.991892  2.673180
H    -3.621571  0.344935  2.732278
H    -4.703030  1.629496  0.136026
H    -5.764528  0.945107  1.352891
H    -4.598781  -1.307686  1.077663
H    -3.640732  -0.628588  -0.227828
H    -5.435719  -0.639322  -1.654802
H    -8.272632  -1.794913  0.956600
H    -6.654768  -1.713647  1.574796
H    -7.548919  -1.022610  -2.285941
N    -1.846970  3.494615  3.249086
C    -2.886441  4.431899  2.822890
H    -1.282495  3.776273  4.052002
H    -2.485119  5.448946  2.886703
H    -3.767876  4.361822  3.473989
H    -3.184800  4.246475  1.786897
Cd    1.132645  0.269135  2.798486
