36
Energy: -175310.523665 eV PBE+vdW (tier 2 basis)
C    -0.966896  0.628783  3.145922
C    -0.394400  -0.745515  2.905519
O    0.878715  -0.840367  3.063966
H    -0.939143  1.191282  2.201110
H    -0.322082  1.159802  3.853138
H    -1.993994  0.612716  3.516785
N    -1.064675  -1.859561  2.580625
C    -2.165731  -2.088164  1.664745
C    -1.538829  -2.343032  0.242687
O    -0.371019  -2.818663  0.111659
H    -4.613427  -3.477716  6.976729
H    -2.563762  -3.085934  1.930194
C    -3.353119  -1.104185  1.694239
C    -4.110578  -1.049694  3.035866
C    -5.033986  -2.255089  3.285862
N    -5.967967  -2.045944  4.398609
C    -5.839357  -2.491518  5.656552
N    -6.897760  -2.471574  6.477606
N    -4.668618  -2.968959  6.102323
H    -4.085575  -1.397011  0.924829
H    -3.018047  -0.094330  1.425999
H    -4.728412  -0.140152  3.036493
H    -3.404854  -0.942447  3.872537
H    -4.475413  -3.181031  3.480222
H    -5.650529  -2.449827  2.396806
H    -6.809338  -1.515466  4.193612
H    -6.790551  -2.576441  7.479912
H    -7.841269  -2.361003  6.124833
H    -3.799102  -2.764913  5.628477
N    -2.262770  -2.112477  -0.844550
C    -1.784561  -2.389816  -2.203426
H    -3.190096  -1.718819  -0.739533
H    -0.864677  -1.828586  -2.403792
H    -2.559448  -2.083985  -2.910789
H    -1.579799  -3.459896  -2.324496
Cd    0.870115  -2.788798  1.973637
