36
Energy: -175310.047447 eV PBE+vdW (tier 2 basis)
C    -0.125752  0.590180  0.015762
C    -0.392564  -0.075327  1.324237
O    0.554311  -0.357339  2.154691
H    -1.038243  0.757490  -0.564966
H    0.557698  -0.036231  -0.574807
H    0.364543  1.559813  0.182808
N    -1.624708  -0.404469  1.654452
C    -2.043782  -1.214957  2.804354
C    -3.079403  -2.190208  2.158510
O    -3.605776  -1.819104  1.102814
H    -2.381613  -0.396446  0.943782
H    -1.165994  -1.738298  3.203457
C    -2.789385  -0.386279  3.878829
C    -2.071595  0.786794  4.569991
C    -1.203134  0.475736  5.809258
N    0.165231  0.023283  5.519075
C    1.182670  0.802384  5.137669
N    1.002677  2.124807  4.946658
N    2.434249  0.324879  4.864230
H    -3.166108  -1.085479  4.640169
H    -3.686328  0.020779  3.388936
H    -2.857998  1.466278  4.929488
H    -1.501158  1.373027  3.832450
H    -1.669387  -0.299814  6.429632
H    -1.135195  1.365756  6.452208
H    0.339766  -0.976270  5.504085
H    1.827453  2.713936  5.010450
H    0.112716  2.573217  5.132282
H    2.627415  -0.576328  5.308071
N    -3.386600  -3.342491  2.772788
C    -2.872311  -3.883872  4.023738
H    -4.121635  -3.869613  2.303270
H    -1.840168  -3.558138  4.195709
H    -2.863613  -4.977048  3.959183
H    -3.494230  -3.594014  4.882739
Cd    2.511826  0.170608  2.735469
