36
Energy: -175309.254572 eV PBE+vdW (tier 2 basis)
C    -0.514134  1.248896  0.138883
C    -0.524009  1.440225  1.622630
O    0.051341  2.457048  2.107803
H    -0.987907  2.123715  -0.328034
H    -1.035736  0.342502  -0.186457
H    0.524687  1.223767  -0.214990
N    -1.169683  0.523791  2.371577
C    -1.488847  0.627788  3.803651
C    -0.302253  0.098925  4.640003
O    0.671210  0.856010  4.942432
H    -1.584501  -0.255904  1.867296
H    -1.557906  1.701392  4.040583
C    -2.863141  -0.003955  4.082478
C    -3.392970  0.268263  5.497495
C    -4.807887  -0.296016  5.752907
N    -5.843483  0.319346  4.936387
C    -6.357732  -0.139511  3.746017
N    -6.144023  -1.454642  3.415541
N    -6.964282  0.614078  2.866956
H    -2.845712  -1.088523  3.875021
H    -3.557550  0.420590  3.342051
H    -3.406579  1.353736  5.683933
H    -2.729733  -0.165547  6.261468
H    -5.065745  -0.132817  6.808471
H    -4.815854  -1.381603  5.597950
H    -6.130301  1.259653  5.191495
H    -6.628370  -1.726177  2.563134
H    -6.175292  -2.155107  4.149703
H    -7.135509  1.572300  3.188287
N    -0.288602  -1.167944  5.022345
C    0.813958  -1.782612  5.770958
H    -1.092077  -1.745658  4.795170
H    0.914582  -1.310689  6.755706
H    1.754966  -1.663345  5.221996
H    0.595997  -2.846060  5.895745
Cd    1.094305  2.811494  4.008998
