36
Energy: -175311.818594 eV PBE+vdW (tier 2 basis)
C    -0.223745  -0.356572  -0.046941
C    -0.493653  -0.607065  1.406750
O    0.216841  -1.471644  1.991503
H    0.812407  -0.008607  -0.156274
H    -0.898243  0.374984  -0.503664
H    -0.299592  -1.307763  -0.589646
N    -1.480012  0.118847  1.969927
C    -2.070615  0.196533  3.330225
C    -1.031681  0.535776  4.407806
O    -0.128867  -0.270839  4.772827
H    -1.927049  0.751202  1.312601
H    -2.714189  1.079622  3.249154
C    -3.070949  -0.937486  3.689527
C    -2.635377  -2.403203  3.886952
C    -2.273488  -2.798349  5.337050
N    -1.868902  -4.194508  5.476727
C    -0.601152  -4.666299  5.549847
N    -0.439650  -5.922756  6.008638
N    0.448283  -3.927921  5.183121
H    -3.816278  -0.914172  2.882596
H    -3.612496  -0.597329  4.587091
H    -1.843084  -2.686561  3.171198
H    -3.480170  -3.037580  3.582273
H    -3.157152  -2.649291  5.973038
H    -1.491708  -2.163645  5.777703
H    -2.611086  -4.878845  5.577454
H    0.441035  -6.410462  5.899215
H    -1.158242  -6.390349  6.548881
H    1.341490  -4.325365  5.463498
N    -1.110483  1.721320  5.007669
C    -2.045867  2.827900  4.775260
H    -0.398793  1.863440  5.724699
H    -1.961944  3.215790  3.752599
H    -1.781089  3.636523  5.462179
H    -3.080965  2.532964  4.987144
Cd    0.421627  -2.235272  3.963409
