36
Energy: -175309.709736 eV PBE+vdW (tier 2 basis)
C    0.964181  -1.214717  1.604255
C    0.856962  -0.055213  2.531202
O    1.921692  0.501798  2.972279
H    1.360004  -0.889741  0.631107
H    0.019053  -1.747860  1.469628
H    1.713268  -1.902337  2.023019
N    -0.343237  0.427251  2.926919
C    -1.514138  0.661635  2.068962
C    -1.497853  2.167398  1.667234
O    -0.331676  2.793404  1.496445
H    -0.306089  1.002101  3.771209
H    -1.325713  0.099285  1.140870
C    -2.824163  0.176825  2.730174
C    -3.723288  -0.707944  1.850483
C    -4.277274  -0.046818  0.580063
N    -5.008964  1.190858  0.838479
C    -6.331592  1.336746  0.922692
N    -7.158836  0.281000  0.953228
N    -6.855567  2.574120  0.979368
H    -3.385058  1.048232  3.094101
H    -2.553321  -0.410391  3.617580
H    -4.556480  -1.058538  2.477711
H    -3.178304  -1.614367  1.543819
H    -4.916363  -0.746618  0.025739
H    -3.463927  0.218678  -0.110921
H    -4.382669  1.983390  1.057588
H    -6.815473  -0.659159  1.095371
H    -8.152265  0.389077  0.788245
H    -7.828908  2.724584  1.213989
N    -2.608671  2.746150  1.391467
C    -2.653459  4.156734  1.033476
H    -6.316506  3.380349  0.691829
H    -3.654665  4.549593  1.250276
H    -2.471005  4.279709  -0.045081
H    -1.910455  4.757115  1.573538
Cd    1.501491  2.612034  2.512106
