36
Energy: -175309.370354 eV PBE+vdW (tier 2 basis)
C    1.020576  -1.626208  1.137355
C    0.519752  -0.479126  1.954904
O    1.359421  0.390352  2.349266
H    1.483223  -1.222682  0.224952
H    0.233936  -2.333744  0.854389
H    1.812051  -2.150359  1.688037
N    -0.798137  -0.411795  2.211477
C    -1.570860  0.743380  2.701314
C    -1.699119  0.731667  4.240636
O    -0.656339  0.810516  4.981613
H    -1.350254  -1.190679  1.861519
H    -0.969866  1.642381  2.480065
C    -2.882995  0.873840  1.904362
C    -3.766655  -0.392877  1.771840
C    -5.263010  -0.087427  1.964336
N    -5.529257  0.200587  3.370379
C    -6.399825  1.170141  3.888746
N    -7.084025  1.948095  3.008673
N    -6.392455  1.255529  5.188136
H    -2.616043  1.231208  0.901321
H    -3.453698  1.696783  2.359594
H    -3.489084  -1.172369  2.501932
H    -3.634638  -0.844937  0.779665
H    -5.869568  -0.935522  1.610507
H    -5.533572  0.786345  1.357559
H    -5.503045  -0.605314  3.994437
H    -7.329863  1.617404  2.082069
H    -7.673940  2.685133  3.378876
H    -7.074517  1.928929  5.548823
N    -2.884811  0.671912  4.806262
C    -3.114099  0.717773  6.254124
H    -3.727277  0.607570  4.212828
H    -4.192158  0.829775  6.407821
H    -2.576779  1.565741  6.693630
H    -2.759579  -0.207039  6.726355
Cd    1.312875  1.359457  4.282455
