36
Energy: -175309.492553 eV PBE+vdW (tier 2 basis)
C    -0.731134  -1.798269  1.160555
C    -0.243729  -0.519870  1.747704
O    1.011428  -0.312874  1.848399
H    -0.504053  -1.832746  0.085086
H    -1.799215  -1.964942  1.326026
H    -0.159485  -2.617481  1.619431
N    -1.108116  0.427225  2.189407
C    -2.257169  0.952457  1.439822
C    -1.741419  1.935426  0.346611
O    -0.576373  2.560660  0.521137
H    -0.664280  1.139043  2.774002
H    -2.733458  0.111832  0.920479
C    -3.247243  1.640977  2.399649
C    -4.158532  0.704292  3.207323
C    -5.297320  0.021167  2.428170
N    -6.231595  0.969229  1.800469
C    -6.022317  1.593023  0.631263
N    -6.576177  2.788026  0.387835
N    -5.259741  1.037544  -0.331000
H    -3.841813  2.356897  1.817921
H    -2.668692  2.265275  3.098399
H    -4.600016  1.283885  4.030923
H    -3.566789  -0.089040  3.690069
H    -5.888526  -0.600779  3.110480
H    -4.914211  -0.669301  1.665223
H    -7.003740  1.297671  2.374480
H    -6.707567  3.094417  -0.570305
H    -7.021098  3.331430  1.118963
H    -5.066852  0.045921  -0.257043
N    -2.527301  2.193142  -0.633570
C    -2.116459  3.022876  -1.753727
H    -4.489863  1.591045  -0.739551
H    -2.356748  4.076517  -1.541167
H    -2.689249  2.731734  -2.642445
H    -1.042101  2.956168  -1.968087
Cd    1.292271  1.719860  1.023109
