36
Energy: -175310.313074 eV PBE+vdW (tier 2 basis)
C    -1.202380  -0.424080  0.247906
C    -0.904095  0.050148  1.649903
O    0.224998  0.746480  1.673285
H    -1.389772  0.440195  -0.405841
H    -2.050266  -1.118317  0.247616
H    -0.329480  -0.941966  -0.167638
N    -1.748818  -0.248679  2.597734
C    -1.652645  0.265736  3.962026
C    -0.717522  -0.576894  4.863011
O    0.523331  -0.266305  5.009816
H    -3.819588  0.129125  -0.302101
H    -1.191076  1.281975  3.996711
C    -3.068551  0.468931  4.553802
C    -4.061222  -0.711862  4.408156
C    -5.198753  -0.468393  3.414397
N    -4.663802  -0.319753  2.060274
C    -5.410933  -0.082376  0.980409
N    -6.748048  -0.044498  1.067751
N    -4.826143  0.136436  -0.209965
H    -3.482379  1.358773  4.058412
H    -2.962708  0.749336  5.610856
H    -4.531288  -0.921547  5.377651
H    -3.552879  -1.635746  4.088722
H    -5.757963  0.437430  3.702475
H    -5.889832  -1.325515  3.455731
H    -3.630712  -0.367252  1.987294
H    -7.229138  -0.264995  1.929393
H    -7.324340  0.173100  0.264130
H    -5.368805  0.196889  -1.062263
N    -1.171297  -1.627344  5.516844
C    -0.345506  -2.479664  6.380088
H    -2.157154  -1.851378  5.426281
H    -0.950459  -3.330715  6.702157
H    -0.006971  -1.918066  7.259101
H    0.529650  -2.839371  5.827627
Cd    1.185433  1.041101  3.476260
