36
Energy: -175309.409212 eV PBE+vdW (tier 2 basis)
C    -0.223817  -0.463040  0.264628
C    -0.115774  -0.000792  1.682117
O    0.909820  0.671044  2.014721
H    -0.218806  0.420634  -0.389591
H    -1.128496  -1.048036  0.067611
H    0.664205  -1.054234  0.006436
N    -1.119998  -0.302115  2.525119
C    -1.368477  0.251249  3.869028
C    -0.662245  -0.624776  4.930862
O    0.585720  -0.445281  5.174287
H    -1.870126  -0.866345  2.132420
H    -0.864093  1.231154  3.912761
C    -2.875824  0.486651  4.048415
C    -3.237171  1.296920  5.304833
C    -4.728440  1.193811  5.693605
N    -5.176276  -0.192762  5.878148
C    -4.437805  -1.107508  6.607206
N    -3.922358  -0.672936  7.788084
N    -4.103255  -2.300163  6.168584
H    -3.390874  -0.487139  4.050872
H    -3.230834  1.015514  3.151520
H    -3.002650  2.359613  5.148636
H    -2.631613  0.969459  6.162839
H    -5.371915  1.629230  4.919394
H    -4.905819  1.782511  6.605026
H    -5.690577  -0.598424  5.102551
H    -3.516181  -1.391632  8.378341
H    -4.388872  0.080817  8.281131
H    -4.620850  -2.569695  5.326509
N    -1.298739  -1.579450  5.573019
C    -0.643691  -2.467448  6.539203
H    -2.324376  -1.724239  5.493214
H    0.177771  -3.013432  6.061039
H    -1.398127  -3.173238  6.896372
H    -0.239839  -1.890163  7.380143
Cd    1.864894  0.792516  3.953556
