36
Energy: -175308.673431 eV PBE+vdW (tier 2 basis)
C    0.582010  -2.583027  0.374775
C    0.879593  -1.146795  0.638822
O    1.805842  -0.567149  -0.005731
H    1.539105  -3.113455  0.276543
H    -0.013907  -3.052140  1.163321
H    0.074549  -2.689179  -0.595935
N    0.188917  -0.449012  1.579139
C    -1.267463  -0.444206  1.697316
C    -1.802837  0.512573  0.600451
O    -1.033487  1.348218  0.026407
H    0.612461  0.454846  1.790963
H    -1.626430  -1.458850  1.476489
C    -1.722917  -0.073976  3.128367
C    -1.319807  1.321560  3.619741
C    -1.741720  1.619327  5.075973
N    -3.172598  1.779050  5.281809
C    -4.031779  0.813363  5.736434
N    -5.327125  1.175469  5.943543
N    -3.742083  -0.457324  5.932896
H    -1.297237  -0.844802  3.788019
H    -2.813449  -0.192124  3.182669
H    -1.733807  2.103349  2.963540
H    -0.224287  1.440800  3.599367
H    -1.260801  2.552905  5.395971
H    -1.364221  0.838498  5.751615
H    -3.547878  2.711218  5.132804
H    -5.926965  0.462273  6.346314
H    -5.610125  2.140966  6.066650
H    -2.736953  -0.645968  5.890334
N    -3.086368  0.480298  0.260794
C    -4.164916  -0.363574  0.777875
H    -3.341727  1.158730  -0.458006
H    -4.858243  -0.575882  -0.042517
H    -4.715679  0.145650  1.579330
H    -3.777375  -1.316352  1.151193
Cd    1.088809  1.404614  -0.785452
