36
Energy: -175309.358793 eV PBE+vdW (tier 2 basis)
C    1.644847  1.831795  1.471782
C    0.807384  0.688859  1.017359
O    1.222211  -0.002093  0.022076
H    1.602602  2.654447  0.743326
H    2.688160  1.482517  1.466619
H    1.387881  2.187911  2.470460
N    -0.329847  0.289320  1.648399
C    -1.569447  1.020170  2.006742
C    -2.624169  0.751272  0.897977
O    -2.257036  0.683985  -0.382167
H    -0.523188  -0.698931  1.472992
H    -1.954822  0.524479  2.906626
C    -1.402707  2.524459  2.289634
C    -0.964631  2.848634  3.736412
C    -2.108251  3.355396  4.632875
N    -3.272514  2.464266  4.567420
C    -4.539298  2.815339  4.275243
N    -5.012597  4.010879  4.648982
N    -5.289866  1.939614  3.597832
H    -2.379006  2.983950  2.086783
H    -0.725641  2.976923  1.555422
H    -0.193065  3.630322  3.743181
H    -0.498926  1.966417  4.203189
H    -2.435068  4.347540  4.294104
H    -1.756501  3.455898  5.669055
H    -3.103876  1.464087  4.595173
H    -4.602523  4.514459  5.427619
H    -5.885933  4.366024  4.276644
H    -6.299665  2.029113  3.573609
N    -3.851888  0.709406  1.271105
C    -4.916385  0.421489  0.320481
H    -4.820032  1.339181  2.897160
H    -5.750583  -0.051870  0.852849
H    -4.592910  -0.228730  -0.501898
H    -5.291748  1.359816  -0.116884
Cd    -0.584094  -0.284004  -1.189539
