36
Energy: -175310.617317 eV PBE+vdW (tier 2 basis)
C    -0.201607  1.508783  0.406251
C    0.506767  1.253513  1.694877
O    1.667185  1.804728  1.845807
H    -0.318330  0.574214  -0.162088
H    -1.205456  1.918513  0.584566
H    0.377608  2.213518  -0.196007
N    -0.022733  0.492054  2.648593
C    -1.271200  -0.278398  2.620520
C    -1.776264  -0.232658  4.082204
O    -0.945223  0.024762  4.976047
H    0.295004  0.564917  3.632892
H    -1.983172  0.223091  1.952678
C    -1.065282  -1.732153  2.113141
C    -0.510606  -2.817180  3.059359
C    0.972509  -2.783517  3.479808
N    1.196765  -2.018972  4.714195
C    2.098351  -1.058466  4.919500
N    1.848171  -0.112049  5.856697
N    3.232275  -0.910439  4.187470
H    -0.448465  -1.682951  1.202658
H    -2.048352  -2.086990  1.773189
H    -0.652643  -3.770058  2.530866
H    -1.141413  -2.904114  3.958868
H    1.601975  -2.352656  2.688662
H    1.322162  -3.812480  3.641644
H    0.494176  -2.137187  5.441784
H    2.626284  0.266056  6.388341
H    0.913299  -0.026649  6.249900
H    3.553588  -1.752357  3.709233
N    -3.058435  -0.507592  4.336882
C    -4.143134  -0.814135  3.404623
H    -3.294792  -0.486380  5.328099
H    -3.986192  -0.322345  2.438889
H    -5.079877  -0.431394  3.821983
H    -4.246876  -1.896270  3.249828
Cd    3.038914  0.838489  3.079659
