36
Energy: -175309.29879 eV PBE+vdW (tier 2 basis)
C    -0.244557  0.669220  -0.062553
C    -0.232215  0.900501  1.416932
O    0.906958  0.907669  1.992467
H    -1.257698  0.656463  -0.478164
H    0.260888  -0.282405  -0.274451
H    0.344350  1.457152  -0.550956
N    -1.414408  1.080847  2.013689
C    -1.791694  1.150645  3.440707
C    -1.424527  2.512167  4.075287
O    -0.246983  2.830986  4.437847
H    -2.230529  0.956763  1.383399
H    -2.888014  1.124855  3.409756
C    -1.344782  -0.038204  4.324644
C    -1.561862  -1.454808  3.770717
C    -3.017206  -1.965701  3.658214
N    -3.852295  -1.258655  2.692697
C    -3.536540  -1.036760  1.369008
N    -2.683102  -1.924401  0.779843
N    -3.885699  0.037174  0.699671
H    -1.847712  0.081944  5.296857
H    -0.262430  0.039987  4.558465
H    -1.050036  -2.150168  4.451094
H    -1.055377  -1.562091  2.801702
H    -3.527344  -1.897088  4.627237
H    -2.976248  -3.041338  3.420111
H    -4.648722  -0.740806  3.046062
H    -2.674679  -2.884982  1.107296
H    -2.613050  -1.824658  -0.228702
H    -4.601445  0.589194  1.181967
N    -2.407085  3.375896  4.269702
C    -2.224482  4.703377  4.869627
H    -3.344745  3.111240  3.982741
H    -3.202570  5.184967  4.942227
H    -1.561253  5.312927  4.244445
H    -1.787110  4.607714  5.870140
Cd    1.495763  1.667523  3.901959
