36
Energy: -175310.709427 eV PBE+vdW (tier 2 basis)
C    -0.779456  -0.808996  2.403112
C    -1.149420  0.134215  3.515487
O    -0.499008  0.039929  4.614990
H    0.267412  -0.645268  2.117172
H    -1.419901  -0.692744  1.521811
H    -0.842839  -1.838199  2.779842
N    -2.138023  1.029895  3.443294
C    -2.543216  1.825654  2.318137
C    -1.972511  3.272608  2.540720
O    -1.570848  3.673548  3.674537
H    -4.121777  -2.338627  1.002517
H    -2.104982  1.450234  1.376433
C    -4.080492  1.901437  2.185375
C    -4.790796  0.609622  1.743235
C    -4.903725  -0.488350  2.817547
N    -5.994383  -1.439471  2.555829
C    -5.894304  -2.652260  1.996076
N    -6.914915  -3.515236  2.092198
N    -4.776029  -3.023918  1.354666
H    -4.341369  2.684162  1.461201
H    -4.488655  2.238115  3.151579
H    -4.319251  0.211207  0.829825
H    -5.812000  0.891597  1.447583
H    -5.118268  -0.035075  3.794600
H    -3.974819  -1.057032  2.945328
H    -6.926793  -1.151533  2.837036
H    -6.977171  -4.328881  1.491225
H    -7.662045  -3.380549  2.763304
H    -4.630231  -3.988600  1.081605
N    -1.915177  4.121434  1.518028
C    -2.295062  3.925883  0.121071
H    -1.560841  5.044769  1.768523
H    -2.244133  2.869397  -0.158486
H    -1.589701  4.477067  -0.509710
H    -3.307250  4.305568  -0.071960
Cd    -1.345993  2.063973  5.225128
