36
Energy: -175310.792204 eV PBE+vdW (tier 2 basis)
C    -0.378767  0.881364  -0.801894
C    -0.314587  0.696140  0.677074
O    0.696549  0.080025  1.220844
H    0.474490  1.484415  -1.144959
H    -1.303324  1.368295  -1.127089
H    -0.296229  -0.101389  -1.286630
N    -1.312971  1.105182  1.424623
C    -1.565542  0.977873  2.863911
C    -3.120548  0.780617  2.878910
O    -3.752151  1.188280  1.899307
H    -2.219911  1.396136  0.986235
H    -1.046364  0.094902  3.260716
C    -1.215794  2.286324  3.650938
C    0.041778  2.303054  4.538501
C    1.327765  1.995906  3.770942
N    2.551545  2.267314  4.510424
C    3.804298  2.102076  4.025919
N    4.834490  2.493853  4.792448
N    4.022213  1.567841  2.811282
H    -2.065497  2.520915  4.305277
H    -1.172857  3.112213  2.926096
H    -0.062157  1.591830  5.371553
H    0.111117  3.308574  4.980236
H    1.323466  2.597610  2.840412
H    1.277046  0.917455  3.525585
H    2.455801  2.591937  5.467308
H    5.793723  2.308141  4.524885
H    4.697833  3.016010  5.650543
H    4.997362  1.571332  2.522849
N    -3.650867  0.226247  3.975779
C    -5.090605  0.039258  4.167135
H    -3.028587  -0.116510  4.700331
H    -5.422625  0.563058  5.071247
H    -5.323937  -1.028054  4.258794
H    -5.609805  0.450091  3.297476
Cd    2.590996  0.708633  1.602116
