36
Energy: -175309.009068 eV PBE+vdW (tier 2 basis)
C    0.526187  -0.378395  -1.185686
C    0.863344  -0.520145  0.255500
O    2.089246  -0.724768  0.563431
H    -0.433114  0.109489  -1.363051
H    0.555334  -1.359734  -1.682725
H    1.332581  0.210712  -1.646920
N    -0.031354  -0.368823  1.270541
C    -1.343498  -0.991153  1.535192
C    -1.107689  -2.205663  2.483312
O    0.043010  -2.788859  2.636856
H    0.438556  -0.105577  2.138869
H    -1.910930  -0.254731  2.120652
C    -2.158518  -1.379698  0.285413
C    -2.946894  -0.227935  -0.376472
C    -4.399496  -0.019282  0.101166
N    -4.555983  0.558057  1.435128
C    -4.460966  -0.131960  2.604257
N    -4.278169  0.585585  3.744521
N    -4.459855  -1.454224  2.700210
H    -2.850798  -2.177083  0.580988
H    -1.494043  -1.858308  -0.446043
H    -3.015245  -0.438397  -1.453637
H    -2.400863  0.723836  -0.286423
H    -4.962605  -0.962298  0.030237
H    -4.896160  0.669677  -0.592425
H    -4.775988  1.548365  1.479753
H    -4.549691  0.136560  4.612738
H    -4.305924  1.598751  3.737222
H    -4.796342  -1.889035  1.838172
N    -2.144214  -2.642798  3.139804
C    -2.121240  -3.779591  4.060531
H    -3.131368  -2.126739  3.016246
H    -3.122840  -3.882677  4.487444
H    -1.395488  -3.614466  4.866178
H    -1.857396  -4.703297  3.530624
Cd    2.046172  -2.271948  2.109394
