36
Energy: -175309.142207 eV PBE+vdW (tier 2 basis)
C    -0.195206  0.151891  0.105533
C    -0.258745  -0.137464  1.574896
O    0.746707  -0.663870  2.126591
H    -1.111539  0.597324  -0.296109
H    0.011787  -0.786785  -0.426155
H    0.652399  0.821709  -0.090212
N    -1.404596  0.175684  2.214420
C    -1.836336  -0.119842  3.597481
C    -1.058764  0.735543  4.620687
O    0.040400  0.358789  5.130779
H    -2.119535  0.586659  1.621803
H    -2.876945  0.226853  3.624918
C    -1.860517  -1.619532  3.942447
C    -2.629674  -1.908975  5.237719
C    -2.650345  -3.418770  5.577844
N    -3.332875  -3.704588  6.818099
C    -4.660331  -3.984966  7.027471
N    -5.457906  -4.267756  5.959410
N    -5.027627  -3.924031  8.287356
H    -0.839703  -2.026535  4.009472
H    -2.333343  -2.135786  3.094002
H    -3.667603  -1.553496  5.149483
H    -2.178459  -1.370870  6.085366
H    -1.620945  -3.795875  5.670528
H    -3.108499  -3.985275  4.755072
H    -2.848045  -3.536152  7.697321
H    -6.404452  -4.574455  6.154043
H    -5.069450  -4.611339  5.087969
H    -6.023582  -4.125448  8.426598
N    -1.576291  1.896415  5.008066
C    -2.840641  2.522810  4.608182
H    -1.001324  2.403177  5.681938
H    -2.871971  2.703597  3.526919
H    -2.907161  3.490923  5.112198
H    -3.704064  1.920837  4.918123
Cd    1.658481  -0.753614  4.122774
