36
Energy: -175309.272666 eV PBE+vdW (tier 2 basis)
C    -1.296805  -0.322700  -0.549191
C    -0.823383  -0.263568  0.864017
O    0.422715  -0.034111  1.043443
H    -2.380778  -0.523623  -0.632981
H    -0.715470  -1.073428  -1.099983
H    -1.086700  0.648541  -1.022041
N    -1.722235  -0.428978  1.843370
C    -1.597827  -0.026538  3.256287
C    -1.078513  -1.177386  4.140146
O    0.135390  -1.567953  4.061845
H    -2.710589  -0.551175  1.529377
H    -0.793691  0.729825  3.307152
C    -2.875014  0.729459  3.700073
C    -4.257572  0.043254  3.880689
C    -4.736597  -1.025985  2.886325
N    -4.552565  -0.607219  1.498793
C    -4.846926  -1.422102  0.386282
N    -5.359683  -2.657293  0.642033
N    -4.515171  -0.916853  -0.762025
H    -2.978938  1.543666  2.968856
H    -2.638360  1.235026  4.647241
H    -4.988273  0.865791  3.892495
H    -4.359834  -0.390640  4.889013
H    -5.792195  -1.243030  3.127001
H    -4.179841  -1.968126  3.021449
H    -4.772726  0.365704  1.288069
H    -5.541450  -3.271265  -0.144921
H    -5.920114  -2.837440  1.468528
H    -4.770045  -1.508184  -1.558109
N    -1.876171  -1.763374  5.012629
C    -1.451941  -2.837299  5.918731
H    -2.831827  -1.426088  5.080065
H    -2.287626  -3.079921  6.579603
H    -0.595016  -2.508040  6.517660
H    -1.165549  -3.727230  5.345989
Cd    1.576975  -0.641077  2.740687
