36
Energy: -175310.639981 eV PBE+vdW (tier 2 basis)
C    -0.835301  0.656246  0.509691
C    -1.873171  0.617107  1.591487
O    -2.402122  1.670591  1.960150
H    -1.091138  0.094024  -0.398252
H    -0.568742  1.686377  0.270431
H    -5.093413  3.471932  1.157797
N    -2.204180  -0.558035  2.257795
C    -2.417325  -1.927858  1.760210
C    -1.208559  -2.872498  1.929485
O    0.005198  -2.511502  1.854846
H    -2.804592  -0.326758  3.046991
H    -3.182115  -2.330959  2.439471
C    -3.040552  -1.988411  0.343055
C    -4.387579  -1.222136  0.266731
C    -4.361096  0.035650  -0.620343
N    -5.620243  0.778377  -0.578931
C    -5.849659  1.956644  0.029631
N    -7.008829  2.589150  -0.217403
N    -4.968526  2.509488  0.865822
H    -3.198146  -3.042717  0.083636
H    -2.326158  -1.618910  -0.406523
H    -4.716427  -0.931460  1.275101
H    -5.162977  -1.898405  -0.117804
H    -4.172095  -0.240982  -1.667751
H    -3.557933  0.725480  -0.337771
H    -6.409688  0.366344  -1.066463
H    -7.304591  3.380881  0.340575
H    -7.599047  2.333130  -0.999272
H    -4.130397  2.044559  1.227137
N    -1.458403  -4.157933  2.173560
C    -2.740938  -4.831337  2.387521
H    -0.617816  -4.730678  2.246626
H    -3.337515  -4.874494  1.467794
H    -3.318957  -4.346612  3.184472
H    -2.531851  -5.856916  2.703636
Cd    0.788196  -0.567087  1.259467
