36
Energy: -175310.436658 eV PBE+vdW (tier 2 basis)
C    -2.337336  -0.962587  -0.057397
C    -1.467414  0.103931  0.521390
O    -0.785629  0.821178  -0.312508
H    -2.207812  -0.995735  -1.142012
H    -3.393773  -0.759581  0.171251
H    -2.087132  -1.945626  0.365762
N    -1.389139  0.318372  1.830961
C    -2.106449  -0.348363  2.926805
C    -2.577303  0.836636  3.809561
O    -1.887236  1.874407  3.787341
H    -1.073887  1.242974  2.184875
H    -2.958855  -0.900968  2.513420
C    -1.211549  -1.334388  3.740410
C    -0.311549  -0.730515  4.850177
C    1.215479  -0.740249  4.652536
N    1.725548  -0.214492  3.371702
C    1.772476  1.054889  2.952517
N    1.111415  2.028179  3.592074
N    2.454222  1.423853  1.818277
H    -0.625721  -1.929066  3.023884
H    -1.901503  -2.047176  4.210371
H    -0.468848  -1.303792  5.774001
H    -0.648593  0.282797  5.105563
H    1.594715  -1.767279  4.707826
H    1.689821  -0.183624  5.473732
H    2.146154  -0.893166  2.745178
H    1.376347  2.990314  3.409720
H    0.345081  1.862613  4.240464
H    3.235803  0.807297  1.585930
N    -3.652295  0.642225  4.573698
C    -4.187491  1.636796  5.505426
H    -4.153077  -0.237865  4.488564
H    -5.232354  1.853861  5.255495
H    -3.595269  2.551011  5.418528
H    -4.134537  1.258767  6.533512
Cd    1.032920  1.624615  0.305123
