36
Energy: -175309.634434 eV PBE+vdW (tier 2 basis)
C    1.215785  1.309090  -0.128274
C    0.951508  0.948553  1.293079
O    1.819156  1.213499  2.187945
H    1.237530  2.402174  -0.245649
H    0.497079  0.870016  -0.826068
H    2.226042  0.955680  -0.379001
N    -0.204533  0.336670  1.653781
C    -1.538294  0.783817  1.228756
C    -2.135493  1.680957  2.349636
O    -1.419024  2.002473  3.432432
H    -0.182153  -0.013762  2.612220
H    -1.393122  1.436371  0.356484
C    -2.467285  -0.362072  0.790821
C    -2.835080  -1.377867  1.878019
C    -3.652186  -2.566375  1.346186
N    -4.986920  -2.224902  0.834293
C    -6.150135  -2.379890  1.482328
N    -7.302936  -2.320120  0.799507
N    -6.181967  -2.587599  2.805228
H    -1.976883  -0.875682  -0.050677
H    -3.375861  0.117622  0.400988
H    -3.381630  -0.875135  2.691065
H    -1.927787  -1.815337  2.323800
H    -3.770399  -3.334220  2.122261
H    -3.115661  -3.055071  0.520966
H    -5.049435  -1.911558  -0.128664
H    -8.193336  -2.236388  1.275615
H    -7.328208  -2.425966  -0.207572
H    -5.361264  -2.461928  3.382091
N    -3.353038  2.029472  2.224817
C    -4.033869  3.023288  3.017720
H    -7.020377  -2.929240  3.259909
H    -4.856886  3.442733  2.424956
H    -3.371024  3.833577  3.350397
H    -4.484658  2.551880  3.905172
Cd    0.657720  2.300942  3.750552
