36
Energy: -175308.836518 eV PBE+vdW (tier 2 basis)
C    -2.996194  2.109324  1.932091
C    -2.811981  0.881774  2.755299
O    -2.646948  1.027662  4.014329
H    -3.531626  2.841825  2.550626
H    -3.544316  1.932419  1.004981
H    -2.017393  2.559408  1.705370
N    -2.876769  -0.381655  2.259208
C    -2.176768  -1.002589  1.120072
C    -0.779547  -1.403112  1.626596
O    -0.215722  -0.790994  2.602356
H    -3.043766  -1.057649  3.006588
H    -2.754748  -1.918566  0.877390
C    -2.100453  -0.156062  -0.165479
C    -3.444667  -0.057743  -0.907665
C    -3.729917  -1.262455  -1.853002
N    -4.988834  -1.946634  -1.620096
C    -5.132817  -3.008179  -0.773735
N    -6.331371  -3.646651  -0.788736
N    -4.114311  -3.328193  0.006858
H    -1.354483  -0.616950  -0.827738
H    -1.693006  0.837627  0.057812
H    -3.446837  0.867218  -1.498512
H    -4.273806  0.031473  -0.191894
H    -2.929925  -2.008120  -1.777087
H    -3.744159  -0.916572  -2.893395
H    -5.793921  -1.649139  -2.160517
H    -6.491565  -4.434728  -0.174976
H    -7.013427  -3.503936  -1.524872
H    -4.333075  -4.168093  0.550619
N    -0.115744  -2.381096  1.028252
C    -0.518246  -3.202180  -0.115464
H    0.819579  -2.542182  1.404988
H    -0.099249  -4.204636  0.021227
H    -0.121396  -2.785701  -1.051115
H    -1.610369  -3.281450  -0.172461
Cd    -0.830254  -0.077901  4.587563
