36
Energy: -175310.008047 eV PBE+vdW (tier 2 basis)
C    0.428053  -0.880783  -0.076144
C    0.174767  -0.723488  1.391027
O    0.968122  -1.335789  2.182688
H    0.378874  -1.951021  -0.321848
H    1.449037  -0.549301  -0.305487
H    -0.285959  -0.337867  -0.704015
N    -0.865602  0.034380  1.767575
C    -1.577392  0.229635  3.069463
C    -0.892583  1.220337  4.030447
O    0.122274  0.842285  4.809083
H    -1.332866  0.487131  0.987257
H    -2.471351  0.773858  2.747880
C    -2.008949  -1.106896  3.704779
C    -2.859106  -0.999118  4.984142
C    -4.312041  -0.512594  4.829707
N    -4.448420  0.935435  4.636147
C    -4.694388  1.869863  5.570578
N    -5.396287  1.584611  6.674489
N    -4.216091  3.101895  5.360326
H    -1.123497  -1.717063  3.947910
H    -2.547579  -1.686525  2.939974
H    -2.348220  -0.385242  5.741209
H    -2.919778  -2.011605  5.408677
H    -4.870264  -0.797444  5.728445
H    -4.811447  -1.012594  3.988121
H    -4.116115  1.318837  3.758482
H    -6.029453  0.794431  6.704603
H    -5.455387  2.249953  7.436470
H    -4.591697  3.913714  5.836324
N    -1.403923  2.396477  4.121074
C    -0.746585  3.417939  4.930349
H    -3.428465  3.214478  4.721471
H    -1.105992  4.403578  4.612178
H    0.347288  3.389157  4.840133
H    -0.991369  3.290502  5.996620
Cd    1.389245  -0.657872  4.155909
