36
Energy: -175310.781981 eV PBE+vdW (tier 2 basis)
C    0.714657  1.116898  0.048519
C    0.340323  0.514583  1.362320
O    1.225636  -0.140248  2.072009
H    1.540452  1.833165  0.171061
H    -0.123273  1.627781  -0.435859
H    1.077992  0.317660  -0.613342
N    -0.895380  0.593219  1.781563
C    -1.519562  0.077050  3.004097
C    -2.990939  0.570169  2.830053
O    -3.201501  1.435313  1.967938
H    -1.629178  1.141174  1.266763
H    -1.473340  -1.021598  2.985734
C    -0.869379  0.575687  4.318523
C    -0.630603  2.088677  4.413144
C    0.241681  2.503729  5.612297
N    1.599760  1.941747  5.503909
C    2.763333  2.591144  5.224062
N    2.968937  3.831139  5.674140
N    3.660962  1.938005  4.463352
H    0.069875  0.015940  4.441591
H    -1.510794  0.251462  5.149456
H    -1.589647  2.621076  4.492077
H    -0.156417  2.471382  3.494189
H    -0.199962  2.176210  6.563268
H    0.315851  3.596785  5.647353
H    1.703044  0.950861  5.702075
H    3.726660  4.404305  5.317111
H    2.458573  4.188457  6.475954
H    4.625163  2.268658  4.480670
N    -3.952720  0.062556  3.613100
C    -3.884222  -1.027479  4.581635
H    -4.869894  0.470515  3.438393
H    -4.799202  -1.624919  4.506157
H    -3.802156  -0.652559  5.611335
H    -3.041185  -1.693428  4.369335
Cd    2.768293  0.763833  3.024578
