36
Energy: -175309.106216 eV PBE+vdW (tier 2 basis)
C    -1.877572  0.213111  0.623763
C    -1.215043  0.142563  1.964754
O    0.036899  -0.088092  1.993314
H    -2.521621  1.098754  0.545493
H    -2.508031  -0.684549  0.491601
H    -1.120827  0.241352  -0.164184
N    -1.999626  0.314803  3.040502
C    -1.719184  0.063227  4.468074
C    -0.751464  1.111296  5.055385
O    0.514590  0.953216  5.085977
H    -3.012537  0.309642  2.839590
H    -2.685665  0.264575  4.945889
C    -1.339053  -1.409107  4.784003
C    -2.359117  -2.158084  5.662201
C    -3.804335  -2.232683  5.121006
N    -3.902485  -2.762816  3.770373
C    -4.183037  -2.071803  2.617372
N    -4.746256  -0.790320  2.765274
N    -3.902969  -2.455222  1.412386
H    -0.372332  -1.453942  5.310915
H    -1.213885  -1.948492  3.834684
H    -2.406263  -1.709691  6.666528
H    -1.979557  -3.178975  5.813759
H    -4.283202  -1.246755  5.145256
H    -4.388997  -2.869052  5.802240
H    -3.594260  -3.721586  3.630815
H    -5.127524  -0.500282  1.863241
H    -5.471547  -0.723546  3.479195
H    -3.484374  -3.388553  1.359527
N    -1.251182  2.213800  5.592987
C    -2.654956  2.614593  5.735732
H    -0.547849  2.852151  5.968211
H    -2.670793  3.640846  6.113261
H    -3.179606  1.978720  6.460509
H    -3.169867  2.600983  4.768336
Cd    1.522477  -0.174689  3.544698
