36
Energy: -175310.806232 eV PBE+vdW (tier 2 basis)
C    0.372190  0.044883  2.993864
C    -0.139071  -1.345453  3.209703
O    0.682504  -2.220209  3.677408
H    1.267372  0.208017  3.601187
H    -0.377628  0.810354  3.227271
H    0.664817  0.162932  1.938933
N    -1.381710  -1.777356  2.951267
C    -2.354427  -1.043521  2.153986
C    -3.271902  -0.264257  3.098104
O    -3.168044  -0.526745  4.370790
H    -2.409527  -1.179315  4.424685
H    -1.877848  -0.314653  1.477390
C    -3.157626  -2.053456  1.279842
C    -3.915225  -3.123976  2.086162
C    -4.052673  -4.488259  1.363740
N    -3.951397  -5.623086  2.292277
C    -2.827065  -5.917117  2.977722
N    -2.915421  -6.568447  4.150526
N    -1.606096  -5.561694  2.528379
H    -2.407683  -2.523773  0.626867
H    -3.836217  -1.508308  0.608522
H    -4.911249  -2.760397  2.374098
H    -3.380970  -3.303904  3.028964
H    -3.296973  -4.587500  0.570816
H    -5.019065  -4.582700  0.857209
H    -4.802454  -6.130398  2.516496
H    -2.115683  -7.104740  4.470432
H    -3.809451  -6.765332  4.586683
H    -1.618814  -5.437517  1.514607
N    -4.139536  0.622447  2.692524
C    -5.050012  1.404042  3.542803
H    -4.178257  0.800625  1.689987
H    -6.086181  1.124594  3.318030
H    -4.907648  2.468944  3.327085
H    -4.831565  1.205668  4.594092
Cd    -0.517594  -3.958497  3.335239
