36
Energy: -175310.132706 eV PBE+vdW (tier 2 basis)
C    1.940759  -0.070228  1.138303
C    0.900538  0.013032  2.221236
O    0.690740  1.286366  2.584653
H    2.893588  0.338508  1.498600
H    1.634983  0.540816  0.278700
H    2.072254  -1.111081  0.829193
N    0.344624  -1.086809  2.636572
C    -0.773703  -1.109286  3.555442
C    -0.297294  -1.095820  5.022997
O    -0.464061  -0.028628  5.734758
H    -6.819463  -2.795982  0.314986
H    -1.421244  -0.197000  3.486489
C    -1.721142  -2.281825  3.208980
C    -2.363182  -2.094292  1.828169
C    -3.098609  -3.362400  1.372404
N    -3.625975  -3.276759  0.005120
C    -4.904399  -3.109494  -0.359790
N    -5.265911  -3.341464  -1.630153
N    -5.831459  -2.711747  0.522203
H    -2.490946  -2.371679  3.990898
H    -1.143028  -3.214315  3.206534
H    -1.570327  -1.859190  1.102192
H    -3.055117  -1.236549  1.835199
H    -3.925930  -3.623289  2.047011
H    -2.412284  -4.220906  1.393378
H    -2.955070  -3.388721  -0.748910
H    -6.157486  -3.022903  -1.990908
H    -4.677355  -3.873464  -2.260010
H    -5.577183  -2.331701  1.423601
N    0.313856  -2.116562  5.596595
C    0.727840  -3.396828  5.017307
H    0.580608  -1.944399  6.566780
H    -0.033395  -4.169659  5.181852
H    1.649927  -3.705357  5.520478
H    0.937637  -3.273619  3.951061
Cd    -0.226201  1.620693  4.399361
