36
Energy: -175308.749267 eV PBE+vdW (tier 2 basis)
C    0.488167  0.818026  0.756888
C    0.141999  -0.085733  1.892553
O    1.004420  -0.331091  2.786099
H    -0.162098  0.686604  -0.113258
H    1.531230  0.628684  0.473193
H    0.445244  1.866054  1.091712
N    -1.089601  -0.656974  1.974938
C    -2.344008  0.065339  1.774705
C    -2.543296  1.000913  3.001892
O    -1.876918  0.853753  4.069134
H    -1.149354  -1.375951  2.698343
H    -2.248310  0.688031  0.873560
C    -3.521436  -0.925773  1.637053
C    -3.439396  -1.911263  0.461308
C    -3.723563  -1.289636  -0.921018
N    -3.827640  -2.272525  -1.986741
C    -4.963833  -2.979944  -2.282351
N    -4.903384  -3.890067  -3.285572
N    -6.126912  -2.878469  -1.666059
H    -4.456623  -0.349038  1.577033
H    -3.593941  -1.496737  2.576501
H    -4.181295  -2.701936  0.643757
H    -2.461117  -2.414505  0.444585
H    -2.929882  -0.589038  -1.217023
H    -4.653149  -0.700127  -0.891763
H    -2.971882  -2.517653  -2.474726
H    -5.761898  -4.385524  -3.503584
H    -4.120443  -3.981043  -3.921589
H    -6.144261  -2.130463  -0.967024
N    -3.461255  1.953608  2.911493
C    -3.786974  2.881745  4.000602
H    -3.993252  2.034007  2.049782
H    -4.511622  3.609751  3.627698
H    -2.883855  3.406011  4.332604
H    -4.218990  2.338709  4.849623
Cd    0.120290  0.056121  4.819235
