36
Energy: -175310.658891 eV PBE+vdW (tier 2 basis)
C    0.479892  1.464683  0.686157
C    0.589197  0.410491  1.731855
O    1.759156  0.219834  2.250597
H    1.033533  2.351698  1.019376
H    -0.554803  1.737243  0.458838
H    0.971545  1.114008  -0.233208
N    -0.449295  -0.315009  2.125217
C    -1.851323  -0.374586  1.704710
C    -2.554497  -1.011278  2.936985
O    -1.868767  -1.695054  3.732804
H    -0.366867  -0.917309  2.965918
H    -2.240579  0.643580  1.562597
C    -2.089219  -1.177094  0.391634
C    -1.270852  -2.448677  0.093248
C    -1.423789  -3.697180  0.992455
N    -0.613777  -3.644335  2.216762
C    0.705247  -3.807545  2.288066
N    1.438313  -4.184817  1.224515
N    1.418008  -3.542573  3.441630
H    -1.903371  -0.486591  -0.443500
H    -3.163682  -1.408853  0.343641
H    -0.203392  -2.190797  0.005848
H    -1.570821  -2.755991  -0.919146
H    -1.157524  -4.600964  0.426311
H    -2.464880  -3.842521  1.307110
H    -1.051603  -3.135499  3.000575
H    2.351561  -4.588488  1.410400
H    1.007136  -4.428643  0.339766
H    0.833660  -3.622251  4.278716
N    -3.860455  -0.797847  3.062916
C    -4.689314  -1.343577  4.140202
H    -4.316530  -0.189250  2.387985
H    -5.192958  -0.524295  4.665822
H    -4.047434  -1.884981  4.839047
H    -5.444339  -2.023417  3.727292
Cd    2.127205  -1.581925  3.254962
