36
Energy: -175310.303924 eV PBE+vdW (tier 2 basis)
C    -1.399833  2.657959  0.809802
C    -0.991621  1.677281  1.876276
O    0.327243  1.613955  1.974599
H    -0.906384  3.622351  0.986118
H    -2.483559  2.801589  0.788601
H    -1.058197  2.300040  -0.170345
N    -1.918890  1.050998  2.557760
C    -1.589459  0.219503  3.707945
C    -1.169234  -1.218667  3.318368
O    0.066102  -1.574404  3.432837
H    -3.674902  1.604029  2.408484
H    -0.687961  0.609122  4.240959
C    -2.694280  0.250272  4.786989
C    -2.791999  1.583363  5.547044
C    -3.464692  2.759609  4.823597
N    -4.887544  2.543943  4.537583
C    -5.431364  2.292803  3.336771
N    -6.760598  2.427455  3.185075
N    -4.675613  1.897252  2.307215
H    -2.473773  -0.542341  5.517143
H    -3.666154  -0.004492  4.344602
H    -1.788275  1.917294  5.854538
H    -3.334722  1.397936  6.485443
H    -2.962256  3.006977  3.882414
H    -3.397143  3.652252  5.459854
H    -5.533947  2.674464  5.309665
H    -7.319584  2.947443  3.850745
H    -7.232623  2.090100  2.355460
H    -5.071125  1.914168  1.374746
N    -2.013798  -2.129842  2.869874
C    -3.452551  -2.034681  2.623946
H    -1.577134  -3.031359  2.670299
H    -4.024314  -2.343948  3.507979
H    -3.694560  -2.710604  1.797396
H    -3.721157  -1.016790  2.330786
Cd    1.292185  0.129933  3.055054
