36
Energy: -175311.20857 eV PBE+vdW (tier 2 basis)
C    0.216375  0.941059  -0.838561
C    -0.291950  -0.003846  0.186094
O    0.513973  -0.629097  0.943994
H    0.680420  1.807396  -0.343940
H    -0.552135  1.268722  -1.543886
H    1.026814  0.439520  -1.388273
N    -1.629588  -0.231417  0.329733
C    -2.650323  0.804171  0.496407
C    -2.132817  1.838307  1.518317
O    -1.256788  1.508456  2.373231
H    -1.833737  -1.092744  0.837772
H    -2.840634  1.298842  -0.465249
C    -3.979985  0.139253  0.959018
C    -3.916195  -0.892385  2.105181
C    -3.683306  -0.359960  3.535010
N    -3.408745  -1.436043  4.485044
C    -2.256386  -1.673830  5.152092
N    -2.338194  -2.460867  6.243302
N    -1.073269  -1.167662  4.778494
H    -4.403378  -0.363680  0.079057
H    -4.687844  0.940003  1.215073
H    -3.181167  -1.691013  1.898261
H    -4.875078  -1.430721  2.090074
H    -4.576971  0.181388  3.878517
H    -2.858361  0.357086  3.598474
H    -4.197587  -2.018287  4.749916
H    -1.511101  -2.878368  6.652719
H    -3.215290  -2.613192  6.728105
H    -0.365335  -1.281711  5.501111
N    -2.614601  3.076283  1.508987
C    -3.619433  3.679731  0.630722
H    -2.234856  3.673443  2.244575
H    -3.342350  4.723372  0.450085
H    -4.612523  3.655364  1.097915
H    -3.663312  3.167078  -0.334462
Cd    -0.348954  -0.513205  2.929164
