36
Energy: -175308.51212 eV PBE+vdW (tier 2 basis)
C    -0.823388  -0.704753  0.330841
C    -0.454469  -0.772010  1.784094
O    0.533484  -1.534960  2.078377
H    -0.337430  0.174503  -0.119092
H    -1.905192  -0.621211  0.180596
H    -0.447749  -1.594280  -0.182669
N    -1.109368  -0.072283  2.694998
C    -2.171954  0.924973  2.526245
C    -1.901435  1.896932  3.711972
O    -1.399679  1.425286  4.738807
H    -0.811127  -0.068532  3.686129
H    -2.057695  1.434086  1.558921
C    -3.567094  0.260893  2.639192
C    -4.745421  1.217868  2.409162
C    -6.116792  0.535829  2.428422
N    -6.497369  0.090112  3.762031
C    -7.514901  -0.773472  4.058685
N    -8.284718  -1.267291  3.063558
N    -7.777258  -1.214817  5.279290
H    -3.633423  -0.215844  3.629000
H    -3.611434  -0.553828  1.899965
H    -4.647509  1.703430  1.426436
H    -4.742270  2.032012  3.150710
H    -6.119610  -0.340161  1.757434
H    -6.875028  1.240907  2.040916
H    -6.070107  0.550923  4.560062
H    -9.007615  -1.926797  3.336175
H    -8.314564  -0.883163  2.127617
H    -7.184065  -0.780163  5.996220
N    -2.259961  3.180344  3.546716
C    -2.075213  4.203164  4.576130
H    -2.570466  3.482638  2.628844
H    -2.968732  4.834375  4.634707
H    -1.206312  4.833043  4.345883
H    -1.910568  3.705797  5.535701
Cd    1.862686  -1.816536  3.787212
