36
Energy: -175311.217251 eV PBE+vdW (tier 2 basis)
C    -0.301910  1.201254  -1.370422
C    -1.138736  1.664509  -0.222211
O    -1.966979  2.601997  -0.403921
H    0.335703  2.032767  -1.701203
H    -0.958355  0.950683  -2.213742
H    0.326978  0.337877  -1.129124
N    -0.971455  1.047044  0.972224
C    -1.761777  1.376337  2.154995
C    -1.191662  2.645606  2.840256
O    -1.646391  3.786513  2.521603
H    -0.264003  0.319452  1.031912
H    -2.737182  1.678360  1.761130
C    -2.116089  0.216624  3.094294
C    -3.256752  0.667626  4.039410
C    -4.708168  0.284637  3.668129
N    -5.151630  0.418634  2.265957
C    -5.211234  1.519195  1.486844
N    -5.461120  1.340060  0.163850
N    -4.955033  2.764851  1.905120
H    -1.247701  -0.120384  3.678930
H    -2.421263  -0.645351  2.484180
H    -3.184109  1.753581  4.206064
H    -3.102461  0.227393  5.033354
H    -5.394297  0.831468  4.332557
H    -4.857464  -0.778049  3.892510
H    -5.630907  -0.400443  1.902837
H    -5.938714  2.088261  -0.328047
H    -5.594155  0.409668  -0.217037
H    -5.019833  2.884982  2.915204
N    -0.209392  2.510676  3.718148
C    0.475126  3.617292  4.393306
H    0.094797  1.568510  3.948975
H    0.299439  3.557387  5.474051
H    0.087894  4.563353  4.009313
H    1.552059  3.551752  4.199575
Cd    -3.250342  3.723642  1.001202
