36
Energy: -175311.455722 eV PBE+vdW (tier 2 basis)
C    -1.460143  1.460628  -0.319693
C    -1.005173  0.924650  1.003259
O    0.145739  1.220525  1.417234
H    -2.452283  1.109997  -0.622253
H    -0.726296  1.185172  -1.087975
H    -1.467486  2.558156  -0.267811
N    -1.876170  0.142135  1.679905
C    -1.778558  -0.490196  3.014067
C    -1.538296  0.576038  4.114436
O    -0.386466  1.023940  4.401217
H    -2.764308  -0.004036  1.210201
H    -2.790393  -0.880877  3.172417
C    -0.799445  -1.705057  3.169322
C    -0.104547  -2.218713  1.901083
C    0.929481  -3.339449  2.139756
N    1.871104  -3.161152  3.263239
C    2.510520  -2.037937  3.637197
N    2.976413  -1.946254  4.900089
N    2.672371  -0.968842  2.829750
H    -1.375678  -2.522301  3.624394
H    -0.048247  -1.448968  3.932892
H    0.362662  -1.391945  1.349712
H    -0.844092  -2.640974  1.206039
H    1.484330  -3.515093  1.206050
H    0.405002  -4.276653  2.364085
H    2.050322  -3.996839  3.813446
H    2.795538  -2.666189  5.590729
H    3.754770  -1.320654  5.078917
H    2.649651  -1.229579  1.843265
N    -2.607005  0.998063  4.775452
C    -2.594476  2.008948  5.835491
H    -3.509287  0.603156  4.524216
H    -3.244346  1.676600  6.651763
H    -2.964743  2.966081  5.446506
H    -1.573072  2.134709  6.201564
Cd    1.342738  0.636143  3.154552
