36
Energy: -175309.10812 eV PBE+vdW (tier 2 basis)
C    -1.489949  1.744924  1.264791
C    -0.712607  1.098169  2.368475
O    0.454002  0.680414  2.106355
H    -2.467612  2.122803  1.582193
H    -1.630356  1.012734  0.457621
H    -0.897790  2.569547  0.846852
N    -1.300087  1.006132  3.575969
C    -0.821987  0.348265  4.810597
C    0.475501  1.008282  5.323375
O    1.621540  0.469054  5.160815
H    -2.246156  1.374140  3.624256
H    -1.612111  0.574579  5.542607
C    -0.755605  -1.184422  4.676979
C    -0.558847  -2.009009  5.957367
C    -1.769965  -2.135818  6.919511
N    -1.897932  -1.062274  7.892251
C    -2.637738  0.086741  7.805023
N    -3.532200  0.192886  6.749063
N    -2.491747  1.133041  8.570818
H    0.050007  -1.480495  3.970435
H    -1.678553  -1.496230  4.166031
H    0.317894  -1.662425  6.524153
H    -0.317884  -3.032395  5.637064
H    -1.646379  -3.066802  7.488703
H    -2.703615  -2.253191  6.354600
H    -1.290554  -1.117012  8.704703
H    -4.167553  0.975706  6.896047
H    -4.029184  -0.653485  6.481591
H    -1.822409  0.983861  9.332850
N    0.401917  2.156402  5.982107
C    -0.784091  2.920188  6.371526
H    1.307710  2.521775  6.280045
H    -1.408808  3.146485  5.499809
H    -0.443555  3.866661  6.800491
H    -1.380751  2.391984  7.138345
Cd    2.069973  -0.311002  3.174051
