36
Energy: -175310.881087 eV PBE+vdW (tier 2 basis)
C    0.596873  0.859792  0.688733
C    0.113390  -0.348854  1.419624
O    0.699096  -1.508224  1.250133
H    0.010010  1.754657  0.918012
H    0.542492  0.662138  -0.391467
H    1.651995  1.060309  0.926464
N    -0.938389  -0.261811  2.191160
C    -1.625936  -1.282248  2.987052
C    -2.765152  -0.438966  3.652863
O    -2.707508  0.792816  3.547630
H    -1.430483  0.650088  2.370405
H    -2.066772  -2.024768  2.303989
C    -0.731346  -2.025268  4.007137
C    0.128166  -1.134402  4.913559
C    1.179064  -1.909379  5.729656
N    2.162573  -2.563533  4.848426
C    3.468500  -2.233734  4.647938
N    4.208026  -1.764834  5.655815
N    3.951207  -2.377738  3.400177
H    -0.110319  -2.731377  3.435885
H    -1.388799  -2.653232  4.625740
H    -0.510539  -0.584627  5.620297
H    0.649974  -0.362003  4.324484
H    0.710785  -2.674200  6.364016
H    1.708832  -1.215966  6.393035
H    1.853421  -3.395558  4.354508
H    3.953983  -1.949253  6.621495
H    5.109556  -1.328329  5.491650
H    4.963507  -2.416561  3.286146
N    -3.719513  -1.113480  4.304232
C    -4.859590  -0.461921  4.952917
H    -3.730190  -2.126859  4.245609
H    -5.030987  -0.913854  5.935776
H    -5.764023  -0.570046  4.341094
H    -4.632812  0.600834  5.070574
Cd    2.545542  -1.945542  1.956963
