36
Energy: -175309.092347 eV PBE+vdW (tier 2 basis)
C    -2.096856  -2.244357  1.677410
C    -1.337435  -1.312153  2.565481
O    -0.171826  -0.955238  2.198183
H    -3.001476  -2.630792  2.163659
H    -1.447912  -3.081931  1.393053
H    -2.365633  -1.718759  0.749878
N    -1.925016  -0.914438  3.703119
C    -1.402787  0.098481  4.615676
C    -0.136382  -0.381696  5.368559
O    0.989462  0.172296  5.097437
H    -2.929833  -1.133581  3.804803
H    -1.041171  0.953288  4.011934
C    -2.490033  0.664436  5.550113
C    -3.729343  1.248357  4.829734
C    -4.996097  0.377971  4.857380
N    -4.894678  -0.888177  4.110676
C    -4.891977  -2.138590  4.734478
N    -5.117233  -3.202892  3.894660
N    -4.549430  -2.388306  5.963126
H    -2.003650  1.452144  6.141131
H    -2.799685  -0.101401  6.271904
H    -3.488235  1.517486  3.789476
H    -3.993755  2.195432  5.319268
H    -5.826855  0.953495  4.429071
H    -5.286193  0.161201  5.895066
H    -5.348809  -0.863700  3.199964
H    -5.176450  -4.099318  4.371500
H    -5.758315  -3.100397  3.113502
H    -4.483877  -1.542005  6.534055
N    -0.150811  -1.318447  6.300108
C    -1.252703  -2.094661  6.875886
H    0.772934  -1.492771  6.702807
H    -2.058454  -2.259443  6.154124
H    -1.648374  -1.598846  7.771990
H    -0.850371  -3.068844  7.172964
Cd    1.316782  0.424413  2.972912
