36
Energy: -175310.590802 eV PBE+vdW (tier 2 basis)
C    -0.100054  -0.168949  1.015402
C    -0.487992  0.378699  2.343894
O    0.401766  0.585794  3.222196
H    0.701844  -0.902823  1.169547
H    0.336491  0.633147  0.399656
H    -0.932227  -0.635155  0.479840
N    -1.797116  0.646934  2.627303
C    -2.663441  1.418707  1.737360
C    -2.115130  2.870351  1.712720
O    -1.326672  3.281096  2.616055
H    -1.983139  0.830480  3.615154
H    -2.558579  0.992833  0.729880
C    -4.164249  1.317807  2.128755
C    -4.759145  2.303625  3.160519
C    -4.761350  1.914257  4.650670
N    -3.430450  1.817181  5.272214
C    -2.615650  2.851726  5.586072
N    -3.002491  4.106239  5.345801
N    -1.349243  2.678271  6.067237
H    -4.349110  0.274731  2.425834
H    -4.732734  1.451321  1.200075
H    -5.821369  2.428043  2.905474
H    -4.320952  3.304377  3.020551
H    -5.235742  0.934332  4.784077
H    -5.382432  2.626048  5.217421
H    -3.157199  0.914494  5.649114
H    -2.421134  4.854286  5.709386
H    -3.927859  4.345450  5.011108
H    -1.263536  1.828664  6.632636
N    -2.477026  3.690621  0.731270
C    -3.368857  3.435402  -0.402311
H    -2.073042  4.625164  0.797116
H    -3.292242  2.396524  -0.740001
H    -3.063769  4.081434  -1.231170
H    -4.412039  3.662696  -0.147436
Cd    -0.112223  2.397993  4.340018
