36
Energy: -175311.579816 eV PBE+vdW (tier 2 basis)
C    -0.393729  -0.364580  0.671420
C    -0.249511  -0.260099  2.158892
O    0.876763  -0.428316  2.689096
H    -1.426246  -0.270479  0.319350
H    0.016947  -1.326364  0.338945
H    0.217152  0.420195  0.204231
N    -1.367460  0.008412  2.869730
C    -1.521261  0.187221  4.325225
C    -0.704913  1.419594  4.792176
O    0.521585  1.348306  5.127848
H    -2.220177  0.104020  2.327225
H    -2.579287  0.442984  4.439156
C    -1.245916  -1.048084  5.233531
C    -1.162843  -2.436605  4.584792
C    -0.492726  -3.474356  5.514441
N    0.856843  -3.063951  5.926696
C    2.010830  -3.176144  5.205375
N    2.287497  -4.346440  4.612903
N    2.811887  -2.107969  5.130799
H    -2.022093  -1.050217  6.011785
H    -0.315144  -0.856210  5.793123
H    -0.589790  -2.400754  3.647692
H    -2.164216  -2.804577  4.321976
H    -0.447577  -4.443419  5.004122
H    -1.078190  -3.629682  6.429489
H    0.922031  -2.418187  6.706668
H    3.043825  -4.428834  3.942608
H    1.879494  -5.209245  4.958129
H    3.775560  -2.293383  4.852805
N    -1.305360  2.599126  4.855433
C    -2.699109  2.940328  4.549114
H    -0.698088  3.361213  5.159160
H    -3.396019  2.415103  5.213849
H    -2.939573  2.729625  3.500008
H    -2.822403  4.014154  4.713906
Cd    1.808216  -0.307381  4.704303
