36
Energy: -175309.142031 eV PBE+vdW (tier 2 basis)
C    -1.043944  -2.140499  0.434132
C    -0.802479  -1.166980  1.543558
O    0.347220  -0.652589  1.657228
H    -0.867500  -1.631322  -0.523635
H    -2.056494  -2.558167  0.437874
H    -0.309980  -2.953787  0.502762
N    -1.831341  -0.877182  2.366693
C    -1.837043  0.170661  3.390161
C    -1.072263  -0.280008  4.659475
O    0.095271  0.184598  4.873024
H    -2.718612  -1.328547  2.158676
H    -1.232257  1.008498  3.004109
C    -3.260282  0.710810  3.607074
C    -3.332868  1.870742  4.609882
C    -4.766706  2.378067  4.883890
N    -5.550229  1.536058  5.775675
C    -6.278378  0.437437  5.403041
N    -6.828846  -0.311506  6.402267
N    -6.429941  -0.005971  4.172346
H    -3.936960  -0.103639  3.901984
H    -3.610532  1.059246  2.622829
H    -2.750039  2.723091  4.227606
H    -2.876920  1.591009  5.572616
H    -5.313046  2.527945  3.940361
H    -4.706310  3.366233  5.355488
H    -5.520746  1.776512  6.761858
H    -7.506429  -1.004962  6.100413
H    -6.963193  0.066240  7.333753
H    -6.156013  0.693159  3.476547
N    -1.574709  -1.133338  5.542802
C    -2.877283  -1.801691  5.589655
H    -0.937452  -1.330933  6.315735
H    -2.777596  -2.673842  6.242657
H    -3.180676  -2.156694  4.600400
H    -3.653148  -1.144507  6.003200
Cd    1.426332  0.544914  3.155045
