36
Energy: -175311.568162 eV PBE+vdW (tier 2 basis)
C    0.211087  0.404162  0.954289
C    -0.593862  0.660215  2.186351
O    -0.472263  1.761732  2.789122
H    0.023474  1.208814  0.231215
H    -0.003938  -0.562736  0.487501
H    1.277677  0.453005  1.212976
N    -1.437582  -0.313956  2.608338
C    -2.308670  -0.173843  3.769232
C    -1.541682  -0.396447  5.088518
O    -1.074100  0.619682  5.689044
H    -1.470218  -1.175724  2.070139
H    -2.557757  0.892488  3.805923
C    -3.694031  -0.806915  3.627389
C    -4.614995  0.037245  2.716687
C    -4.598121  1.564018  2.918126
N    -4.854248  1.988058  4.313825
C    -4.464213  3.183136  4.856562
N    -5.367464  3.836553  5.609377
N    -3.231219  3.670785  4.679963
H    -4.126449  -0.865349  4.636353
H    -3.647474  -1.839806  3.251121
H    -5.641597  -0.336701  2.837930
H    -4.369610  -0.132412  1.658262
H    -5.365720  1.998945  2.259373
H    -3.650854  2.013739  2.593904
H    -5.735019  1.642113  4.688793
H    -5.086068  4.578098  6.241624
H    -6.364435  3.682284  5.502458
H    -3.157996  4.654806  4.932781
N    -1.374441  -1.625950  5.548456
C    -0.633178  -1.976269  6.763730
H    -1.805900  -2.388308  5.032076
H    0.103848  -2.751831  6.526977
H    -1.324511  -2.355997  7.525874
H    -0.125288  -1.085716  7.140239
Cd    -1.443672  2.523085  4.619782
