36
Energy: -175309.523043 eV PBE+vdW (tier 2 basis)
C    0.277639  1.225521  1.320599
C    -0.123213  -0.047585  1.983258
O    0.762168  -0.940441  2.210649
H    -0.243504  2.089832  1.742939
H    0.040549  1.168000  0.245855
H    1.361785  1.346984  1.412529
N    -1.407883  -0.299099  2.338522
C    -2.621336  -0.120525  1.502754
C    -2.461132  -0.996944  0.234458
O    -1.963431  -2.231311  0.381034
H    -1.489457  -1.064638  3.007740
H    -3.409920  -0.602642  2.101996
C    -3.045440  1.332443  1.251833
C    -4.565715  1.435265  1.064756
C    -5.072991  2.798917  0.595559
N    -4.472806  3.351379  -0.643981
C    -4.615228  2.865108  -1.893036
N    -4.718711  3.723899  -2.919078
N    -4.634188  1.546749  -2.117495
H    -2.520919  1.730709  0.372043
H    -2.743205  1.938736  2.117500
H    -5.067392  1.241828  2.025380
H    -4.924591  0.648833  0.388103
H    -4.867092  3.556241  1.362020
H    -6.164942  2.752730  0.473006
H    -4.255698  4.342124  -0.600084
H    -4.561823  3.426157  -3.875239
H    -5.018698  4.681816  -2.778156
H    -4.929750  1.205002  -3.024798
N    -2.914852  -0.579593  -0.890889
C    -2.737926  -1.370219  -2.100854
H    -4.133433  0.882150  -1.503605
H    -3.569314  -2.084540  -2.204869
H    -1.802394  -1.943897  -2.109324
H    -2.759951  -0.703240  -2.971431
Cd    -0.167115  -2.745269  1.337116
