36
Energy: -175310.588896 eV PBE+vdW (tier 2 basis)
C    -0.634728  -0.187535  -0.246562
C    -0.899463  -1.180196  0.834021
O    -0.628743  -2.433484  0.583464
H    -1.267401  -0.449519  -1.108534
H    0.405355  -0.260989  -0.588756
H    -0.860346  0.839800  0.055925
N    -1.442616  -0.774186  1.960811
C    -2.078500  -1.503954  3.062797
C    -2.828107  -0.344881  3.812046
O    -2.495266  0.816404  3.553830
H    -1.623319  0.244394  2.130184
H    -2.807930  -2.210684  2.638654
C    -1.138742  -2.285274  4.012337
C    0.134352  -1.559486  4.469907
C    1.040473  -2.436782  5.379848
N    2.424273  -2.572293  4.890403
C    2.767994  -3.185810  3.749129
N    3.918479  -2.879693  3.132675
N    1.968108  -4.127211  3.166335
H    -0.886793  -3.257187  3.544843
H    -1.734952  -2.571773  4.891311
H    -0.138607  -0.637286  5.000293
H    0.719295  -1.213787  3.600909
H    0.605996  -3.435724  5.530915
H    1.121162  -2.001935  6.381176
H    3.147618  -2.075730  5.405250
H    4.331539  -3.564404  2.506698
H    4.516708  -2.124475  3.452881
H    1.391087  -4.598088  3.866718
N    -3.763141  -0.706270  4.699110
C    -4.552774  0.259651  5.467559
H    -4.035392  -1.682768  4.755895
H    -4.608109  -0.059651  6.513876
H    -5.567577  0.337901  5.057876
H    -4.065345  1.235933  5.405162
Cd    0.736469  -3.497559  1.636812
