36
Energy: -175311.205945 eV PBE+vdW (tier 2 basis)
C    0.517757  0.013230  0.171754
C    0.272403  0.044817  1.645193
O    1.200636  0.440688  2.408220
H    -0.356322  -0.301896  -0.407740
H    1.354575  -0.668552  -0.033171
H    0.833820  1.011473  -0.158885
N    -0.941930  -0.350962  2.091787
C    -1.361356  -0.322640  3.493524
C    -0.772222  -1.541864  4.248677
O    0.308931  -1.374404  4.889777
H    -1.618405  -0.640483  1.390287
H    -0.830903  0.531297  3.934633
C    -2.840694  0.050755  3.675449
C    -3.312101  0.167968  5.140542
C    -2.392327  0.870490  6.162708
N    -1.931335  2.207597  5.770453
C    -0.645160  2.567048  5.564122
N    -0.390986  3.669864  4.830121
N    0.411689  1.857321  6.013319
H    -3.505907  -0.648918  3.153116
H    -2.963993  1.018186  3.166318
H    -3.502239  -0.831737  5.559604
H    -4.292132  0.665123  5.127292
H    -1.504715  0.259241  6.362477
H    -2.929549  0.945304  7.117866
H    -2.644907  2.925016  5.661008
H    0.490612  4.149442  4.980620
H    -1.133681  4.202880  4.391348
H    0.172908  1.293419  6.830092
N    -1.335279  -2.744137  4.220813
C    -2.540869  -3.203754  3.528368
H    -0.815425  -3.446849  4.748041
H    -2.471971  -4.290323  3.421073
H    -2.611669  -2.776677  2.522952
H    -3.448849  -2.972410  4.099535
Cd    1.352620  0.594824  4.570409
