36
Energy: -175311.814249 eV PBE+vdW (tier 2 basis)
C    1.352907  1.397115  0.472733
C    1.013311  0.753809  1.781187
O    1.961286  0.294885  2.481134
H    2.056744  2.220130  0.655195
H    0.481689  1.779703  -0.068993
H    1.875729  0.664257  -0.156442
N    -0.290124  0.711341  2.125383
C    -0.946786  0.121457  3.310936
C    -0.449672  0.814378  4.599144
O    0.575693  0.408609  5.220302
H    -0.920140  1.117752  1.440074
H    -2.006117  0.381141  3.192709
C    -0.858900  -1.416943  3.362482
C    -1.585216  -2.050785  4.568562
C    -0.851669  -3.260298  5.173675
N    0.454688  -2.838757  5.692510
C    1.668928  -3.389062  5.432163
N    1.766767  -4.722141  5.320021
N    2.709077  -2.563047  5.267706
H    0.195890  -1.737730  3.348740
H    -1.272198  -1.798375  2.419377
H    -2.593432  -2.372757  4.276906
H    -1.733904  -1.311109  5.371875
H    -0.685562  -4.038107  4.415867
H    -1.466434  -3.698824  5.972035
H    0.478934  -1.947302  6.180686
H    1.087592  -5.331888  5.763101
H    2.607783  -5.156358  4.956339
H    3.635035  -2.981229  5.338319
N    -1.132805  1.851764  5.070697
C    -2.344216  2.480021  4.532238
H    -0.730678  2.265964  5.912063
H    -3.186742  1.777625  4.512119
H    -2.169417  2.891747  3.530704
H    -2.613935  3.307568  5.193982
Cd    2.241892  -0.754557  4.315472
