36
Energy: -175308.503048 eV PBE+vdW (tier 2 basis)
C    0.183613  -0.443147  0.337226
C    -0.137424  0.296784  1.584150
O    0.775963  0.964941  2.171157
H    1.227632  -0.770189  0.357975
H    0.077182  0.249117  -0.522255
H    -0.478462  -1.292712  0.145492
N    -1.383330  0.302838  2.131611
C    -2.272250  -0.864580  2.277438
C    -1.430873  -2.015544  2.901779
O    -0.369387  -1.770255  3.555949
H    -1.461638  0.984995  2.884651
H    -2.964576  -0.577467  3.086862
C    -3.143702  -1.194509  1.049930
C    -4.240845  -0.162564  0.719261
C    -3.801054  1.206128  0.178552
N    -3.040990  1.095786  -1.057603
C    -1.886167  1.765029  -1.360754
N    -1.536068  2.831883  -0.577106
N    -1.023951  1.376553  -2.271388
H    -3.677876  -2.135095  1.247941
H    -2.513898  -1.388397  0.171631
H    -4.864664  0.019392  1.607540
H    -4.917296  -0.628228  -0.013648
H    -3.173444  1.739181  0.904190
H    -4.701418  1.823934  0.021102
H    -3.362382  0.430286  -1.755197
H    -0.701490  3.314163  -0.902258
H    -2.263198  3.443691  -0.219875
H    -1.366430  0.612213  -2.863111
N    -1.862774  -3.262261  2.801224
C    -1.207873  -4.406906  3.445405
H    -2.702136  -3.442442  2.260110
H    -1.817583  -5.296027  3.267154
H    -1.120667  -4.233779  4.523976
H    -0.207607  -4.561292  3.023817
Cd    1.081934  -0.131120  4.086119
