36
Energy: -175309.819315 eV PBE+vdW (tier 2 basis)
C    -0.570162  2.176667  -0.152261
C    -0.978262  2.100765  1.289168
O    -1.041862  3.261502  1.939571
H    -1.254110  2.846980  -0.689591
H    -0.564110  1.197382  -0.636209
H    0.433105  2.618310  -0.244020
N    -1.301794  0.956497  1.819893
C    -1.693066  0.817121  3.211151
C    -0.893914  1.557972  4.283195
O    0.352252  1.843536  4.143932
H    -1.346579  -0.769434  0.711738
H    -2.734628  1.177924  3.299659
C    -1.685738  -0.701761  3.543196
C    -2.808359  -1.429724  2.792272
C    -2.534066  -2.902390  2.490210
N    -1.274001  -3.205112  1.767744
C    -0.921199  -2.803940  0.531265
N    -0.229674  -3.648579  -0.250795
N    -1.226189  -1.580817  0.081122
H    -1.777691  -0.868665  4.624732
H    -0.696155  -1.085413  3.254815
H    -3.046215  -0.901017  1.859997
H    -3.736296  -1.400294  3.382262
H    -3.380115  -3.320874  1.925304
H    -2.457564  -3.470817  3.425322
H    -0.801070  -4.044969  2.086942
H    0.293040  -3.317638  -1.053500
H    -0.244847  -4.649208  -0.090297
H    -1.132064  -1.389236  -0.909493
N    -1.486247  1.845225  5.439270
C    -2.868928  1.595872  5.848842
H    -0.862750  2.244498  6.140928
H    -3.069076  2.182776  6.749557
H    -3.036915  0.536072  6.078761
H    -3.568375  1.915350  5.066575
Cd    0.687787  3.673958  3.038514
