36
Energy: -175310.63454 eV PBE+vdW (tier 2 basis)
C    -0.310873  0.736773  -0.925549
C    -0.002628  0.710197  0.528624
O    1.232479  0.900397  0.884466
H    -1.384991  0.757255  -1.130968
H    0.144097  -0.135986  -1.415712
H    0.165100  1.623401  -1.366496
N    -0.920506  0.509220  1.461018
C    -2.286983  -0.010179  1.468746
C    -2.715884  0.284009  2.937356
O    -1.807575  0.477245  3.778813
H    -0.706837  0.695655  2.470926
H    -2.918663  0.549165  0.766248
C    -2.353916  -1.529055  1.126167
C    -1.271150  -2.439494  1.736194
C    -1.374037  -2.749948  3.245128
N    -0.127015  -3.333844  3.768401
C    1.007390  -2.645330  3.979146
N    2.189279  -3.286261  3.990175
N    1.004872  -1.304878  4.183418
H    -2.283843  -1.620012  0.033182
H    -3.357516  -1.895235  1.385774
H    -0.277881  -2.011682  1.524519
H    -1.290865  -3.389502  1.184481
H    -2.167093  -3.482043  3.436520
H    -1.628112  -1.862816  3.835157
H    -0.094006  -4.344303  3.876974
H    2.955529  -2.886513  4.522307
H    2.264704  -4.268109  3.745884
H    0.084248  -0.957815  4.469338
N    -4.008036  0.287090  3.260201
C    -5.182882  0.124002  2.404466
H    -4.182848  0.462668  4.249511
H    -5.938373  0.861844  2.695546
H    -5.612522  -0.880450  2.513066
H    -4.933321  0.295221  1.353450
Cd    1.671431  0.005765  2.720376
