36
Energy: -175308.647437 eV PBE+vdW (tier 2 basis)
C    -3.859645  0.691636  -2.957198
C    -2.540206  0.953758  -2.313644
O    -1.546938  1.288930  -3.024283
H    -4.347154  1.646821  -3.206732
H    -4.527287  0.086487  -2.336582
H    -3.679115  0.181244  -3.912113
N    -2.385328  0.827458  -0.968060
C    -3.298685  1.388621  0.027916
C    -3.184182  2.932907  -0.071083
O    -2.131165  3.484818  -0.508629
H    -1.407456  0.843798  -0.672875
H    -4.323927  1.076821  -0.217573
C    -2.876964  0.864234  1.424740
C    -3.872250  1.011577  2.584515
C    -5.047137  0.010238  2.541705
N    -5.829870  -0.023960  3.765446
C    -5.490561  -0.746680  4.880423
N    -6.307771  -0.670165  5.959995
N    -4.419411  -1.504221  5.021306
H    -1.934027  1.360515  1.701963
H    -2.637544  -0.202418  1.292185
H    -4.251587  2.041377  2.672152
H    -3.311065  0.837471  3.513790
H    -4.667653  -1.002240  2.333903
H    -5.747399  0.238259  1.725408
H    -6.648482  0.573804  3.813539
H    -6.051840  -1.233002  6.764928
H    -7.221959  -0.234417  5.949283
H    -3.875077  -1.593271  4.158650
N    -4.216562  3.654692  0.351061
C    -4.268030  5.118144  0.387454
H    -5.029040  3.153649  0.699198
H    -5.215486  5.458030  -0.044636
H    -3.432211  5.518874  -0.189981
H    -4.193402  5.473992  1.422693
Cd    -0.575303  3.112749  -2.139734
