36
Energy: -175310.233303 eV PBE+vdW (tier 2 basis)
C    -1.087355  0.661620  0.191658
C    -0.326185  0.363797  1.444806
O    0.884386  -0.027569  1.310582
H    -2.116996  0.987146  0.372150
H    -1.103678  -0.248920  -0.424449
H    -0.552525  1.425232  -0.387694
N    -0.959359  0.513748  2.617029
C    -0.667605  0.050580  4.006273
C    0.244941  0.956480  4.850859
O    1.541854  1.113803  4.587871
H    -1.894911  0.898678  2.519333
H    -1.641026  0.170863  4.493023
C    -0.281156  -1.440613  4.094114
C    -0.267123  -1.939594  5.548820
C    -1.670134  -2.013742  6.180818
N    -1.652527  -2.082543  7.640460
C    -1.901876  -1.054471  8.469922
N    -2.161982  -1.312013  9.761913
N    -1.911225  0.206108  8.024760
H    0.709640  -1.628971  3.651113
H    -0.989473  -2.022321  3.485530
H    0.374074  -1.288863  6.160678
H    0.194001  -2.936029  5.575110
H    -2.207022  -2.898635  5.813175
H    -2.288341  -1.147484  5.912532
H    -1.476897  -2.985893  8.068647
H    -2.142582  -0.577254  10.458606
H    -2.432325  -2.236745  10.075006
H    -1.429138  0.520730  7.162653
N    -0.279606  1.473472  5.905302
C    0.513933  2.343291  6.770345
H    -2.291793  0.933368  8.619048
H    -0.153257  2.826744  7.492011
H    1.035861  3.122030  6.198692
H    1.274492  1.771982  7.324236
Cd    2.322165  0.480667  2.786558
