36
Energy: -175308.730821 eV PBE+vdW (tier 2 basis)
C    0.686739  1.229602  0.579315
C    0.450750  0.770765  1.978707
O    1.396118  0.810325  2.820639
H    0.713679  2.329611  0.547989
H    -0.061662  0.858298  -0.127175
H    1.684596  0.889830  0.272472
N    -0.765956  0.298820  2.361169
C    -2.037189  0.956643  2.063265
C    -2.116585  2.238944  2.930086
O    -1.369698  2.388039  3.948331
H    -0.751864  -0.148966  3.279247
H    -2.040972  1.244645  1.002580
C    -3.213566  0.009471  2.375287
C    -3.324178  -1.229594  1.472118
C    -3.659292  -0.969238  -0.001517
N    -4.866280  -0.183282  -0.148021
C    -5.293379  0.489621  -1.266046
N    -4.598778  0.310969  -2.424533
N    -6.315326  1.289589  -1.065061
H    -4.144538  0.590745  2.344608
H    -3.118802  -0.321374  3.421521
H    -4.096220  -1.884596  1.902633
H    -2.393978  -1.814147  1.502684
H    -3.753878  -1.947624  -0.507701
H    -2.838764  -0.438096  -0.515914
H    -5.554945  -0.165560  0.600077
H    -4.930032  0.791088  -3.254036
H    -4.082716  -0.544983  -2.600561
H    -6.630275  1.756848  -1.921978
N    -2.995532  3.188195  2.630176
C    -3.992347  3.229909  1.559091
H    -2.995856  3.974257  3.282030
H    -4.036362  4.250602  1.164331
H    -4.986555  2.957300  1.936851
H    -3.724415  2.554380  0.741987
Cd    0.698687  1.844680  4.687019
