36
Energy: -175310.590297 eV PBE+vdW (tier 2 basis)
C    -0.330545  -0.865776  -0.255833
C    -0.142254  -0.446407  1.162513
O    1.062560  -0.552497  1.636269
H    0.344569  -0.293157  -0.904896
H    -1.364737  -0.745080  -0.593500
H    -0.042483  -1.922920  -0.349183
N    -1.186240  -0.028327  1.853966
C    -1.327859  0.236926  3.286008
C    -2.845243  -0.070800  3.531278
O    -3.601393  0.166065  2.588241
H    -2.120914  0.014353  1.407418
H    -0.673738  -0.452094  3.845028
C    -1.020379  1.718620  3.651545
C    -0.710948  1.916520  5.142043
C    -0.163873  3.289926  5.560854
N    0.969603  3.843649  4.786561
C    1.993042  3.202338  4.212191
N    2.669576  3.800900  3.207312
N    2.378084  1.944177  4.550096
H    -1.869501  2.342350  3.335905
H    -0.180297  2.069240  3.023430
H    -0.044889  1.114482  5.498195
H    -1.632274  1.791106  5.727941
H    0.104282  3.261149  6.627428
H    -0.957635  4.041685  5.462621
H    0.949949  4.855049  4.674271
H    3.649870  3.565572  3.083699
H    2.368873  4.693016  2.827263
H    2.104642  1.683139  5.496742
N    -3.264243  -0.518396  4.727811
C    -2.513980  -1.009940  5.877683
H    -4.277585  -0.628834  4.767156
H    -2.898185  -1.994680  6.169309
H    -2.609078  -0.333467  6.737580
H    -1.453675  -1.129162  5.635148
Cd    1.939348  0.514634  3.128453
