36
Energy: -175309.039796 eV PBE+vdW (tier 2 basis)
C    0.470112  0.639211  0.176144
C    0.270145  0.621922  1.657570
O    1.260449  0.920890  2.396674
H    0.826689  1.633140  -0.124169
H    -0.441719  0.378515  -0.372624
H    1.267238  -0.072262  -0.079657
N    -0.940980  0.277470  2.124108
C    -1.327766  0.255721  3.536095
C    -0.642879  -0.915449  4.285438
O    0.284966  -0.658326  5.127671
H    -1.673551  0.142543  1.410200
H    -0.907801  1.155774  4.017930
C    -2.861802  0.292908  3.748285
C    -3.499496  1.675199  3.981840
C    -3.486620  2.684256  2.819480
N    -4.016062  2.118057  1.578149
C    -3.194687  1.812146  0.505197
N    -2.292389  2.775007  0.152315
N    -3.145828  0.642971  -0.078474
H    -3.090800  -0.308682  4.638928
H    -3.353984  -0.225118  2.912536
H    -3.037367  2.162222  4.854405
H    -4.544085  1.492072  4.276262
H    -2.471635  3.044935  2.609043
H    -4.079509  3.563013  3.115443
H    -4.838165  1.525746  1.669149
H    -2.560546  3.744180  0.292667
H    -1.809108  2.599201  -0.723282
H    -3.911921  0.019516  0.191903
N    -0.989563  -2.181192  4.109670
C    -2.040367  -2.769212  3.276929
H    -0.456167  -2.832210  4.689078
H    -1.738864  -3.792475  3.031964
H    -2.155736  -2.215731  2.340848
H    -2.996682  -2.806434  3.813890
Cd    1.740712  0.841166  4.520002
