36
Energy: -175311.455883 eV PBE+vdW (tier 2 basis)
C    -1.640024  -1.175162  -0.152583
C    -1.777524  -0.880067  1.312513
O    -2.051300  -1.833713  2.086454
H    -2.547184  -1.686508  -0.498467
H    -0.806106  -1.877328  -0.289111
H    -1.464831  -0.288960  -0.771314
N    -1.587704  0.408763  1.681028
C    -1.574707  1.123299  2.982304
C    -0.620834  0.460083  4.004576
O    -0.803911  -0.675842  4.534438
H    -1.381860  1.019707  0.896274
H    -1.114320  2.084919  2.722174
C    -2.981626  1.498395  3.543308
C    -3.705720  0.314687  4.175496
C    -5.102048  0.447103  4.783889
N    -5.336333  -0.577599  5.824344
C    -5.230659  -1.935106  5.785835
N    -6.073676  -2.607863  6.598098
N    -4.346810  -2.615880  5.041108
H    -3.557288  1.932190  2.713314
H    -2.838672  2.299116  4.283933
H    -3.072036  -0.012142  5.015141
H    -3.789133  -0.456816  3.393348
H    -5.880835  0.394895  4.009195
H    -5.212092  1.410823  5.296682
H    -5.888235  -0.239271  6.605968
H    -6.946541  -2.202559  6.916680
H    -5.889916  -3.568093  6.864602
H    -4.580454  -3.606695  5.012955
N    0.450090  1.170153  4.344472
C    1.452321  0.707714  5.308377
H    0.597706  2.073751  3.906103
H    2.199522  1.495263  5.433154
H    1.939456  -0.204014  4.942303
H    0.979961  0.495274  6.274392
Cd    -2.465924  -2.083785  4.209149
