36
Energy: -175311.46502 eV PBE+vdW (tier 2 basis)
C    -0.233171  0.232846  1.176847
C    -0.906055  0.482777  2.486758
O    -0.647449  1.538357  3.127164
H    -0.415294  1.087280  0.511880
H    -0.565259  -0.688314  0.686567
H    0.852131  0.184680  1.340953
N    -1.782493  -0.448440  2.940351
C    -2.528925  -0.289640  4.181082
C    -1.663590  -0.595015  5.423482
O    -1.163911  0.392514  6.049640
H    -1.946279  -1.266257  2.359820
H    -2.681396  0.791379  4.269256
C    -3.975075  -0.792965  4.163893
C    -4.908269  0.164645  3.388041
C    -4.750362  1.675598  3.633485
N    -4.846255  2.066074  5.058385
C    -4.327495  3.216404  5.589633
N    -5.105444  3.903027  6.445079
N    -3.088180  3.626958  5.299750
H    -4.301738  -0.863319  5.211568
H    -4.062957  -1.805800  3.748821
H    -5.944659  -0.133448  3.602376
H    -4.787122  0.020323  2.304456
H    -5.535331  2.193058  3.060214
H    -3.802496  2.062112  3.237039
H    -5.708906  1.764745  5.506723
H    -4.713363  4.604615  7.063851
H    -6.115872  3.813031  6.439514
H    -2.917222  4.594189  5.569157
N    -1.421275  -1.828737  5.839713
C    -1.905556  -3.097260  5.293070
H    -0.832186  -1.879667  6.671778
H    -2.892683  -3.354562  5.697314
H    -1.197208  -3.881867  5.575489
H    -1.948572  -3.065991  4.200056
Cd    -1.422448  2.339101  5.038161
