36
Energy: -175309.37272 eV PBE+vdW (tier 2 basis)
C    1.327110  0.678334  0.841380
C    0.805624  0.617040  2.241625
O    1.504037  1.173977  3.152963
H    1.435948  1.733738  0.554619
H    2.333377  0.240212  0.813651
H    0.672189  0.157802  0.133299
N    -0.363385  -0.005122  2.443307
C    -1.161662  -0.017585  3.680953
C    -0.692172  -1.156871  4.613134
O    0.303946  -1.001304  5.396608
H    -0.815905  -0.371436  1.578941
H    -0.946514  0.915513  4.230833
C    -2.666638  -0.033545  3.354268
C    -3.170160  1.282455  2.722005
C    -4.269792  1.091671  1.655669
N    -3.851216  0.212062  0.554978
C    -2.596747  0.328323  -0.023838
N    -2.193874  1.588058  -0.339500
N    -1.752232  -0.667757  -0.150317
H    -3.220415  -0.235516  4.281220
H    -2.867044  -0.877004  2.672533
H    -2.333823  1.822725  2.255340
H    -3.564998  1.945930  3.502981
H    -4.568360  2.077033  1.269275
H    -5.174632  0.646158  2.086581
H    -4.208882  -0.737422  0.584262
H    -1.357951  1.652616  -0.910456
H    -2.899207  2.292201  -0.528383
H    -2.189353  -1.579570  0.010708
N    -1.321806  -2.316682  4.601101
C    -0.940437  -3.467541  5.429514
H    -2.142024  -2.407809  4.009024
H    -1.091104  -3.237146  6.491138
H    0.113378  -3.717004  5.263288
H    -1.567543  -4.316829  5.147852
Cd    1.624854  0.708351  5.247083
