36
Energy: -175310.246897 eV PBE+vdW (tier 2 basis)
C    1.012333  -0.287223  -0.134818
C    1.021611  -0.406058  1.355013
O    2.138688  -0.251132  1.955940
H    0.018901  -0.429184  -0.573555
H    1.715061  -1.011708  -0.565927
H    1.382595  0.712455  -0.403726
N    -0.138095  -0.650035  1.983642
C    -0.464444  -0.509282  3.417889
C    -0.376318  -1.837645  4.199471
O    0.800465  -2.460655  4.235768
H    -0.936630  -0.778397  1.368190
H    0.336414  0.122986  3.844917
C    -1.762899  0.313956  3.593248
C    -2.971032  0.059501  2.671601
C    -3.656726  -1.313354  2.750049
N    -4.046549  -1.684302  4.104570
C    -5.261413  -1.605052  4.646505
N    -6.274558  -0.975873  4.030332
N    -5.485338  -2.171468  5.844870
H    -1.488620  1.370169  3.466367
H    -2.061270  0.205083  4.644642
H    -2.716067  0.252269  1.615959
H    -3.703925  0.843115  2.915930
H    -2.986480  -2.111617  2.398599
H    -4.529968  -1.342185  2.084973
H    -3.221794  -1.974376  4.666476
H    -7.232101  -1.102173  4.335250
H    -6.123758  -0.390423  3.220465
H    -6.328031  -1.979281  6.372076
N    -1.393707  -2.318015  4.820923
C    -1.230826  -3.492999  5.671206
H    -4.834507  -2.840728  6.234332
H    -2.065589  -3.537681  6.381433
H    -0.285967  -3.483352  6.229682
H    -1.253618  -4.412414  5.067011
Cd    2.523206  -1.432579  3.699711
