36
Energy: -175309.156985 eV PBE+vdW (tier 2 basis)
C    -0.986974  -2.243818  0.413027
C    -0.909428  -1.293876  1.566894
O    -0.107864  -0.321508  1.504016
H    -1.249456  -1.679057  -0.491695
H    -1.714585  -3.049018  0.561181
H    0.006577  -2.677733  0.239483
N    -1.713767  -1.520675  2.627563
C    -1.862866  -0.630275  3.779677
C    -0.656824  -0.742681  4.746328
O    0.210489  0.189085  4.752374
H    -2.327455  -2.328721  2.572282
H    -1.785904  0.400748  3.398931
C    -3.250457  -0.761584  4.435199
C    -4.361327  -0.081313  3.621398
C    -5.744574  -0.152588  4.309364
N    -6.282456  -1.491266  4.420934
C    -6.979914  -2.209579  3.481829
N    -7.315488  -1.602165  2.307780
N    -7.215936  -3.457137  3.818164
H    -3.193061  -0.301061  5.433433
H    -3.495014  -1.821616  4.596411
H    -4.435941  -0.523469  2.616204
H    -4.121310  0.983929  3.482129
H    -6.447738  0.496829  3.766767
H    -5.682325  0.262729  5.324379
H    -6.174135  -2.010601  5.287640
H    -7.940552  -2.103324  1.686484
H    -7.362712  -0.591306  2.234932
H    -7.757335  -3.964618  3.110535
N    -0.485602  -1.762329  5.578408
C    -1.316121  -2.941845  5.824909
H    0.354880  -1.675172  6.151800
H    -0.672990  -3.720237  6.246818
H    -1.742341  -3.328761  4.894530
H    -2.115414  -2.725154  6.544623
Cd    0.826604  1.165696  2.867281
