36
Energy: -175308.502543 eV PBE+vdW (tier 2 basis)
C    -0.068668  1.239264  0.833537
C    -0.071435  0.630100  2.200175
O    0.845783  0.899260  3.055968
H    -0.818541  0.816020  0.160045
H    0.923422  1.110115  0.382893
H    -0.260942  2.318992  0.921400
N    -1.008025  -0.223087  2.592725
C    -2.145430  -0.803703  1.874970
C    -3.194153  -1.038187  3.006234
O    -2.788246  -1.492688  4.076237
H    -0.948534  -0.572866  3.559499
H    -2.521062  -0.089923  1.129453
C    -1.753764  -2.148942  1.218849
C    -2.925499  -2.887963  0.555644
C    -2.581661  -4.303663  0.083812
N    -1.670505  -4.319559  -1.052366
C    -0.919327  -5.386877  -1.464355
N    -0.993977  -6.556940  -0.792070
N    -0.059908  -5.338777  -2.469868
H    -1.316420  -2.782301  2.005630
H    -0.952966  -1.951129  0.489344
H    -3.334272  -2.305741  -0.287078
H    -3.751433  -2.997364  1.272076
H    -3.515738  -4.833321  -0.179042
H    -2.112859  -4.865963  0.907942
H    -1.721120  -3.547619  -1.710589
H    -0.388162  -7.304427  -1.117274
H    -1.734351  -6.788863  -0.142187
H    -0.072762  -4.436392  -2.959588
N    -4.474774  -0.753426  2.716368
C    -5.562394  -0.921379  3.681278
H    -4.687664  -0.306668  1.830735
H    -5.803700  0.031984  4.168770
H    -5.245693  -1.639260  4.443330
H    -6.452058  -1.296865  3.164661
Cd    2.222048  2.582257  3.317616
