36
Energy: -175309.200761 eV PBE+vdW (tier 2 basis)
C    0.099849  0.291153  0.194784
C    0.001313  0.207282  1.682894
O    0.922022  0.792579  2.356674
H    -0.876620  0.147723  -0.294074
H    0.814103  -0.469422  -0.156629
H    0.517529  1.267520  -0.078299
N    -1.028298  -0.466542  2.207479
C    -1.545945  -0.411634  3.585750
C    -0.909214  -1.487926  4.488307
O    0.294469  -1.370495  4.907053
H    -1.731166  -0.833374  1.521643
H    -1.202102  0.542528  4.025758
C    -3.090931  -0.290791  3.558746
C    -4.047806  -1.441819  3.152590
C    -3.760552  -2.304822  1.906396
N    -3.204494  -1.578080  0.761691
C    -3.863527  -0.553032  0.037625
N    -5.168728  -0.309693  0.359648
N    -3.113709  0.083126  -0.800751
H    -3.287569  0.566268  2.898535
H    -3.401405  0.043151  4.559210
H    -5.022756  -0.949266  3.040463
H    -4.223419  -2.140345  3.988498
H    -4.679183  -2.862476  1.653575
H    -3.012261  -3.075640  2.141318
H    -2.676419  -2.164245  0.116996
H    -5.772783  -1.071341  0.653526
H    -5.644526  0.433697  -0.141966
H    -3.618156  0.775521  -1.360961
N    -1.603834  -2.544281  4.861523
C    -1.084833  -3.602024  5.737055
H    -2.569745  -2.604282  4.552515
H    -1.883599  -4.327176  5.910580
H    -0.762733  -3.175476  6.694272
H    -0.231563  -4.101471  5.263510
Cd    1.529985  0.294756  4.333029
