36
Energy: -175310.8455 eV PBE+vdW (tier 2 basis)
C    0.296715  0.443028  0.447131
C    -0.243647  0.012968  1.761811
O    0.435096  0.163492  2.822367
H    0.434797  1.534124  0.441849
H    -0.323497  0.129707  -0.397223
H    1.303839  0.013818  0.336637
N    -1.481172  -0.562882  1.858571
C    -2.722534  0.030635  1.345502
C    -2.686387  1.543917  1.664123
O    -2.187983  1.949617  2.758855
H    -1.631622  -1.029652  2.761514
H    -2.823620  -0.152535  0.266063
C    -3.943877  -0.540061  2.119092
C    -4.106635  -2.058514  2.325666
C    -3.161639  -2.818681  3.299847
N    -2.439268  -1.978259  4.282474
C    -3.018073  -1.228385  5.296967
N    -4.257873  -1.527200  5.700553
N    -2.303283  -0.211276  5.764002
H    -4.834819  -0.196011  1.576131
H    -3.994348  -0.028866  3.093343
H    -4.062642  -2.582145  1.360874
H    -5.139554  -2.184760  2.676180
H    -2.364874  -3.318035  2.735881
H    -3.722611  -3.628754  3.790948
H    -1.528225  -2.345467  4.554815
H    -4.758131  -0.927426  6.349192
H    -4.647188  -2.451954  5.545467
H    -2.631303  0.205339  6.634918
N    -3.225262  2.375931  0.785556
C    -3.352616  3.825214  0.956015
H    -3.591566  1.975699  -0.075177
H    -2.877329  4.117050  1.894868
H    -4.413095  4.103681  0.976678
H    -2.863968  4.336652  0.118693
Cd    -1.072650  0.777471  4.324646
