36
Energy: -175311.080861 eV PBE+vdW (tier 2 basis)
C    -0.850888  -0.304766  -0.621559
C    -0.555049  -0.424497  0.831316
O    0.628509  -0.605682  1.236130
H    -0.626636  0.720879  -0.956140
H    -1.886468  -0.552203  -0.873711
H    -0.161395  -0.960422  -1.168196
N    -1.560893  -0.327153  1.755743
C    -2.595780  0.702017  1.747665
C    -1.907001  2.084513  1.851645
O    -0.701196  2.194262  2.242253
H    -1.353790  -0.713776  2.681855
H    -3.127640  0.652517  0.786734
C    -3.617817  0.419414  2.883125
C    -3.425739  1.054690  4.276042
C    -2.086552  0.967163  5.016834
N    -1.528279  -0.407504  5.113856
C    -0.246083  -0.609902  5.587174
N    -0.065477  -1.545902  6.530206
N    0.763897  0.086239  5.071867
H    -3.681350  -0.675689  2.960751
H    -4.609267  0.733525  2.533493
H    -4.215348  0.628374  4.913227
H    -3.659251  2.129303  4.229854
H    -2.232487  1.376252  6.028727
H    -1.336502  1.604993  4.539463
H    -2.197622  -1.085515  5.475909
H    0.861039  -1.890428  6.760399
H    -0.828472  -1.873288  7.113298
H    1.643753  -0.008528  5.575757
N    -2.584375  3.176708  1.524006
C    -3.969252  3.288025  1.059501
H    -2.063475  4.046746  1.638953
H    -4.057782  4.197985  0.458634
H    -4.666012  3.357008  1.904972
H    -4.244110  2.437239  0.427227
Cd    0.725007  0.680876  3.039165
