36
Energy: -175309.643297 eV PBE+vdW (tier 2 basis)
C    -1.544540  0.007308  -1.523893
C    -0.482334  0.217763  -0.503607
O    0.736014  0.347863  -0.874923
H    -1.634358  0.889773  -2.173066
H    -2.514901  -0.248484  -1.089979
H    -1.212613  -0.815291  -2.175296
N    -0.775322  0.270577  0.817591
C    -1.873494  1.053454  1.416570
C    -1.217871  2.320196  2.032741
O    -0.302061  2.979671  1.312234
H    0.024246  0.105903  1.432138
H    -2.490601  1.405821  0.574512
C    -2.740638  0.232508  2.377647
C    -4.140383  0.835305  2.550981
C    -4.984113  0.198547  3.657333
N    -4.369474  0.115207  5.003414
C    -4.087109  1.145439  5.823404
N    -4.229104  0.983275  7.148017
N    -3.657170  2.312971  5.331793
H    -2.226628  0.149534  3.346757
H    -2.824149  -0.787065  1.974597
H    -4.716646  0.708140  1.621438
H    -4.076919  1.919835  2.705236
H    -5.217159  -0.841067  3.396456
H    -5.941208  0.734463  3.734814
H    -4.475560  -0.781628  5.466572
H    -3.785918  1.612455  7.807536
H    -4.825888  0.259050  7.530943
H    -3.633140  3.124143  5.938927
N    -1.636221  2.766047  3.160181
C    -1.015626  3.936778  3.765066
H    -3.112057  2.364120  4.454808
H    -1.145527  3.889556  4.853246
H    -1.516652  4.849900  3.408699
H    0.053029  4.026575  3.533606
Cd    1.280217  2.200123  0.178977
