36
Energy: -175310.951543 eV PBE+vdW (tier 2 basis)
C    -0.330162  -0.732184  0.897979
C    -0.246240  -0.173732  2.291116
O    0.779381  -0.480490  2.997173
H    0.528292  -0.379480  0.312350
H    -1.262289  -0.463154  0.391274
H    -0.245891  -1.825150  0.953271
N    -1.185916  0.590326  2.854300
C    -2.016280  1.594163  2.260657
C    -1.501435  2.989388  2.781410
O    -0.703433  3.115390  3.753024
H    -5.213501  -2.269393  3.858325
H    -1.909407  1.617877  1.160456
C    -3.505858  1.399494  2.630804
C    -4.100156  0.116411  2.035447
C    -5.584283  -0.041404  2.400866
N    -6.239074  -1.179389  1.744015
C    -6.551537  -2.360021  2.296765
N    -7.411975  -3.176580  1.672342
N    -6.017613  -2.739399  3.465699
H    -4.088056  2.268766  2.289654
H    -3.585300  1.384346  3.729380
H    -3.526136  -0.757307  2.380127
H    -4.006065  0.138566  0.937973
H    -6.145360  0.856512  2.105547
H    -5.725597  -0.139292  3.486259
H    -6.530140  -1.044922  0.780582
H    -7.501971  -4.150380  1.937744
H    -8.024748  -2.840803  0.938732
H    -6.404373  -3.516029  3.988741
N    -1.949491  4.068750  2.152280
C    -1.575006  5.438465  2.518476
H    -2.568320  3.940194  1.357940
H    -0.484846  5.550236  2.499791
H    -1.939408  5.680135  3.523798
H    -2.023033  6.124124  1.794900
Cd    0.209663  1.167147  4.456364
