36
Energy: -175308.863299 eV PBE+vdW (tier 2 basis)
C    -2.051164  -2.318151  2.488672
C    -1.263417  -1.401603  3.351106
O    -0.012910  -1.593737  3.511539
H    -1.439319  -2.691493  1.661709
H    -2.990090  -1.874561  2.121698
H    -2.328762  -3.187003  3.110748
N    -1.859549  -0.375433  4.017785
C    -2.770147  0.599095  3.419664
C    -1.926088  1.562842  2.551973
O    -0.677609  1.764869  2.761186
H    -1.324619  -0.025383  4.815444
H    -3.450207  0.052269  2.755900
C    -3.553761  1.330412  4.541366
C    -4.759235  2.181621  4.116058
C    -6.055773  1.395627  3.805388
N    -5.891014  0.277926  2.888749
C    -5.507041  0.309060  1.574911
N    -5.567466  1.550155  0.938860
N    -5.001914  -0.787893  1.086427
H    -2.848435  1.971207  5.093810
H    -3.881763  0.551556  5.246864
H    -4.500483  2.843813  3.278217
H    -5.003923  2.860118  4.945343
H    -6.820560  2.096162  3.433951
H    -6.464270  0.972517  4.730899
H    -5.913793  -0.665593  3.265632
H    -5.555857  1.482607  -0.077340
H    -6.311250  2.176837  1.247159
H    -4.831841  -0.735512  0.077897
N    -2.538629  2.219570  1.584541
C    -1.877479  3.197789  0.715810
H    -3.546521  2.063343  1.440508
H    -0.986683  2.756360  0.254596
H    -1.577524  4.083339  1.289304
H    -2.582179  3.494443  -0.065169
Cd    0.918429  0.400119  3.400466
