36
Energy: -175309.165311 eV PBE+vdW (tier 2 basis)
C    -0.337837  -0.200339  1.100139
C    -0.028868  -0.110767  2.559101
O    1.095169  -0.555606  2.959105
H    -0.861404  0.695486  0.742321
H    -1.005786  -1.065840  0.955386
H    0.580695  -0.347463  0.526516
N    -0.976832  0.409078  3.355716
C    -1.147258  0.282521  4.818290
C    -0.302574  1.345645  5.559409
O    0.933569  1.183212  5.820670
H    -1.854579  0.638798  2.879188
H    -2.195341  0.560298  4.973211
C    -0.980223  -1.154307  5.378837
C    -2.103472  -1.578216  6.345208
C    -3.363324  -2.173869  5.665363
N    -4.028697  -1.289696  4.725755
C    -3.692168  -1.182096  3.393795
N    -4.100144  0.000492  2.772626
N    -2.934323  -1.981292  2.708734
H    -0.019628  -1.253870  5.935416
H    -0.915219  -1.856588  4.538468
H    -2.387345  -0.732393  6.991004
H    -1.723375  -2.355674  7.022225
H    -4.084733  -2.437562  6.449001
H    -3.100742  -3.115509  5.163074
H    -4.796178  -0.727958  5.081179
H    -4.220068  -0.119566  1.767823
H    -4.889954  0.492774  3.184128
H    -2.742557  -2.859116  3.196559
N    -0.877580  2.474494  5.943493
C    -2.269044  2.905911  5.769655
H    -0.249500  3.124036  6.419481
H    -2.575937  2.843608  4.719223
H    -2.332110  3.953607  6.077060
H    -2.948315  2.323571  6.404941
Cd    2.020859  -0.440491  4.890016
