36
Energy: -175308.889902 eV PBE+vdW (tier 2 basis)
C    0.099588  -0.021054  -1.403352
C    0.540789  -0.402122  -0.034562
O    1.731542  -0.863027  0.096690
H    -0.187905  -0.916334  -1.974837
H    0.974833  0.397167  -1.920289
H    -0.716199  0.703374  -1.405634
N    -0.199087  -0.225187  1.092523
C    -1.577636  -0.601965  1.458586
C    -1.476702  -1.899488  2.285328
O    -0.477900  -2.717872  2.250211
H    0.394485  -0.110573  1.916467
H    -1.963014  0.195382  2.133899
C    -2.539017  -0.716236  0.257579
C    -4.020571  -1.006525  0.558507
C    -4.772697  0.021826  1.417683
N    -4.685600  -0.198719  2.885707
C    -4.172159  0.822342  3.706740
N    -4.829176  1.014313  4.882382
N    -3.086021  1.415999  3.309985
H    -2.178398  -1.484428  -0.442618
H    -2.493775  0.249146  -0.264643
H    -4.160831  -2.018711  0.965325
H    -4.518369  -1.028568  -0.421275
H    -5.836039  -0.010545  1.146932
H    -4.414481  1.038012  1.211591
H    -5.525103  -0.635050  3.261814
H    -5.803416  0.759065  5.002061
H    -4.455195  1.666338  5.562295
H    -2.817347  2.193105  3.918055
N    -2.492524  -2.181089  3.071031
C    -2.585776  -3.384180  3.899763
H    -3.289483  -1.510669  3.081028
H    -3.514675  -3.332388  4.473516
H    -1.737007  -3.440567  4.591364
H    -2.595173  -4.286027  3.275737
Cd    1.534558  -2.487233  1.535236
