36
Energy: -175308.994338 eV PBE+vdW (tier 2 basis)
C    -0.115144  -0.196148  -0.100861
C    -0.112319  -0.004324  1.383722
O    0.926089  0.448135  1.940043
H    0.149387  0.754735  -0.582199
H    -1.075687  -0.547571  -0.492914
H    0.670683  -0.915215  -0.368923
N    -1.237346  -0.315934  2.062220
C    -1.454839  -0.095394  3.494546
C    -0.715651  -1.161163  4.343312
O    0.366353  -0.835638  4.931331
H    -2.014558  -0.679568  1.518143
H    -0.938594  0.841384  3.756066
C    -2.945605  0.093800  3.844440
C    -3.499404  1.517649  3.664038
C    -3.695520  1.988886  2.208503
N    -4.431043  3.236775  2.103859
C    -5.800008  3.334136  2.155547
N    -6.344157  4.576087  2.119965
N    -6.649744  2.331478  2.251462
H    -3.071330  -0.175540  4.902853
H    -3.560823  -0.624714  3.280870
H    -2.865832  2.238749  4.203119
H    -4.477286  1.548114  4.166009
H    -4.224332  1.218362  1.624281
H    -2.731752  2.146650  1.704811
H    -3.889472  4.094836  2.121036
H    -7.357393  4.630211  2.122928
H    -5.817373  5.420885  1.935589
H    -6.193061  1.416413  2.212727
N    -1.160172  -2.402068  4.497020
C    -2.374034  -3.050213  3.997926
H    -0.559763  -2.971207  5.095728
H    -2.196351  -4.129901  3.991368
H    -2.595443  -2.741594  2.971778
H    -3.234578  -2.843501  4.646381
Cd    1.844624  0.486677  3.968017
