36
Energy: -175312.022971 eV PBE+vdW (tier 2 basis)
C    -0.786417  0.698270  0.129460
C    -0.927459  0.181658  1.527171
O    -0.862670  -1.067904  1.709144
H    -1.564803  0.240761  -0.495862
H    0.180720  0.369122  -0.273445
H    -0.858272  1.788158  0.053749
N    -1.118269  1.092136  2.503976
C    -1.348393  0.904520  3.953059
C    -0.076799  0.359361  4.634632
O    0.246296  -0.859232  4.566534
H    -1.138186  2.056112  2.184632
H    -1.506358  1.921616  4.336651
C    -2.651175  0.122268  4.255783
C    -2.917810  -0.189484  5.742350
C    -2.594501  -1.615427  6.218010
N    -3.441533  -2.643538  5.592567
C    -3.022401  -3.820866  5.055606
N    -3.846701  -4.878553  5.172024
N    -1.859066  -3.923186  4.408282
H    -2.725166  -0.802761  3.656412
H    -3.463673  0.740439  3.851158
H    -3.977110  0.011414  5.954363
H    -2.365017  0.506284  6.392011
H    -2.743145  -1.662193  7.307127
H    -1.544725  -1.882908  6.047682
H    -4.416146  -2.631144  5.881222
H    -3.726592  -5.703231  4.595311
H    -4.559255  -4.923033  5.891851
H    -1.573255  -4.883426  4.230830
N    0.667761  1.235599  5.300284
C    1.927879  0.921058  5.975972
H    0.359528  2.203786  5.324324
H    1.891760  1.294471  7.005497
H    2.762718  1.399956  5.449318
H    2.071225  -0.161657  5.978638
Cd    -0.902067  -2.350253  3.418043
