36
Energy: -175308.871491 eV PBE+vdW (tier 2 basis)
C    -1.405265  -1.385933  1.873269
C    -0.871527  -0.067540  2.328121
O    -0.338060  0.701026  1.453560
H    -2.435449  -1.234089  1.511978
H    -1.446587  -2.124583  2.682797
H    -0.805056  -1.765675  1.041377
N    -1.019966  0.272855  3.613188
C    -0.927612  1.625540  4.188339
C    0.508773  1.926001  4.682910
O    1.492752  1.520430  3.965524
H    -1.494775  -0.421768  4.216800
H    -1.056735  2.334145  3.348915
C    -2.125242  1.837304  5.133317
C    -2.237323  0.921799  6.377082
C    -3.247954  -0.230159  6.289086
N    -2.824821  -1.346128  5.422139
C    -3.654940  -1.828658  4.398689
N    -3.506275  -3.155145  4.100991
N    -4.420510  -1.115148  3.629438
H    -3.023862  1.733590  4.507446
H    -2.130479  2.889430  5.438592
H    -2.561192  1.540285  7.225751
H    -1.254913  0.513993  6.665817
H    -4.218252  0.142156  5.934825
H    -3.423457  -0.624315  7.299735
H    -2.332257  -2.077636  5.933233
H    -4.115476  -3.502516  3.365126
H    -3.248477  -3.828580  4.814938
H    -4.493389  -0.136615  3.917788
N    0.832422  2.630533  5.760467
C    0.071633  3.273506  6.839646
H    1.845116  2.751451  5.822612
H    -0.624950  4.020114  6.444476
H    0.796332  3.787307  7.476957
H    -0.461445  2.540783  7.452538
Cd    1.576605  1.593199  1.801620
