36
Energy: -175310.66247 eV PBE+vdW (tier 2 basis)
C    -0.753514  2.647177  1.742080
C    -0.526091  1.405719  2.547526
O    0.197838  1.459562  3.590374
H    0.201683  3.148033  1.544238
H    -1.345717  3.339339  2.360587
H    -1.290306  2.478555  0.802357
N    -1.124133  0.273333  2.123238
C    -1.507340  -0.971175  2.828856
C    -0.564371  -1.466741  3.924341
O    0.695490  -1.454913  3.805297
H    -1.688255  0.404330  1.285805
H    -2.472325  -0.745754  3.308409
C    -1.814531  -2.093225  1.792424
C    -0.712725  -2.953298  1.142121
C    0.329358  -2.303723  0.210411
N    1.519924  -1.894597  0.965442
C    2.221429  -0.759946  0.901054
N    1.965303  0.171374  -0.037070
N    3.183467  -0.434218  1.830075
H    -2.431628  -1.630850  1.004151
H    -2.497581  -2.792973  2.294368
H    -1.252424  -3.697206  0.539668
H    -0.187485  -3.548717  1.905866
H    -0.096189  -1.431514  -0.304940
H    0.625583  -3.025401  -0.563824
H    1.710201  -2.458925  1.789321
H    2.682805  0.878139  -0.168386
H    1.378256  -0.030071  -0.838238
H    3.643685  -1.276684  2.189431
N    -1.119764  -2.032613  4.993750
C    -2.535103  -2.198174  5.341006
H    -0.439401  -2.423309  5.645420
H    -3.071747  -1.243454  5.283041
H    -2.587285  -2.549564  6.375224
H    -3.025072  -2.943092  4.701592
Cd    2.020646  0.331403  3.458486
