36
Energy: -175310.318464 eV PBE+vdW (tier 2 basis)
C    0.839079  0.463359  0.286840
C    0.194305  -0.573714  1.145885
O    0.844885  -1.677101  1.324265
H    1.841192  0.134355  0.000716
H    0.908319  1.424325  0.814546
H    0.246071  0.624058  -0.625688
N    -0.990263  -0.366883  1.708412
C    -1.926784  0.752786  1.548524
C    -2.707836  0.828093  2.876313
O    -2.931338  -0.224519  3.508095
H    -1.325633  -1.040115  2.408581
H    -1.354417  1.674620  1.393497
C    -2.917595  0.571502  0.346076
C    -3.257914  -0.859992  -0.103674
C    -4.123539  -1.768591  0.822369
N    -3.525278  -3.115898  0.895671
C    -2.676639  -3.547826  1.831053
N    -2.517527  -2.886085  3.006024
N    -1.824945  -4.604256  1.659005
H    -2.480245  1.078125  -0.525053
H    -3.836273  1.128306  0.579438
H    -3.767759  -0.770190  -1.072026
H    -2.318446  -1.388484  -0.328634
H    -5.139368  -1.876606  0.426448
H    -4.223984  -1.368998  1.835807
H    -3.496581  -3.621940  0.012598
H    -2.970861  -1.982048  3.215317
H    -2.283051  -3.465777  3.808098
H    -2.029502  -5.214688  0.865779
N    -3.158922  2.018208  3.278880
C    -2.925196  3.333140  2.676046
H    -3.703023  1.984607  4.139701
H    -3.490917  4.071768  3.250362
H    -3.280583  3.375844  1.639102
H    -1.864864  3.614544  2.720106
Cd    -0.003429  -3.549776  1.697028
