36
Energy: -175309.192287 eV PBE+vdW (tier 2 basis)
C    -0.409600  -0.868509  -0.114827
C    -0.356677  -0.553484  1.347370
O    0.715381  -0.108299  1.839513
H    -0.167479  0.041904  -0.679783
H    -1.382821  -1.248846  -0.443399
H    0.369134  -1.605447  -0.351007
N    -1.475837  -0.753945  2.077540
C    -1.644784  -0.376344  3.481961
C    -0.930222  -1.372015  4.429432
O    0.168038  -1.021657  4.966704
H    -2.287351  -1.111655  1.581730
H    -1.081244  0.558494  3.629063
C    -3.114856  -0.069990  3.823378
C    -3.574810  1.288716  3.268212
C    -5.028702  1.640811  3.606552
N    -5.218442  1.828217  5.029205
C    -6.399092  1.793314  5.729035
N    -7.554338  1.570938  5.048519
N    -6.263404  1.951907  7.026834
H    -3.218408  -0.084587  4.918452
H    -3.771327  -0.868402  3.446994
H    -3.480554  1.309563  2.172851
H    -2.915201  2.088602  3.642688
H    -5.703005  0.837949  3.264834
H    -5.307021  2.552952  3.047189
H    -4.452282  2.176850  5.600367
H    -7.638486  1.739426  4.052590
H    -8.424058  1.550181  5.568041
H    -7.157133  1.918000  7.528472
N    -1.412852  -2.575916  4.713947
C    -2.648974  -3.230989  4.285348
H    -0.822961  -3.102121  5.360094
H    -2.508923  -4.310893  4.392889
H    -2.861457  -3.026123  3.231601
H    -3.500274  -2.928141  4.907750
Cd    1.678500  0.145024  3.833788
