36
Energy: -175310.932833 eV PBE+vdW (tier 2 basis)
C    -0.022343  -0.903586  -0.839651
C    -0.312486  -0.552357  0.579279
O    0.301034  -1.245910  1.496300
H    1.051176  -0.790310  -1.040681
H    -0.597911  -0.299482  -1.547920
H    -0.264316  -1.965434  -0.992475
N    -1.200008  0.379909  0.846675
C    -1.810288  0.773559  2.116473
C    -3.164541  1.405387  1.643506
O    -3.198626  1.868262  0.502156
H    -1.691933  0.880917  0.077585
H    -1.974601  -0.123820  2.733655
C    -0.952237  1.814042  2.874555
C    -1.414788  2.104860  4.313371
C    -0.260565  2.397532  5.285178
N    0.569345  1.190684  5.413353
C    1.918132  1.084594  5.321691
N    2.697786  2.078234  5.755891
N    2.411262  -0.030199  4.750943
H    -0.907775  2.738419  2.281569
H    0.093327  1.445627  2.895050
H    -1.981718  1.249258  4.718709
H    -2.108792  2.954709  4.329584
H    -0.657534  2.701518  6.263453
H    0.374881  3.211173  4.910137
H    0.080299  0.322604  5.616047
H    2.360574  2.745775  6.442991
H    3.683532  2.120195  5.517485
H    3.387344  -0.255465  4.940901
N    -4.171727  1.438526  2.528202
C    -5.478303  2.025905  2.219907
H    -4.079107  0.924709  3.397595
H    -5.845641  2.577674  3.091576
H    -6.201580  1.245182  1.952405
H    -5.362491  2.709128  1.374433
Cd    1.362901  -0.732650  3.129115
