36
Energy: -175311.605379 eV PBE+vdW (tier 2 basis)
C    -0.415451  1.018848  0.288936
C    -0.217756  0.377582  1.627383
O    0.957207  0.025666  1.940748
H    -0.054940  0.331507  -0.488119
H    0.210511  1.919632  0.233019
H    -1.455728  1.287374  0.077967
N    -1.314643  0.221171  2.397867
C    -1.493814  -0.409414  3.729451
C    -0.769587  0.447120  4.784034
O    0.484234  0.382143  4.939829
H    -2.171164  0.562106  1.971272
H    -2.570892  -0.333689  3.919799
C    -1.153573  -1.917712  3.707548
C    -1.483275  -2.790262  4.932584
C    -0.694846  -2.586131  6.246693
N    0.737990  -2.312162  6.088043
C    1.687320  -3.080816  5.497160
N    1.658929  -4.410663  5.677780
N    2.604836  -2.463811  4.740154
H    -0.103888  -2.085323  3.416030
H    -1.720272  -2.324705  2.857858
H    -1.342360  -3.827943  4.598750
H    -2.553282  -2.710458  5.177913
H    -0.857601  -3.459908  6.892304
H    -1.083715  -1.732566  6.815437
H    0.992470  -1.332900  6.167952
H    1.198554  -4.811410  6.488256
H    2.280363  -5.019957  5.157949
H    3.450114  -2.992145  4.531506
N    -1.481407  1.282832  5.535864
C    -2.925292  1.546074  5.518208
H    -0.918415  1.845845  6.173999
H    -3.240816  1.990188  4.565858
H    -3.142886  2.265124  6.312792
H    -3.503558  0.636895  5.722045
Cd    1.894159  -0.819494  3.644351
