36
Energy: -175311.335488 eV PBE+vdW (tier 2 basis)
C    -2.915222  -0.536141  1.807213
C    -2.109979  -0.444037  3.067865
O    -1.454320  -1.448544  3.447945
H    -3.538223  0.343480  1.614513
H    -3.549472  -1.430084  1.850312
H    -2.225231  -0.676486  0.963170
N    -2.144000  0.734241  3.729336
C    -1.445851  1.176651  4.955861
C    0.084641  1.172627  4.718176
O    0.784387  0.117101  4.820174
H    -2.730279  1.443436  3.300351
H    -1.760321  2.219979  5.054397
C    -1.806198  0.461995  6.296219
C    -3.107519  -0.357929  6.352647
C    -3.175606  -1.302955  7.587788
N    -3.154441  -2.735213  7.245734
C    -2.128925  -3.375897  6.650699
N    -2.374146  -4.482628  5.930145
N    -0.850788  -2.942135  6.736103
H    -1.835078  1.246486  7.065577
H    -0.962248  -0.171388  6.608431
H    -3.227489  -0.969691  5.448823
H    -3.970161  0.320651  6.367794
H    -4.110255  -1.147854  8.136041
H    -2.375105  -1.076407  8.307230
H    -4.023979  -3.246188  7.369898
H    -1.620094  -5.145721  5.785856
H    -3.316488  -4.793795  5.722410
H    -0.702423  -2.404710  7.591819
N    0.688823  2.308517  4.395900
C    0.111026  3.646568  4.226866
H    1.694211  2.216120  4.246232
H    -0.623161  3.665181  3.412180
H    0.923740  4.328383  3.961888
H    -0.341628  4.009109  5.157958
Cd    -0.079539  -1.849424  5.107770
