36
Energy: -175308.794065 eV PBE+vdW (tier 2 basis)
C    -1.093173  1.469744  0.843821
C    -0.866737  0.813272  2.159881
O    -0.050101  1.367247  2.970945
H    -2.030046  1.177853  0.367690
H    -0.245564  1.275505  0.169511
H    -1.090223  2.554744  1.021129
N    -1.539292  -0.292983  2.585294
C    -1.709430  -1.622807  1.967481
C    -0.563824  -2.518692  2.514836
O    0.596367  -2.043572  2.813193
H    -1.526302  -0.354345  3.605277
H    -2.649554  -2.029453  2.367640
C    -1.776424  -1.647586  0.427564
C    -3.140804  -1.210589  -0.161929
C    -4.054250  -2.367913  -0.626752
N    -4.337280  -3.340567  0.427875
C    -3.514840  -4.379469  0.775233
N    -2.741951  -4.941222  -0.195141
N    -3.339659  -4.802913  2.015588
H    -1.544977  -2.673957  0.114143
H    -0.958706  -1.044075  0.014399
H    -2.977793  -0.571375  -1.041170
H    -3.691127  -0.591479  0.563717
H    -3.606204  -2.880515  -1.486284
H    -5.010119  -1.958873  -0.978886
H    -4.954269  -3.022635  1.170289
H    -2.306305  -5.820502  0.065380
H    -3.032675  -4.881626  -1.164819
H    -4.023410  -4.406424  2.667334
N    -0.802287  -3.803172  2.630594
C    0.175799  -4.776891  3.117593
H    -1.767141  -4.191168  2.391488
H    -0.346946  -5.723442  3.280079
H    0.625122  -4.438284  4.058157
H    0.974250  -4.923267  2.378894
Cd    1.268448  -0.208739  3.754229
