36
Energy: -175309.188391 eV PBE+vdW (tier 2 basis)
C    -2.192045  1.105364  -1.221619
C    -1.982570  0.439779  0.101055
O    -1.693116  -0.793840  0.116067
H    -2.456752  2.164816  -1.137639
H    -2.973671  0.570951  -1.776718
H    -1.266026  1.012691  -1.806909
N    -2.089757  1.194643  1.211462
C    -1.694549  0.824046  2.582638
C    -2.881723  0.115133  3.270836
O    -3.058115  -1.138915  3.135296
H    -2.337396  2.170150  1.062677
H    -0.901114  0.064149  2.496005
C    -1.091747  2.055947  3.285875
C    -0.182547  1.779542  4.496756
C    -0.836743  1.286160  5.792566
N    -1.822311  2.231533  6.297199
C    -2.945614  1.908437  7.029005
N    -3.051752  0.615649  7.472817
N    -3.962764  2.706140  7.214912
H    -1.879929  2.783218  3.545184
H    -0.472928  2.563093  2.531451
H    0.361638  2.711855  4.711010
H    0.596935  1.055278  4.216753
H    -0.039073  1.107457  6.534800
H    -1.347424  0.322209  5.647108
H    -1.599679  3.221727  6.247750
H    -3.877756  0.454755  8.044383
H    -2.218301  0.134549  7.796190
H    -3.802747  3.664715  6.889356
N    -3.747419  0.824625  3.972681
C    -4.955393  0.270720  4.593879
H    -3.552401  1.811340  4.117032
H    -5.363632  1.022433  5.274773
H    -5.698533  0.024822  3.825168
H    -4.702501  -0.635606  5.153654
Cd    -2.089688  -2.355534  1.584497
