36
Energy: -175310.300403 eV PBE+vdW (tier 2 basis)
C    -0.539228  0.268562  -0.322554
C    -0.271826  0.887386  1.011581
O    0.422744  1.961351  1.033880
H    -1.084603  0.998401  -0.938096
H    -1.126037  -0.653809  -0.260478
H    0.412215  0.071409  -0.832558
N    -0.784519  0.301984  2.102027
C    -0.925451  0.840840  3.477775
C    0.256967  0.425269  4.378533
O    1.374182  1.156138  4.350854
H    -1.264758  -0.580173  1.938111
H    -0.924573  1.940815  3.389488
C    -2.292549  0.397535  4.015091
C    -2.628680  1.004711  5.379868
C    -3.888409  0.429111  6.034498
N    -3.992830  -1.047731  6.106688
C    -3.224731  -1.887305  6.831236
N    -3.794941  -2.966490  7.389362
N    -1.914554  -1.668285  6.980974
H    -2.291072  -0.702180  4.076383
H    -3.060447  0.678066  3.278490
H    -2.804093  2.086665  5.280746
H    -1.777123  0.903554  6.064123
H    -4.775843  0.737900  5.468771
H    -3.989149  0.847383  7.046489
H    -4.909850  -1.414437  5.872380
H    -3.239745  -3.755201  7.701179
H    -4.792631  -3.007591  7.563257
H    -1.403985  -2.217329  7.663432
N    0.142554  -0.589212  5.155833
C    1.291979  -1.045063  5.934136
H    -1.346661  -1.184961  6.259461
H    1.095418  -2.062465  6.291680
H    2.218945  -1.051823  5.346199
H    1.458261  -0.395051  6.806658
Cd    1.658005  2.396417  2.719363
