36
Energy: -175311.734013 eV PBE+vdW (tier 2 basis)
C    0.201901  0.030152  0.361200
C    0.020026  -0.093460  1.842046
O    1.048201  -0.308158  2.548472
H    0.894603  0.857874  0.157830
H    -0.732228  0.197936  -0.184771
H    0.680030  -0.884721  -0.013618
N    -1.236776  0.027817  2.317706
C    -1.753949  -0.102625  3.698027
C    -1.225795  1.058742  4.563402
O    -0.061342  1.046053  5.054864
H    -1.941001  0.196072  1.605405
H    -2.838003  0.024292  3.600405
C    -1.495904  -1.507181  4.287966
C    -1.784622  -1.674323  5.787918
C    -1.080863  -2.906099  6.397837
N    0.376804  -2.856799  6.223768
C    1.275150  -2.144567  6.965226
N    1.167380  -2.163447  8.301370
N    2.222013  -1.460300  6.316360
H    -0.452871  -1.791505  4.073267
H    -2.093910  -2.218191  3.700334
H    -2.865182  -1.775068  5.961973
H    -1.460231  -0.785912  6.350695
H    -1.430210  -3.836933  5.933404
H    -1.329866  -2.977647  7.463072
H    0.751724  -3.222632  5.355026
H    1.704584  -1.526607  8.879221
H    0.698197  -2.930055  8.772512
H    3.035649  -1.190675  6.868754
N    -2.021593  2.097942  4.797321
C    -3.392320  2.338836  4.332757
H    -1.588522  2.830967  5.359320
H    -4.082586  1.568453  4.697568
H    -3.440116  2.404469  3.238789
H    -3.718260  3.299662  4.740446
Cd    1.544889  -0.413361  4.622130
