36
Energy: -175308.738716 eV PBE+vdW (tier 2 basis)
C    -0.851368  0.015095  -0.716634
C    -0.306060  -0.271573  0.639072
O    0.916998  -0.599459  0.766800
H    -0.454580  0.971228  -1.089232
H    -1.944722  0.020802  -0.750986
H    -0.470527  -0.757978  -1.399102
N    -1.091993  -0.214136  1.743159
C    -2.043219  0.849600  2.045591
C    -1.248922  1.967743  2.793125
O    0.018343  1.913455  2.928985
H    -0.681098  -0.661424  2.564292
H    -2.368831  1.274813  1.084291
C    -3.277299  0.328786  2.826462
C    -4.594376  0.997273  2.392350
C    -5.709283  0.958954  3.456211
N    -5.342172  1.539889  4.746250
C    -4.896442  2.812032  4.990825
N    -4.926821  3.711447  3.928760
N    -4.342506  3.223600  6.095546
H    -3.109291  0.470424  3.904009
H    -3.345619  -0.754208  2.659259
H    -4.987894  0.499878  1.494296
H    -4.417645  2.039102  2.089176
H    -6.006284  -0.077246  3.658636
H    -6.606859  1.457604  3.053403
H    -5.392487  0.936031  5.560021
H    -4.786749  4.664658  4.262501
H    -5.723358  3.647563  3.297328
H    -4.361132  2.531475  6.850989
N    -1.925672  2.982981  3.298749
C    -1.336327  4.088102  4.060180
H    -2.944086  3.029316  3.181694
H    -1.218095  4.971277  3.419365
H    -0.359461  3.789242  4.446409
H    -2.006255  4.324696  4.894545
Cd    1.768186  0.650666  2.384751
