36
Energy: -175310.417185 eV PBE+vdW (tier 2 basis)
C    0.045487  0.627486  0.619090
C    -0.262698  0.336269  2.063843
O    0.346741  0.940361  2.944393
H    -0.089544  4.366254  3.621589
H    -0.743151  1.183431  0.094929
H    0.999065  1.151570  0.536450
N    -1.145400  -0.691594  2.429866
C    -2.541818  -0.896403  1.988998
C    -2.733169  -2.046560  0.980013
O    -1.883261  -2.381743  0.098961
H    -1.042528  -0.848314  3.431867
H    -3.059482  -1.232795  2.899210
C    -3.232909  0.421645  1.554610
C    -3.288682  1.409563  2.733874
C    -3.516783  2.882254  2.388483
N    -2.466976  3.540342  1.571687
C    -1.405129  4.212660  2.071381
N    -0.994924  5.333379  1.462167
N    -0.768372  3.768719  3.160918
H    -4.246911  0.204389  1.191076
H    -2.697304  0.852303  0.696806
H    -2.376155  1.327182  3.339620
H    -4.107700  1.119766  3.409750
H    -3.630903  3.450405  3.321676
H    -4.449334  3.006608  1.823299
H    -2.763022  3.848729  0.650971
H    -1.621476  5.881238  0.882776
H    -0.078431  5.727094  1.646833
H    -0.667740  2.769226  3.339958
N    -3.870707  -2.736183  1.038557
C    -4.974022  -2.619677  1.994665
H    -3.944040  -3.468248  0.332506
H    -5.693207  -3.413085  1.774085
H    -5.493199  -1.657678  1.903137
H    -4.625635  -2.759557  3.026111
Cd    -0.049194  -1.306134  -0.343411
