36
Energy: -175308.655854 eV PBE+vdW (tier 2 basis)
C    -1.136005  -1.470534  1.780056
C    -0.767757  -0.807069  3.059953
O    0.387863  -0.995582  3.562561
H    -0.518231  -1.074151  0.960830
H    -2.201864  -1.388774  1.530832
H    -0.860974  -2.531943  1.871942
N    -1.651092  -0.016794  3.719993
C    -2.483227  0.999213  3.084781
C    -1.662847  2.320989  3.095664
O    -0.448970  2.373066  3.477878
H    -1.394636  0.179798  4.688749
H    -2.596553  0.699225  2.031298
C    -3.891249  1.083745  3.714729
C    -4.974002  1.597648  2.741466
C    -6.297387  0.788917  2.741334
N    -6.163471  -0.662223  2.838318
C    -5.370448  -1.455372  2.062106
N    -5.243046  -2.763276  2.430757
N    -4.639344  -1.050876  1.038418
H    -3.867547  1.682054  4.636109
H    -4.138846  0.057408  4.015897
H    -4.572154  1.611263  1.717145
H    -5.259793  2.634596  2.971213
H    -6.872899  1.064438  1.843618
H    -6.908268  1.084154  3.602318
H    -6.717371  -1.109745  3.561368
H    -4.862352  -3.384113  1.724144
H    -5.870127  -3.187797  3.105225
H    -4.965114  -0.150762  0.677970
N    -2.256528  3.426022  2.675774
C    -1.597233  4.735317  2.600033
H    -3.229654  3.368200  2.389762
H    -2.302556  5.449719  2.168491
H    -0.706279  4.674805  1.964742
H    -1.303531  5.072962  3.600847
Cd    1.180451  0.992848  4.125794
