36
Energy: -175308.640933 eV PBE+vdW (tier 2 basis)
C    0.706495  0.920708  0.734846
C    0.392038  0.665882  2.168929
O    1.332603  0.616740  3.019563
H    1.008287  1.969722  0.596252
H    -0.119482  0.674008  0.061291
H    1.584560  0.315213  0.470438
N    -0.886719  0.459033  2.580851
C    -2.019472  1.304178  2.210291
C    -1.962261  2.561314  3.118038
O    -1.232326  2.587270  4.161306
H    -0.942795  0.105320  3.536471
H    -1.873655  1.627155  1.170008
C    -3.362342  0.546840  2.295161
C    -3.718370  -0.038620  3.668854
C    -5.163397  -0.585557  3.737112
N    -6.178125  0.460993  3.723477
C    -6.761456  1.047771  2.625058
N    -6.768791  0.358819  1.446722
N    -7.229576  2.273128  2.620243
H    -3.324958  -0.255639  1.544641
H    -4.151625  1.232382  1.963418
H    -3.597218  0.713695  4.465452
H    -3.051569  -0.878606  3.919525
H    -5.290765  -1.153493  4.668140
H    -5.343108  -1.292776  2.917788
H    -6.313578  0.967570  4.593458
H    -7.301233  0.809412  0.707398
H    -6.816112  -0.654318  1.455441
H    -7.287106  2.693914  3.553212
N    -2.701616  3.625017  2.824831
C    -3.625939  3.841778  1.708561
H    -2.603009  4.392405  3.490747
H    -3.607212  4.906168  1.453158
H    -4.654446  3.564494  1.979602
H    -3.315814  3.275464  0.824716
Cd    0.819263  1.860272  4.803581
