36
Energy: -175309.123128 eV PBE+vdW (tier 2 basis)
C    -2.699362  -0.249124  0.444267
C    -1.843448  -0.118612  1.666562
O    -0.641764  0.268015  1.498654
H    -3.484177  -1.009533  0.560298
H    -2.067128  -0.495622  -0.414905
H    -3.172177  0.722696  0.235212
N    -2.413680  -0.402001  2.846036
C    -1.833000  -0.565739  4.192052
C    -1.440676  0.779072  4.837057
O    -0.322841  1.352519  4.622340
H    -3.358013  -0.822173  2.800589
H    -2.683623  -0.937671  4.776073
C    -0.731174  -1.640385  4.300703
C    -1.052926  -2.959512  3.587390
C    -2.329057  -3.717535  4.088395
N    -3.209510  -4.117813  3.001715
C    -4.124850  -3.305028  2.364760
N    -4.686202  -2.271497  3.149591
N    -4.474671  -3.357612  1.125341
H    -0.530242  -1.801520  5.370620
H    0.236532  -1.283263  3.883660
H    -0.181061  -3.617455  3.691844
H    -1.161944  -2.775562  2.509964
H    -2.897606  -3.117360  4.808734
H    -2.030976  -4.625926  4.625178
H    -2.887941  -4.901782  2.438702
H    -5.512108  -1.921583  2.659335
H    -4.956727  -2.576431  4.085580
H    -4.016952  -4.101008  0.589547
N    -2.283967  1.359556  5.677792
C    -3.607576  0.907290  6.119757
H    -1.940604  2.236180  6.073658
H    -4.071947  1.729526  6.671640
H    -3.529726  0.045608  6.795278
H    -4.250712  0.670413  5.264524
Cd    0.882034  0.864575  2.896993
