36
Energy: -175310.163846 eV PBE+vdW (tier 2 basis)
C    0.610434  -0.732119  -0.062040
C    0.565105  -0.389036  1.392976
O    1.633115  -0.578536  2.073381
H    -0.335382  -0.551319  -0.583011
H    0.871556  -1.796187  -0.155587
H    1.416127  -0.165732  -0.546659
N    -0.585184  0.074756  1.898549
C    -1.091197  0.228800  3.297278
C    -0.751015  1.577428  3.955857
O    0.492389  1.902514  4.307639
H    -1.308125  0.220583  1.198874
H    -2.175018  0.285856  3.144161
C    -0.832617  -1.006509  4.193219
C    -1.978057  -1.247249  5.194777
C    -2.014814  -0.288782  6.404552
N    -3.331558  -0.214418  7.036910
C    -4.359129  0.534434  6.601282
N    -5.549456  0.428538  7.213520
N    -4.218146  1.365658  5.562926
H    0.129364  -0.932456  4.729884
H    -0.749242  -1.891417  3.548797
H    -1.913732  -2.280302  5.561722
H    -2.932276  -1.180003  4.650501
H    -1.706396  0.727698  6.133289
H    -1.312541  -0.619512  7.179204
H    -3.499491  -0.805859  7.843067
H    -6.317141  1.048245  6.986450
H    -5.702938  -0.224341  7.971919
H    -5.015159  1.910769  5.256212
N    -1.741153  2.346878  4.242177
C    -1.517740  3.646991  4.868379
H    -3.316784  1.588297  5.103545
H    -2.465944  4.193811  4.891298
H    -0.778902  4.242855  4.315971
H    -1.149928  3.539725  5.900874
Cd    2.086336  0.761059  3.655243
