36
Energy: -175309.35511 eV PBE+vdW (tier 2 basis)
C    -2.094888  1.637087  0.715361
C    -1.625717  0.239601  0.968983
O    -0.585104  -0.170927  0.373841
H    -1.279605  2.328991  0.969248
H    -2.987939  1.908016  1.288579
H    -2.293357  1.763282  -0.357057
N    -2.324290  -0.511826  1.841223
C    -1.930202  -1.805625  2.421265
C    -2.448230  -2.958639  1.534513
O    -1.912346  -3.206276  0.407049
H    -3.161456  -0.083696  2.229249
H    -0.830352  -1.860741  2.367156
C    -2.348417  -1.875745  3.898518
C    -1.575719  -0.915281  4.814181
C    -2.008982  -0.966315  6.295070
N    -1.743844  -2.226224  6.971162
C    -2.602249  -3.292682  7.026858
N    -2.145594  -4.432782  7.610594
N    -3.814839  -3.334130  6.508072
H    -2.191583  -2.908136  4.242705
H    -3.431524  -1.675362  3.980539
H    -1.702625  0.125970  4.480283
H    -0.498406  -1.133268  4.749823
H    -3.076386  -0.718577  6.393574
H    -1.469956  -0.183757  6.843717
H    -0.833930  -2.321690  7.411724
H    -2.836472  -5.157341  7.775295
H    -1.311056  -4.452912  8.184930
H    -4.154946  -2.399604  6.265202
N    -3.470076  -3.690884  1.943225
C    -4.044340  -4.795582  1.166503
H    -3.873972  -3.491040  2.854195
H    -4.803687  -5.287692  1.778975
H    -3.261566  -5.515246  0.901298
H    -4.504873  -4.414878  0.246994
Cd    -0.205097  -2.149822  -0.480140
