36
Energy: -175308.688717 eV PBE+vdW (tier 2 basis)
C    -0.251520  -1.324828  -0.890331
C    -0.066651  -0.324355  0.197989
O    0.590397  0.738933  -0.031499
H    -0.971144  -0.946227  -1.631780
H    -0.568978  -2.305988  -0.525131
H    0.705717  -1.425435  -1.420435
N    -0.568046  -0.537036  1.441461
C    -1.927290  -0.994920  1.723728
C    -2.843467  0.258673  1.635722
O    -2.347241  1.433195  1.589866
H    -0.204149  0.115013  2.137120
H    -2.218860  -1.688370  0.922355
C    -2.009541  -1.741098  3.075326
C    -1.950605  -0.850343  4.319027
C    -2.107922  -1.619194  5.652467
N    -3.188446  -2.599497  5.696663
C    -4.517758  -2.317517  5.566471
N    -5.387787  -3.364843  5.542204
N    -5.030934  -1.115435  5.374372
H    -1.193501  -2.478497  3.077577
H    -2.941457  -2.319913  3.089212
H    -2.726315  -0.072914  4.250066
H    -0.990064  -0.316426  4.390349
H    -2.222138  -0.891774  6.471169
H    -1.189568  -2.179443  5.865339
H    -2.916944  -3.566603  5.840444
H    -6.371995  -3.124563  5.604917
H    -5.125148  -4.291153  5.859757
H    -4.363099  -0.374430  5.603442
N    -4.162504  0.129063  1.629422
C    -4.989557  -1.073604  1.746216
H    -4.662312  1.018600  1.587845
H    -4.469436  -1.948606  1.344699
H    -5.899632  -0.918406  1.157579
H    -5.268725  -1.244962  2.796264
Cd    -0.555345  2.489201  0.730917
