36
Energy: -175310.648145 eV PBE+vdW (tier 2 basis)
C    -0.613112  1.328024  -0.435198
C    -1.180346  0.264486  0.437874
O    -0.571532  -0.840186  0.559112
H    0.222900  1.823580  0.082844
H    -1.351085  2.073888  -0.744492
H    -0.177185  0.845839  -1.320138
N    -2.360026  0.465376  1.097971
C    -2.631527  1.658162  1.896601
C    -1.682269  1.616766  3.130586
O    -1.101759  0.547815  3.477786
H    -2.767119  -0.381119  1.501104
H    -2.355834  2.529372  1.285674
C    -4.131467  1.811633  2.268592
C    -4.701009  1.080115  3.505191
C    -5.264679  -0.344171  3.345921
N    -4.266293  -1.378628  3.025906
C    -3.325821  -1.870624  3.867511
N    -3.252972  -1.425790  5.124145
N    -2.363059  -2.752963  3.469356
H    -4.715910  1.578503  1.365979
H    -4.293451  2.884816  2.438384
H    -5.554180  1.677168  3.858097
H    -3.973326  1.121732  4.330873
H    -6.005027  -0.370537  2.537065
H    -5.810340  -0.628307  4.259831
H    -4.393044  -1.895807  2.160791
H    -2.623314  -1.909560  5.756056
H    -3.935031  -0.794768  5.526964
H    -2.690730  -3.370268  2.720592
N    -1.518847  2.752910  3.797956
C    -0.668603  2.932798  4.977129
H    -2.006786  3.576922  3.454336
H    -1.279212  3.241168  5.834244
H    0.079506  3.708277  4.775119
H    -0.166614  1.989532  5.201956
Cd    -0.802993  -1.547522  2.622308
