36
Energy: -175311.198768 eV PBE+vdW (tier 2 basis)
C    0.642905  -0.477563  3.219226
C    0.160801  -1.040440  1.932197
O    0.279184  -2.288528  1.708408
H    -0.073941  -0.725436  4.018195
H    0.801773  0.603950  3.184742
H    1.579607  -0.985313  3.486378
N    -0.400605  -0.241127  0.986787
C    -1.457019  0.732324  1.258992
C    -2.648268  -0.033038  1.891921
O    -2.782405  -1.280091  1.714108
H    -0.475823  -0.672205  0.063996
H    -1.089179  1.459150  1.997986
C    -1.816853  1.535292  -0.024141
C    -1.960819  0.831949  -1.392714
C    -3.235167  0.033890  -1.732799
N    -3.296391  -1.296081  -1.123952
C    -3.109693  -2.506092  -1.699949
N    -3.360776  -2.682190  -3.006132
N    -2.659958  -3.504900  -0.923109
H    -1.017846  2.280371  -0.139102
H    -2.729731  2.111048  0.188263
H    -1.075688  0.218198  -1.633306
H    -1.916038  1.648124  -2.129372
H    -3.276848  -0.076959  -2.822635
H    -4.135778  0.594053  -1.442746
H    -3.424235  -1.329529  -0.112762
H    -3.994397  -2.069916  -3.507784
H    -3.074590  -3.531080  -3.480387
H    -2.775386  -4.447219  -1.289681
N    -3.507810  0.678163  2.610352
C    -4.703053  0.148075  3.270965
H    -3.323367  1.672931  2.721540
H    -5.604715  0.571837  2.812016
H    -4.682322  0.418824  4.332739
H    -4.713878  -0.939341  3.169260
Cd    -1.461860  -3.010841  0.706886
