36
Energy: -175310.587892 eV PBE+vdW (tier 2 basis)
C    0.356647  0.489553  1.266085
C    -0.620337  -0.338149  2.024228
O    -0.229370  -1.201311  2.856849
H    0.766736  1.269115  1.927465
H    -0.069305  0.951691  0.370789
H    1.206630  -0.148774  0.990551
N    -1.968715  -0.166239  1.827619
C    -2.633769  1.136341  1.868108
C    -2.236765  1.833823  3.194888
O    -1.997043  1.157928  4.244937
H    -2.539846  -0.930909  2.191111
H    -2.306021  1.736286  1.007080
C    -4.183573  0.981207  1.856560
C    -4.783483  -0.137592  0.965175
C    -5.494342  -1.270984  1.732989
N    -4.582456  -2.014169  2.621238
C    -4.348983  -1.813832  3.936853
N    -5.098171  -0.945639  4.639605
N    -3.312442  -2.398129  4.595304
H    -4.591247  1.952162  1.549927
H    -4.506817  0.848142  2.898108
H    -4.016571  -0.573496  0.307849
H    -5.527941  0.298624  0.285930
H    -5.923741  -1.989798  1.024038
H    -6.342083  -0.885610  2.315358
H    -4.025286  -2.743002  2.182820
H    -5.038124  -1.011128  5.650852
H    -5.952454  -0.552572  4.262547
H    -2.992014  -3.253661  4.133827
N    -2.199834  3.157335  3.200120
C    -1.918058  3.999580  4.365514
H    -2.397495  3.634667  2.323256
H    -1.105699  4.694124  4.123220
H    -1.624136  3.364650  5.203843
H    -2.813000  4.574161  4.633991
Cd    -1.664812  -1.011568  4.581334
