36
Energy: -175310.221156 eV PBE+vdW (tier 2 basis)
C    -2.453285  -0.533581  1.148792
C    -1.441616  -0.461546  2.269572
O    -0.234864  -0.789095  1.800350
H    -2.145849  0.139060  0.338327
H    -3.451914  -0.251811  1.490389
H    -2.469006  -1.548271  0.729749
N    -1.852258  -0.136431  3.457102
C    -1.113059  -0.135355  4.727327
C    -0.122048  1.030638  4.935538
O    1.070786  1.080511  4.461467
H    -3.597008  -0.817566  3.815391
H    -1.890719  0.072411  5.479765
C    -0.499853  -1.501616  5.134477
C    -1.440270  -2.685106  4.864918
C    -2.748588  -2.632470  5.685968
N    -3.911255  -3.183721  4.992100
C    -4.817845  -2.459091  4.314290
N    -6.004108  -3.014770  4.018996
N    -4.558980  -1.196011  3.955308
H    -0.220321  -1.451883  6.198066
H    0.446137  -1.706602  4.597339
H    -0.904746  -3.617898  5.083686
H    -1.686957  -2.717679  3.795668
H    -3.009642  -1.604874  5.969712
H    -2.636039  -3.187547  6.625367
H    -4.079205  -4.181944  5.065406
H    -6.621771  -2.602368  3.330492
H    -6.337869  -3.840904  4.501418
H    -5.325244  -0.618572  3.628519
N    -0.526054  2.039326  5.687038
C    0.286429  3.222113  5.988482
H    -1.458754  1.986447  6.085859
H    -0.338354  3.941881  6.522861
H    0.653073  3.672676  5.059343
H    1.143701  2.946583  6.614627
Cd    1.436814  -0.218522  2.837086
