36
Energy: -175308.675034 eV PBE+vdW (tier 2 basis)
C    0.345976  0.018082  -0.005928
C    0.444913  0.367413  1.435599
O    1.587988  0.617399  1.934459
H    0.697579  0.859900  -0.619532
H    -0.652140  -0.308183  -0.329481
H    1.055454  -0.802296  -0.194478
N    -0.648534  0.401401  2.241500
C    -1.901387  1.086709  1.920715
C    -1.628816  2.609074  2.022560
O    -0.642505  3.058365  2.692752
H    -0.412668  0.444560  3.234879
H    -2.181295  0.828745  0.891662
C    -3.010384  0.675525  2.918189
C    -3.341118  -0.826092  2.972534
C    -4.373016  -1.335485  1.946979
N    -3.994029  -1.155466  0.548348
C    -2.956660  -1.774735  -0.104764
N    -2.295913  -2.775423  0.544206
N    -2.484867  -1.388845  -1.270001
H    -3.916084  1.258508  2.699049
H    -2.689623  1.004661  3.919663
H    -3.766257  -1.042592  3.962555
H    -2.416112  -1.416544  2.909957
H    -5.326452  -0.809392  2.081555
H    -4.587612  -2.397422  2.154726
H    -4.606178  -0.601547  -0.039917
H    -1.626616  -3.276728  -0.032921
H    -2.776400  -3.337520  1.238642
H    -3.070968  -0.677030  -1.718559
N    -2.449532  3.474959  1.442625
C    -3.673092  3.225397  0.682271
H    -2.205745  4.453619  1.604011
H    -3.668787  2.215583  0.261342
H    -3.723563  3.943436  -0.143225
H    -4.559900  3.355229  1.316461
Cd    1.478876  2.483046  3.134698
