36
Energy: -175309.517359 eV PBE+vdW (tier 2 basis)
C    -0.039329  -2.002803  0.815136
C    -0.114560  -0.759482  1.641796
O    0.946789  -0.063173  1.760066
H    -0.980379  -2.562619  0.792796
H    0.768364  -2.644065  1.189881
H    0.230770  -1.717914  -0.212254
N    -1.293321  -0.433356  2.193839
C    -1.725681  0.867904  2.746199
C    -1.494766  0.937664  4.270904
O    -0.305593  1.003918  4.754514
H    -2.047056  -1.097336  2.031731
H    -1.054152  1.636073  2.324163
C    -3.144250  1.200080  2.267766
C    -4.225108  0.110747  2.479529
C    -5.549334  0.683692  3.007810
N    -5.458166  1.143174  4.409442
C    -5.559093  2.513738  4.706238
N    -6.160107  2.806911  5.898310
N    -4.997693  3.337588  3.877400
H    -3.079145  1.444354  1.199312
H    -3.454685  2.140909  2.757372
H    -3.897160  -0.679502  3.177064
H    -4.443029  -0.397139  1.529545
H    -6.326317  -0.089816  2.954516
H    -5.869253  1.529404  2.387509
H    -5.934673  0.533874  5.070582
H    -6.216968  3.779781  6.179019
H    -6.892839  2.211970  6.272650
H    -5.127697  4.318090  4.138738
N    -2.514323  0.958797  5.098891
C    -2.371861  1.077399  6.552044
H    -3.483288  0.946692  4.732071
H    -3.363626  1.260833  6.973880
H    -1.706212  1.911058  6.802378
H    -1.958061  0.154433  6.976717
Cd    1.428224  1.111300  3.490804
