36
Energy: -175310.676449 eV PBE+vdW (tier 2 basis)
C    0.547443  -0.257190  0.862593
C    -0.343945  0.365839  1.904954
O    -0.201206  1.565165  2.165958
H    -0.894969  2.661580  0.827570
H    0.031479  -0.480867  -0.079819
H    1.400813  0.397740  0.677934
N    -1.278640  -0.350919  2.633143
C    -2.154712  -1.486961  2.288234
C    -1.642624  -2.852384  2.807613
O    -0.476951  -3.314355  2.606092
H    -1.659955  0.246466  3.365099
H    -3.071913  -1.288641  2.862873
C    -2.590944  -1.553884  0.804609
C    -3.620615  -0.481999  0.390551
C    -3.214706  0.995195  0.305223
N    -2.337762  1.265919  -0.855979
C    -1.685927  2.436564  -1.069496
N    -1.557390  2.885769  -2.326818
N    -1.154295  3.119060  -0.055920
H    -3.068397  -2.532681  0.651226
H    -1.720094  -1.552229  0.135818
H    -4.473778  -0.526841  1.084736
H    -4.041656  -0.784286  -0.581769
H    -2.714436  1.338526  1.215505
H    -4.133227  1.593807  0.203720
H    -2.612554  0.782809  -1.708363
H    -0.897724  3.620735  -2.557073
H    -2.184809  2.587480  -3.064590
H    -0.795574  4.054973  -0.209395
N    -2.518617  -3.590660  3.477416
C    -2.229437  -4.934801  3.986896
H    -3.436003  -3.200315  3.669952
H    -3.160046  -5.370312  4.359247
H    -1.498703  -4.884279  4.803395
H    -1.825266  -5.562101  3.184944
Cd    1.097580  -2.202939  1.618025
