36
Energy: -175308.636793 eV PBE+vdW (tier 2 basis)
C    -2.992746  1.309449  2.453340
C    -3.858246  0.489621  3.352545
O    -4.319064  1.024115  4.406259
H    -3.124101  1.070504  1.394929
H    -1.936452  1.163499  2.728005
H    -3.226855  2.365384  2.628318
N    -4.212022  -0.796096  3.065641
C    -3.321633  -1.893881  2.660571
C    -2.391358  -2.191716  3.870846
O    -2.199307  -1.303917  4.754909
H    -4.957358  -1.112766  3.687408
H    -3.988816  -2.759521  2.529180
C    -2.551584  -1.702852  1.338824
C    -3.484529  -1.539772  0.128669
C    -2.753128  -1.413171  -1.212750
N    -2.082140  -2.644061  -1.575941
C    -1.085346  -2.815348  -2.501960
N    -0.642041  -1.740031  -3.198990
N    -0.638948  -4.052003  -2.587211
H    -1.915850  -2.587969  1.198934
H    -1.855764  -0.857026  1.416076
H    -4.116600  -0.648811  0.246755
H    -4.186631  -2.388253  0.076689
H    -2.003142  -0.605512  -1.165244
H    -3.485962  -1.125585  -1.989171
H    -2.455000  -3.534473  -1.254721
H    0.101230  -1.868308  -3.875627
H    -1.172735  -0.879988  -3.275259
H    0.108450  -4.158805  -3.281852
N    -1.793394  -3.374549  3.978959
C    -1.848842  -4.535935  3.091543
H    -1.194120  -3.458577  4.801017
H    -2.794709  -4.565579  2.541410
H    -1.784769  -5.441437  3.703889
H    -1.009260  -4.534126  2.383762
Cd    -3.448748  -0.012403  6.189018
