36
Energy: -175308.639107 eV PBE+vdW (tier 2 basis)
C    -1.690152  0.579879  -0.389631
C    -0.466848  0.305760  0.418381
O    0.675457  0.384283  -0.136241
H    -2.287353  -0.338774  -0.504191
H    -1.391596  0.919911  -1.385182
H    -2.327177  1.333693  0.087997
N    -0.526166  -0.028235  1.735698
C    -1.445499  -0.994898  2.360032
C    -1.173362  -2.382470  1.713808
O    -0.086102  -2.635318  1.089778
H    0.378780  0.045012  2.199274
H    -1.073541  -1.082901  3.393479
C    -2.927562  -0.536390  2.423481
C    -3.597642  -0.582265  3.811316
C    -3.723301  -1.937082  4.514734
N    -4.359877  -2.934859  3.657513
C    -4.649282  -4.248318  4.054932
N    -4.156677  -4.667992  5.248064
N    -5.310186  -4.943841  3.172523
H    -3.523583  -1.078142  1.675725
H    -2.955962  0.514415  2.114192
H    -4.602796  -0.149042  3.697741
H    -3.065767  0.092967  4.497182
H    -4.292291  -1.782588  5.449024
H    -2.732399  -2.323952  4.809698
H    -5.093857  -2.600611  3.031709
H    -4.343803  -5.619396  5.544749
H    -3.866759  -4.024539  5.976074
H    -5.547853  -5.886702  3.496704
N    -2.078648  -3.328672  1.855182
C    -1.935559  -4.692554  1.337975
H    -2.941171  -3.129643  2.397683
H    -1.145438  -5.230778  1.876349
H    -1.685927  -4.670594  0.271468
H    -2.892488  -5.203531  1.476162
Cd    1.650262  -1.575740  0.214074
