36
Energy: -175308.511106 eV PBE+vdW (tier 2 basis)
C    -0.887805  0.846664  2.340782
C    -1.274813  0.103653  3.574650
O    -0.549518  0.190938  4.613493
H    -1.749990  1.308911  1.849579
H    -0.411334  0.153177  1.627758
H    -0.145184  1.607316  2.601702
N    -2.384598  -0.680855  3.613180
C    -2.784357  -1.661920  2.589211
C    -1.611131  -2.664274  2.422779
O    -0.832441  -2.923501  3.401285
H    -2.655270  -0.938033  4.561616
H    -3.575753  -2.248402  3.084100
C    -3.395515  -1.079417  1.298361
C    -4.505538  -1.982490  0.731820
C    -4.907519  -1.644731  -0.732479
N    -4.948977  -2.821603  -1.589667
C    -3.867280  -3.606398  -1.891780
N    -2.604935  -3.045906  -1.629443
N    -3.895006  -4.830705  -2.315277
H    -2.611815  -0.906394  0.545682
H    -3.813604  -0.093538  1.540326
H    -5.392485  -1.915838  1.376889
H    -4.198856  -3.037594  0.764813
H    -4.215928  -0.901713  -1.160430
H    -5.900033  -1.184217  -0.771566
H    -5.858865  -3.212571  -1.816075
H    -1.895764  -3.629572  -2.076054
H    -2.507098  -2.077849  -1.937658
H    -4.834740  -5.196712  -2.498932
N    -1.453859  -3.304388  1.277980
C    -0.443178  -4.346887  1.074666
H    -2.046219  -3.084303  0.464607
H    0.560714  -3.909286  1.003202
H    -0.677807  -4.871471  0.144603
H    -0.462469  -5.058409  1.906700
Cd    -0.050774  -1.898055  5.215573
