36
Energy: -175311.179709 eV PBE+vdW (tier 2 basis)
C    -0.507476  -1.715536  0.000686
C    -0.390205  -0.828244  1.186630
O    0.681005  -0.166499  1.376014
H    -0.694263  -1.104332  -0.896382
H    -1.292568  -2.470106  0.103972
H    0.462313  -2.204237  -0.162059
N    -1.405235  -0.717869  2.084830
C    -2.797788  -0.458366  1.718973
C    -2.849525  0.941158  1.045446
O    -1.917977  1.776845  1.214355
H    -1.140577  -0.217924  2.939172
H    -3.115218  -1.219076  0.991720
C    -3.731663  -0.552526  2.947416
C    -3.698829  0.560139  4.019810
C    -2.585601  0.524898  5.081607
N    -1.317096  1.167356  4.658656
C    -1.152521  2.561309  4.631031
N    -1.987651  3.342538  5.318893
N    -0.169699  3.011260  3.868280
H    -3.563262  -1.535733  3.411994
H    -4.758128  -0.590267  2.556999
H    -3.741347  1.557879  3.554809
H    -4.643545  0.466178  4.573259
H    -2.328907  -0.511777  5.337354
H    -2.959813  0.963700  6.020049
H    -0.490313  0.727392  5.065962
H    -1.960971  4.352733  5.221703
H    -2.554854  2.973348  6.074968
H    0.089781  3.991350  3.974508
N    -3.922112  1.214366  0.311112
C    -4.172538  2.478220  -0.384541
H    -4.623918  0.485299  0.208349
H    -5.082625  2.947045  0.008486
H    -4.302200  2.288866  -1.456505
H    -3.319904  3.142961  -0.230724
Cd    0.153007  1.748893  2.206833
