36
Energy: -175308.789485 eV PBE+vdW (tier 2 basis)
C    1.327997  -2.014550  2.980188
C    0.642008  -1.391872  4.144767
O    1.290344  -1.198936  5.225756
H    2.085063  -1.328957  2.572704
H    0.637735  -2.333745  2.194089
H    1.880806  -2.889857  3.352059
N    -0.667225  -1.044312  4.093642
C    -1.333480  -0.340955  3.002843
C    -1.151490  1.181373  3.246003
O    -0.446106  1.666018  4.201590
H    -1.101914  -0.914864  5.009634
H    -0.775595  -0.572466  2.082562
C    -2.819239  -0.764698  2.851382
C    -3.202792  -1.388122  1.504705
C    -2.959280  -0.556740  0.240981
N    -3.424807  0.857644  0.250419
C    -4.780829  1.185177  0.478010
N    -5.306777  2.105731  -0.377130
N    -5.360438  0.659626  1.513911
H    -3.487192  0.084401  3.049526
H    -3.033905  -1.505331  3.633889
H    -4.265572  -1.647585  1.570974
H    -2.662258  -2.335845  1.352079
H    -3.413442  -1.091434  -0.608948
H    -1.882960  -0.492792  0.017505
H    -3.043605  1.351252  -0.556948
H    -4.934388  2.264510  -1.307227
H    -6.232668  2.478902  -0.198567
H    -6.346892  0.926958  1.586354
N    -1.753862  1.996926  2.407828
C    -1.670581  3.456992  2.488590
H    -2.374110  1.591324  1.672429
H    -2.208915  3.876266  1.634439
H    -0.625756  3.786249  2.455701
H    -2.129564  3.819610  3.416532
Cd    0.808450  0.872928  5.818956
