36
Energy: -175310.852981 eV PBE+vdW (tier 2 basis)
C    -1.434431  2.446425  0.062789
C    -0.569673  2.043721  1.220019
O    0.425651  2.688846  1.573403
H    -1.935132  3.390170  0.320795
H    -2.196210  1.704570  -0.201559
H    -0.799252  2.649604  -0.807266
N    -0.925616  0.898999  1.898162
C    -0.359137  0.551169  3.200038
C    1.065569  -0.069108  3.084311
O    1.460380  -1.180999  3.622851
H    -1.709694  0.361222  1.547880
H    -0.177074  1.508540  3.720009
C    -1.380275  -0.235420  4.037572
C    -2.093344  -1.433574  3.371554
C    -2.637017  -2.462467  4.375798
N    -1.536041  -3.399452  4.790205
C    -1.410043  -3.767465  6.174861
N    -2.400341  -4.405799  6.790148
N    -0.260990  -3.399905  6.693961
H    -2.142502  0.480270  4.377032
H    -0.890780  -0.530837  4.989265
H    -1.438281  -1.956750  2.656779
H    -2.948185  -1.066019  2.786679
H    -3.464449  -3.032182  3.933698
H    -3.023577  -1.964946  5.275882
H    -1.537370  -4.236354  4.199139
H    -2.347732  -4.668799  7.771296
H    -3.237213  -4.685781  6.288917
H    -0.047043  -3.631713  7.665863
N    1.925907  0.641883  2.403334
C    3.327000  0.287506  2.187482
H    1.539190  1.550824  2.029731
H    3.407002  -0.563407  1.499176
H    3.808408  0.023221  3.136085
H    3.831336  1.152256  1.749196
Cd    0.669057  -2.311793  5.128118
