36
Energy: -175310.185657 eV PBE+vdW (tier 2 basis)
C    0.443084  -0.091898  1.410748
C    -0.200102  0.443536  2.660730
O    0.183869  1.705921  2.890394
H    0.100192  -1.113686  1.224796
H    1.535771  -0.075690  1.512508
H    0.191844  0.550588  0.556394
N    -1.018723  -0.324878  3.318116
C    -1.801876  0.142933  4.442249
C    -1.019437  0.029158  5.768020
O    -0.591834  1.103235  6.346691
H    -5.779989  -2.682993  -0.214883
H    -2.048157  1.234976  4.383333
C    -3.181150  -0.553956  4.461686
C    -4.030666  -0.146079  3.251405
C    -5.367882  -0.900508  3.225025
N    -6.259027  -0.495659  2.131140
C    -6.421374  -1.123348  0.958236
N    -7.468383  -0.814220  0.179780
N    -5.553991  -2.060140  0.551383
H    -3.702413  -0.299451  5.397547
H    -3.033054  -1.641199  4.451147
H    -3.460865  -0.339465  2.329632
H    -4.230566  0.936949  3.277200
H    -5.922103  -0.730316  4.158423
H    -5.214315  -1.987082  3.159065
H    -6.834305  0.326274  2.285970
H    -7.506632  -1.101690  -0.791025
H    -8.271723  -0.316790  0.545123
H    -4.647408  -2.167730  0.985901
N    -0.728474  -1.124438  6.341670
C    -0.992040  -2.486583  5.872875
H    -0.195303  -1.031677  7.207235
H    -1.929003  -2.874289  6.292024
H    -0.168841  -3.121092  6.216911
H    -1.013494  -2.506768  4.779628
Cd    -0.092354  2.472208  4.785125
