36
Energy: -175309.292152 eV PBE+vdW (tier 2 basis)
C    -0.675830  2.578877  1.782697
C    -0.567157  1.155984  2.240604
O    0.570867  0.606614  2.259895
H    -1.705103  2.948553  1.725835
H    -0.204364  2.666009  0.794637
H    -0.097751  3.217992  2.463892
N    -1.710227  0.532442  2.590780
C    -1.965807  -0.887421  2.914691
C    -1.550388  -1.235106  4.356078
O    -0.350094  -1.245255  4.758599
H    -2.541450  1.114187  2.544672
H    -3.061289  -0.967709  2.873779
C    -1.413732  -1.905590  1.893480
C    -1.959214  -1.692289  0.475744
C    -1.544247  -2.812806  -0.484490
N    -2.054736  -2.553372  -1.812802
C    -2.042325  -3.392896  -2.894590
N    -1.486569  -4.622569  -2.770842
N    -2.600086  -2.886357  -3.975557
H    -1.703846  -2.901416  2.262921
H    -0.315240  -1.889086  1.876489
H    -1.600654  -0.731213  0.076310
H    -3.059187  -1.640353  0.502549
H    -1.938069  -3.779486  -0.122223
H    -0.441203  -2.901484  -0.509871
H    -2.468412  -1.651564  -2.036267
H    -1.017049  -4.944779  -1.933983
H    -1.486778  -5.249864  -3.565651
H    -2.587261  -3.533116  -4.771576
N    -2.522662  -1.565808  5.197290
C    -2.290811  -1.953504  6.592379
H    -3.482225  -1.541514  4.866053
H    -3.242710  -2.271691  7.024772
H    -1.896208  -1.104123  7.163357
H    -1.571682  -2.779042  6.639099
Cd    1.542190  -0.650137  3.790126
