36
Energy: -175308.525159 eV PBE+vdW (tier 2 basis)
C    -0.298616  -1.023208  -0.482708
C    -0.106457  -0.416043  0.868115
O    1.047058  0.003883  1.187426
H    -1.281289  -0.809442  -0.911750
H    -0.160417  -2.113695  -0.418305
H    0.488197  -0.638464  -1.140983
N    -1.129393  -0.250641  1.754418
C    -2.111769  -1.258635  2.178654
C    -1.329959  -2.343427  2.973444
O    -0.083126  -2.486488  2.789078
H    -0.846302  0.358649  2.523265
H    -2.768077  -0.729300  2.885890
C    -3.009823  -1.855408  1.076216
C    -3.878472  -0.800926  0.377450
C    -4.855175  -1.432591  -0.638877
N    -5.674780  -0.441353  -1.320326
C    -5.298187  0.340351  -2.384543
N    -4.218274  -0.048569  -3.128135
N    -5.861401  1.481580  -2.698305
H    -3.659868  -2.600543  1.556517
H    -2.406405  -2.419847  0.352897
H    -3.252994  -0.058521  -0.138966
H    -4.461909  -0.243514  1.126313
H    -5.539894  -2.126426  -0.131965
H    -4.307198  -2.033118  -1.378153
H    -6.520039  -0.137847  -0.846253
H    -4.050132  0.543057  -3.938107
H    -4.028896  -1.035264  -3.266743
H    -6.699826  1.699088  -2.148957
N    -1.964574  -3.126163  3.840182
C    -3.380389  -3.166177  4.205612
H    -1.359780  -3.812934  4.292900
H    -3.911150  -3.942759  3.639130
H    -3.858314  -2.196353  4.036650
H    -3.455521  -3.401573  5.272510
Cd    1.817345  -1.211636  2.901795
