36
Energy: -175311.809885 eV PBE+vdW (tier 2 basis)
C    -0.657373  2.658990  1.826686
C    -0.828166  1.224324  2.217146
O    -0.160217  0.348790  1.598551
H    -0.913183  2.769297  0.764334
H    0.402036  2.929361  1.929295
H    -1.266234  3.351290  2.417353
N    -1.696712  0.956729  3.217908
C    -2.091704  -0.353026  3.774349
C    -0.879950  -1.001180  4.475989
O    -0.032381  -1.693191  3.840212
H    -2.164849  1.767169  3.611905
H    -2.832339  -0.122075  4.548566
C    -2.780678  -1.246650  2.715144
C    -2.976762  -2.732266  3.079113
C    -3.001467  -3.657157  1.829942
N    -1.939500  -4.672639  1.790369
C    -0.861710  -4.686741  0.969889
N    -0.387854  -5.888852  0.592209
N    -0.281352  -3.555738  0.544848
H    -2.247987  -1.158351  1.751694
H    -3.749541  -0.778607  2.490857
H    -3.910954  -2.849244  3.641789
H    -2.177753  -3.086598  3.743700
H    -2.934996  -3.072629  0.902542
H    -3.953290  -4.199325  1.781464
H    -2.159286  -5.559365  2.233864
H    0.547035  -5.987937  0.213857
H    -0.966462  -6.721397  0.612410
H    0.315121  -3.700206  -0.267762
N    -0.725459  -0.823547  5.783671
C    -1.561182  -0.058923  6.715462
H    0.113802  -1.260719  6.164919
H    -1.577217  1.007195  6.457331
H    -2.583341  -0.454842  6.757128
H    -1.124304  -0.156525  7.713014
Cd    -0.009791  -1.804414  1.652252
