36
Energy: -175308.841286 eV PBE+vdW (tier 2 basis)
C    0.148016  -0.170464  0.566007
C    -0.025179  0.102973  2.022358
O    0.982680  0.109013  2.787224
H    -0.776312  -0.488623  0.074429
H    0.912831  -0.949715  0.453380
H    0.545971  0.724903  0.064056
N    -1.261454  0.331651  2.544690
C    -2.234445  1.257435  1.965421
C    -1.743134  2.692623  2.292428
O    -0.901052  2.890751  3.221220
H    -1.259156  0.351356  3.565830
H    -2.235022  1.116995  0.875145
C    -3.644557  0.988084  2.528363
C    -4.193924  -0.387611  2.121834
C    -5.583031  -0.700249  2.689993
N    -6.602263  0.161772  2.128343
C    -7.861496  0.399452  2.616082
N    -8.254809  -0.222569  3.754857
N    -8.559355  1.261422  1.904716
H    -4.319666  1.785952  2.190130
H    -3.607367  1.076765  3.626758
H    -3.514373  -1.180638  2.463408
H    -4.226800  -0.472467  1.022931
H    -5.581559  -0.575979  3.785963
H    -5.816554  -1.761918  2.487731
H    -6.484939  0.537090  1.190094
H    -9.182384  -0.038367  4.118342
H    -7.781582  -1.038125  4.126214
H    -9.496100  1.427861  2.288443
N    -2.220587  3.730737  1.613599
C    -3.216512  3.762703  0.542992
H    -1.857008  4.632270  1.925482
H    -2.932172  4.541238  -0.172788
H    -4.213035  3.998972  0.939050
H    -3.251848  2.807967  0.009593
Cd    1.020046  1.971462  4.060606
