36
Energy: -175309.12887 eV PBE+vdW (tier 2 basis)
C    0.584355  0.681590  0.704751
C    0.461057  0.382038  2.154845
O    1.394084  -0.281949  2.718443
H    -0.264435  1.234958  0.289393
H    0.676159  -0.293818  0.182934
H    1.517417  1.227212  0.514710
N    -0.647128  0.788259  2.805617
C    -1.166293  0.387736  4.127501
C    -0.537631  1.185259  5.279691
O    0.708238  1.427964  5.368270
H    -1.281179  1.354683  2.249849
H    -2.226963  0.669354  4.092549
C    -1.097135  -1.136018  4.416814
C    -2.210032  -1.995957  3.789259
C    -2.420669  -1.949812  2.273125
N    -1.229591  -2.262451  1.511059
C    -1.135462  -2.329855  0.141861
N    -2.283410  -2.240248  -0.580767
N    0.089977  -2.404604  -0.327986
H    -1.165861  -1.270446  5.506353
H    -0.105402  -1.513312  4.138701
H    -3.175037  -1.730953  4.245608
H    -2.020209  -3.037111  4.089836
H    -2.796717  -0.958694  1.955733
H    -3.228755  -2.666360  2.041389
H    -0.365800  -2.523109  1.976762
H    -2.225427  -2.323862  -1.589136
H    -3.190521  -2.444452  -0.175999
H    0.113974  -2.524835  -1.345888
N    -1.331723  1.630729  6.246031
C    -2.791788  1.538128  6.355488
H    -0.839156  2.110117  7.000433
H    -3.288827  2.060860  5.528425
H    -3.088033  2.026945  7.287567
H    -3.124072  0.493711  6.399353
Cd    2.423810  0.401947  4.500382
