36
Energy: -175310.829315 eV PBE+vdW (tier 2 basis)
C    -0.684377  1.516090  -0.320464
C    -0.887362  0.537438  0.780524
O    0.089287  0.121482  1.465381
H    -0.530241  2.519969  0.106199
H    -1.511494  1.541185  -1.035761
H    0.250879  1.261280  -0.836552
N    -2.146356  0.074724  1.070536
C    -3.309093  0.941684  1.268649
C    -2.941468  2.018145  2.325330
O    -2.040950  1.815378  3.197150
H    -2.146832  -0.775483  1.632280
H    -3.546593  1.440423  0.317317
C    -4.552080  0.122771  1.706824
C    -4.565121  -0.404541  3.160773
C    -4.059900  -1.850290  3.390918
N    -3.669503  -2.062665  4.792434
C    -2.493497  -1.636036  5.302547
N    -2.431574  -1.213553  6.571733
N    -1.353347  -1.630625  4.569725
H    -4.690717  -0.690551  0.978562
H    -5.421087  0.779449  1.572257
H    -5.596514  -0.351400  3.533202
H    -3.991541  0.274185  3.809933
H    -3.210183  -2.114506  2.748005
H    -4.838927  -2.582683  3.148466
H    -4.418444  -2.281707  5.445723
H    -1.535595  -1.227809  7.048620
H    -3.261555  -1.067363  7.136584
H    -1.362437  -2.391016  3.886350
N    -3.627167  3.151748  2.288484
C    -3.469499  4.274950  3.215294
H    -4.318823  3.258279  1.549575
H    -4.398690  4.425816  3.777937
H    -3.242207  5.185942  2.649623
H    -2.651514  4.057051  3.905032
Cd    -0.666921  0.089182  3.554871
