36
Energy: -175309.185937 eV PBE+vdW (tier 2 basis)
C    0.311111  0.636872  0.093499
C    0.145824  0.467267  1.571537
O    1.122907  0.703989  2.330713
H    0.626281  1.669171  -0.109653
H    -0.599337  0.418508  -0.475004
H    1.122479  -0.016801  -0.252833
N    -1.062793  0.071097  2.030154
C    -1.431097  -0.025737  3.443180
C    -0.824064  -1.288272  4.105079
O    0.171519  -1.149221  4.882162
H    -1.786336  -0.091333  1.335755
H    -0.919627  0.799824  3.961857
C    -2.942439  0.174338  3.664535
C    -3.370478  1.641335  3.510422
C    -4.866543  1.843436  3.775295
N    -5.221644  3.237912  3.629118
C    -6.470962  3.794504  3.703709
N    -7.533741  2.995593  3.968403
N    -6.496083  5.094037  3.490572
H    -3.180521  -0.177136  4.679753
H    -3.518164  -0.462193  2.976766
H    -3.135635  2.004832  2.497806
H    -2.797178  2.263642  4.215714
H    -5.114577  1.492493  4.794904
H    -5.461941  1.234266  3.070285
H    -4.504025  3.935670  3.449620
H    -7.451170  2.017064  4.214708
H    -8.456374  3.406798  4.039172
H    -7.441270  5.488745  3.544211
N    -1.298444  -2.512448  3.900925
C    -2.434345  -2.972540  3.101995
H    -0.787812  -3.230746  4.416257
H    -2.268192  -4.026923  2.860913
H    -2.504231  -2.422838  2.158349
H    -3.376714  -2.889265  3.657828
Cd    1.813211  0.280724  4.417388
