36
Energy: -175311.928184 eV PBE+vdW (tier 2 basis)
C    -0.524102  -1.233584  0.057791
C    -0.378860  -0.550517  1.384686
O    0.730082  -0.002220  1.640429
H    -0.368742  -0.491866  -0.737380
H    -1.495285  -1.717673  -0.087531
H    0.272754  -1.981747  -0.043914
N    -1.452430  -0.577651  2.198008
C    -1.743495  -0.043387  3.553844
C    -1.526975  1.476032  3.656518
O    -0.386887  2.017735  3.636900
H    -2.240197  -1.077204  1.795677
H    -2.828876  -0.191891  3.630672
C    -1.186358  -0.893340  4.729558
C    0.322422  -1.026420  5.017465
C    0.897998  0.004623  6.015147
N    2.328189  -0.157461  6.260895
C    3.332216  0.554818  5.695892
N    4.540981  0.486946  6.287028
N    3.142892  1.292818  4.600027
H    -1.585267  -1.902207  4.555575
H    -1.698359  -0.536572  5.637578
H    0.908833  -1.069055  4.082114
H    0.484825  -2.022060  5.454654
H    0.385191  -0.115680  6.979577
H    0.711084  1.046514  5.718583
H    2.598282  -0.841695  6.959596
H    5.373529  0.818248  5.815328
H    4.649555  0.180252  7.246742
H    3.918682  1.916902  4.392636
N    -2.624399  2.211166  3.812222
C    -2.638444  3.667156  3.958829
H    -3.524166  1.739312  3.809207
H    -3.343069  3.940606  4.751363
H    -2.953566  4.138040  3.018858
H    -1.634993  4.012053  4.218576
Cd    1.576956  1.120006  3.231848
