36
Energy: -175309.462742 eV PBE+vdW (tier 2 basis)
C    0.094429  0.650842  -0.263117
C    0.075769  0.071502  1.107918
O    1.200457  -0.213325  1.653244
H    -0.815393  1.201000  -0.509006
H    0.273249  -0.137030  -1.009562
H    0.962564  1.322514  -0.318271
N    -1.055944  -0.105238  1.842064
C    -2.327674  -0.814927  1.550753
C    -2.254559  -2.185601  2.275148
O    -1.118202  -2.884559  2.282710
H    -0.852408  -0.106726  2.843560
H    -3.130997  -0.236996  2.023001
C    -2.625920  -0.988420  0.049588
C    -3.953516  -1.701303  -0.261141
C    -5.216317  -0.837203  -0.328949
N    -5.563975  0.004315  0.845343
C    -6.261756  -0.428567  1.921751
N    -7.190233  0.374939  2.462924
N    -6.009142  -1.632076  2.437865
H    -1.810474  -1.567902  -0.407273
H    -2.625148  0.000212  -0.429926
H    -4.103467  -2.549432  0.417931
H    -3.865701  -2.148830  -1.261620
H    -6.072217  -1.488572  -0.555653
H    -5.128178  -0.127436  -1.161215
H    -5.684311  0.990668  0.637923
H    -7.625253  1.117251  1.926729
H    -7.561235  0.200577  3.390282
H    -6.646946  -2.008207  3.131578
N    -3.350357  -2.665125  2.743642
C    -3.380492  -3.944120  3.439026
H    -5.037537  -2.027615  2.424107
H    -4.251835  -3.967691  4.103940
H    -2.470285  -4.132636  4.021901
H    -3.494520  -4.764763  2.714059
Cd    0.822752  -2.160563  2.579140
