36
Energy: -175309.405211 eV PBE+vdW (tier 2 basis)
C    1.103737  0.962357  0.728758
C    0.562192  0.425740  2.016772
O    1.269040  -0.433410  2.632834
H    2.082453  1.423867  0.915262
H    0.441836  1.687870  0.244455
H    1.275489  0.119025  0.045253
N    -0.635920  0.877364  2.425764
C    -1.553682  0.444851  3.512298
C    -1.124398  1.023634  4.873758
O    -0.093061  0.608897  5.515739
H    -1.037872  1.586187  1.817874
H    -2.490006  0.943506  3.231467
C    -1.843779  -1.070205  3.513691
C    -3.084174  -1.545642  4.285938
C    -4.482125  -1.116473  3.750138
N    -4.987002  0.119117  4.338544
C    -4.745734  1.393602  3.897776
N    -4.510967  1.561674  2.546098
N    -4.600876  2.439775  4.673148
H    -0.983063  -1.646166  3.922072
H    -1.907586  -1.389894  2.463337
H    -3.013249  -1.272110  5.350042
H    -3.059165  -2.643996  4.262999
H    -5.198428  -1.909599  3.999719
H    -4.479751  -1.042048  2.655965
H    -5.226353  0.059444  5.324878
H    -4.571675  2.541236  2.274518
H    -5.021575  0.950935  1.913311
H    -4.848410  2.236704  5.647376
N    -1.847937  1.995651  5.385020
C    -1.536556  2.655886  6.656065
H    -2.743229  2.282107  4.921194
H    -2.298847  3.419094  6.833448
H    -0.550848  3.133113  6.605120
H    -1.535016  1.932431  7.480611
Cd    1.201059  -0.907057  4.723105
