36
Energy: -175310.825562 eV PBE+vdW (tier 2 basis)
C    1.631991  0.698883  0.014472
C    1.163995  0.473013  1.413237
O    1.979372  -0.172449  2.183696
H    2.591491  1.232210  0.030874
H    0.906324  1.259470  -0.583027
H    1.815660  -0.276183  -0.458499
N    -0.024491  0.927970  1.768623
C    -0.862888  0.675770  2.943553
C    -2.288530  0.513329  2.302806
O    -2.483539  1.081348  1.229985
H    -0.635755  1.325068  1.028218
H    -0.553454  -0.259618  3.444282
C    -0.907397  1.876519  3.917148
C    0.406364  2.234672  4.640861
C    0.475665  1.959444  6.150794
N    0.043204  0.623176  6.634075
C    0.892119  -0.376815  6.988312
N    0.617363  -1.093961  8.087335
N    1.967330  -0.647788  6.233059
H    -1.704226  1.685427  4.649872
H    -1.250551  2.740658  3.332708
H    0.603305  3.311473  4.533876
H    1.277761  1.795440  4.111455
H    -0.176349  2.678406  6.662697
H    1.494865  2.146804  6.514643
H    -0.837594  0.622619  7.139667
H    1.070897  -1.984555  8.263912
H    0.034053  -0.724779  8.831619
H    2.668994  -1.233827  6.682638
N    -3.226694  -0.172068  2.979645
C    -3.058366  -0.996337  4.169496
H    -4.129311  -0.201694  2.508484
H    -2.543050  -1.942799  3.948724
H    -4.050093  -1.238486  4.563074
H    -2.517355  -0.458828  4.959962
Cd    1.965608  -0.430020  4.194057
