36
Energy: -175308.476736 eV PBE+vdW (tier 2 basis)
C    0.144623  -0.428099  0.122630
C    0.124433  -0.039427  1.563956
O    1.202692  0.293377  2.137760
H    -0.686195  0.010781  -0.439034
H    0.080432  -1.525273  0.032965
H    1.099460  -0.118977  -0.313437
N    -1.032608  -0.039037  2.284099
C    -2.043391  -1.110332  2.274200
C    -1.321472  -2.426761  2.683030
O    -0.255475  -2.401638  3.365863
H    -0.918694  0.408218  3.192762
H    -2.691198  -0.872256  3.133071
C    -2.934945  -1.163812  1.010339
C    -4.406737  -1.553662  1.267716
C    -5.285729  -0.358588  1.704150
N    -6.671582  -0.721971  1.952774
C    -7.639469  -0.987690  1.016441
N    -7.387500  -0.713606  -0.291261
N    -8.798997  -1.546680  1.288451
H    -2.497196  -1.841011  0.264250
H    -2.909562  -0.164516  0.553549
H    -4.494351  -2.341388  2.033320
H    -4.824612  -1.979073  0.345232
H    -5.236987  0.437167  0.943829
H    -4.907564  0.095675  2.630374
H    -6.945668  -0.903185  2.912211
H    -8.168371  -0.872343  -0.921738
H    -6.692744  -0.036745  -0.581149
H    -8.955014  -1.694192  2.291702
N    -1.864642  -3.588662  2.344191
C    -1.311795  -4.889205  2.739153
H    -2.717972  -3.583741  1.795261
H    -1.966554  -5.673902  2.352194
H    -1.257811  -4.963207  3.831391
H    -0.306056  -5.018523  2.322466
Cd    1.519394  -1.065567  3.901289
