36
Energy: -175310.523749 eV PBE+vdW (tier 2 basis)
C    -1.290554  -0.118504  -0.350423
C    -0.198681  0.516510  0.444481
O    0.866420  0.871988  -0.199406
H    -1.066134  -0.021394  -1.416124
H    -2.264268  0.340514  -0.136517
H    -1.359924  -1.190177  -0.108827
N    -0.308196  0.716679  1.754174
C    -1.322683  0.211148  2.691191
C    -1.536897  1.329247  3.732312
O    -0.559681  2.013349  4.089657
H    0.379234  1.328869  2.208790
H    -2.243802  0.033472  2.123296
C    -0.875435  -1.140119  3.346091
C    -0.299963  -1.198137  4.779129
C    1.027266  -0.502465  5.156452
N    2.077374  -0.620429  4.133787
C    2.623722  0.368191  3.426252
N    2.131830  1.639233  3.491830
N    3.615211  0.182140  2.516356
H    -0.184352  -1.626240  2.640879
H    -1.762438  -1.787733  3.364980
H    -0.200541  -2.270749  5.001684
H    -1.046012  -0.829628  5.498656
H    0.872827  0.558176  5.365747
H    1.406862  -0.954621  6.082784
H    2.401470  -1.561010  3.917883
H    2.818783  2.388151  3.458617
H    1.243203  1.844365  3.978221
H    4.134475  -0.694251  2.576793
N    -2.771932  1.460971  4.222468
C    -3.145255  2.426490  5.257188
H    -3.511631  0.884241  3.832363
H    -3.848568  3.161723  4.848146
H    -2.243371  2.940028  5.598934
H    -3.617701  1.906815  6.098821
Cd    2.736368  0.836292  0.731630
