36
Energy: -175310.455783 eV PBE+vdW (tier 2 basis)
C    -0.623730  1.234944  -1.066471
C    -0.004129  0.539379  0.115893
O    1.269343  0.428723  0.096994
H    -1.453768  1.889976  -0.790269
H    -1.003706  0.471216  -1.761887
H    0.146933  1.804423  -1.593494
N    -0.662031  0.040797  1.191577
C    -1.901118  -0.738615  1.207673
C    -1.557763  -2.206895  0.784853
O    -0.417249  -2.713050  1.030817
H    -0.182095  3.159188  3.705230
H    -2.138044  -0.855158  2.281965
C    -3.165129  -0.142917  0.556316
C    -3.557295  1.276367  1.013313
C    -3.632988  1.537464  2.522588
N    -2.309646  1.853506  3.082588
C    -2.098084  2.585769  4.182185
N    -3.099701  2.863600  5.025419
N    -0.860812  3.042756  4.447285
H    -4.007934  -0.805081  0.812240
H    -3.087387  -0.142551  -0.539576
H    -4.552993  1.480752  0.597556
H    -2.897290  2.034329  0.570221
H    -4.078074  0.675930  3.049160
H    -4.286653  2.404150  2.693257
H    -1.493918  1.498781  2.572602
H    -3.978849  2.363048  4.991234
H    -2.997084  3.563384  5.751269
H    -0.644626  3.476493  5.337125
N    -2.484770  -2.957741  0.210410
C    -2.277656  -4.364811  -0.151933
H    -3.391417  -2.546297  0.018176
H    -2.119971  -4.971393  0.747697
H    -1.401953  -4.461514  -0.803331
H    -3.166780  -4.718618  -0.679575
Cd    1.146087  -1.242550  1.585436
