36
Energy: -175309.970775 eV PBE+vdW (tier 2 basis)
C    -1.337005  0.554601  -0.757972
C    -1.163736  0.699901  0.733744
O    -0.425868  -0.300797  1.215755
H    -1.997775  1.326509  -1.161108
H    -1.736712  -0.441632  -0.988272
H    -0.357334  0.622605  -1.248804
N    -1.742694  1.700076  1.327565
C    -1.867033  1.956101  2.770317
C    -0.587792  2.555509  3.393766
O    0.369480  1.847406  3.879931
H    -3.282349  2.487129  0.757423
H    -2.592185  2.779526  2.825729
C    -2.481980  0.836581  3.652790
C    -3.476354  -0.144230  2.996151
C    -4.494782  0.361812  1.960471
N    -5.205260  1.604335  2.293435
C    -5.228457  2.701083  1.509422
N    -6.273466  3.540894  1.597161
N    -4.211466  2.972717  0.685702
H    -2.959256  1.341094  4.505170
H    -1.701716  0.209624  4.130812
H    -4.013496  -0.637070  3.818822
H    -2.925839  -0.947266  2.485179
H    -5.247020  -0.426806  1.815519
H    -4.018981  0.515389  0.988624
H    -5.939036  1.541735  2.993540
H    -6.244991  4.460511  1.173132
H    -7.164974  3.238016  1.971978
H    -4.339904  3.655144  -0.052468
N    -0.447641  3.869332  3.454264
C    -1.373217  4.910584  3.001363
H    0.427432  4.180934  3.878041
H    -1.763073  4.675078  2.005687
H    -0.813066  5.848036  2.936652
H    -2.195633  5.049079  3.715093
Cd    0.485884  -0.093034  3.043642
