36
Energy: -175309.565284 eV PBE+vdW (tier 2 basis)
C    0.604352  -0.196630  -0.137871
C    0.280925  -0.412364  1.306670
O    0.989681  -1.263338  1.940977
H    -0.046124  0.536374  -0.626289
H    0.514284  -1.160220  -0.659669
H    1.652324  0.116632  -0.232471
N    -0.737652  0.285820  1.833024
C    -1.502067  0.150869  3.101933
C    -0.835711  0.884389  4.282674
O    0.364948  0.627278  4.691672
H    -1.146937  0.957227  1.188739
H    -2.414180  0.712601  2.885838
C    -1.927682  -1.300800  3.432875
C    -3.038730  -1.411603  4.492406
C    -4.508283  -1.284707  4.020963
N    -4.848029  -0.160231  3.148207
C    -4.621884  1.154140  3.431610
N    -4.724415  2.038928  2.393439
N    -4.182509  1.613771  4.588039
H    -1.063548  -1.890059  3.790662
H    -2.230493  -1.784365  2.492836
H    -2.833315  -0.720133  5.321140
H    -2.976833  -2.413099  4.940411
H    -5.149654  -1.289292  4.917493
H    -4.778074  -2.183712  3.453338
H    -5.417046  -0.383511  2.337658
H    -4.880583  3.006541  2.659388
H    -5.158950  1.755564  1.521898
H    -4.314970  0.925597  5.332495
N    -1.539472  1.806327  4.886399
C    -1.073662  2.553490  6.054793
H    -2.599987  1.905718  4.638241
H    -1.934681  3.072843  6.484834
H    -0.322026  3.294766  5.754834
H    -0.627679  1.883378  6.799134
Cd    1.437437  -1.065777  4.016329
