36
Energy: -175309.22425 eV PBE+vdW (tier 2 basis)
C    1.110782  -1.433794  0.540746
C    0.802819  -0.438392  1.612534
O    1.712330  0.420154  1.873127
H    1.490436  -0.901030  -0.340902
H    0.228777  -2.031250  0.275012
H    1.922013  -2.089741  0.887138
N    -0.393728  -0.516909  2.212910
C    -1.008810  0.484501  3.103365
C    -0.546153  0.318880  4.572808
O    0.539611  0.854527  4.984363
H    -1.026684  -1.231837  1.784293
H    -0.601354  1.470295  2.810428
C    -2.530301  0.600750  2.849928
C    -3.491628  -0.533779  3.300606
C    -4.658748  -0.808650  2.307131
N    -4.346154  -1.835722  1.303353
C    -3.173767  -1.673223  0.547975
N    -3.184713  -0.618176  -0.306709
N    -2.091681  -2.380527  0.725273
H    -2.627470  0.757362  1.766675
H    -2.857532  1.541969  3.312431
H    -3.946031  -0.267272  4.266657
H    -2.965670  -1.493117  3.441469
H    -4.958596  0.123056  1.808252
H    -5.535850  -1.169377  2.855576
H    -4.436907  -2.782166  1.669730
H    -2.418469  -0.557987  -0.968705
H    -4.084234  -0.295462  -0.647498
H    -2.244282  -3.175151  1.351685
N    -1.272397  -0.366030  5.434001
C    -0.902403  -0.567617  6.840280
H    -2.153414  -0.754169  5.107944
H    -1.665291  -1.193955  7.308929
H    -0.848865  0.396179  7.360378
H    0.072447  -1.064062  6.907286
Cd    1.954651  1.679754  3.584268
