36
Energy: -175310.023839 eV PBE+vdW (tier 2 basis)
C    0.219785  -0.789633  0.593745
C    -0.034619  -0.121294  1.911334
O    0.935588  0.379631  2.546035
H    -0.678761  -1.217614  0.135813
H    0.975908  -1.574888  0.720242
H    0.646318  -0.045442  -0.093169
N    -1.326952  -0.078907  2.328927
C    -1.891975  0.608430  3.497922
C    -0.867346  0.449812  4.649711
O    -0.326528  1.546533  5.028763
H    -1.996966  -0.539930  1.718596
H    -1.881225  1.688173  3.294699
C    -3.341107  0.181800  3.772397
C    -4.083969  1.126360  4.730908
C    -3.725723  1.053788  6.218994
N    -4.167649  -0.204870  6.847547
C    -3.501913  -0.930097  7.760494
N    -4.188470  -1.692392  8.623836
N    -2.162111  -0.928514  7.809594
H    -3.396986  -0.857164  4.126788
H    -3.874804  0.204437  2.809610
H    -5.164069  0.947608  4.620725
H    -3.933345  2.169026  4.414052
H    -4.219387  1.886554  6.741774
H    -2.652079  1.180304  6.396738
H    -5.165312  -0.394011  6.786449
H    -3.738027  -2.432775  9.149365
H    -5.170708  -1.527471  8.811585
H    -1.680736  -1.283930  8.626667
N    -0.352998  -0.714898  5.031435
C    -0.756846  -2.045177  4.602239
H    -1.592216  -0.600109  7.033603
H    -0.219209  -2.361544  3.696042
H    -1.835056  -2.122553  4.410982
H    -0.508592  -2.760935  5.395339
Cd    1.599217  0.419723  4.704595
