36
Energy: -175310.539782 eV PBE+vdW (tier 2 basis)
C    0.057803  -0.420847  -0.759034
C    -0.566147  0.172508  0.462524
O    -0.529697  1.395347  0.639884
H    -0.620527  -1.004715  -1.395567
H    0.592501  0.334677  -1.335265
H    -2.218991  3.651399  -0.455647
N    -1.119567  -0.626290  1.465283
C    -2.036736  -1.770919  1.358143
C    -1.340282  -3.150392  1.380195
O    -0.115928  -3.337856  1.117087
H    -1.284071  -0.055689  2.292095
H    -2.597724  -1.749930  2.305493
C    -3.068883  -1.604192  0.207155
C    -4.328854  -0.790687  0.563509
C    -4.168942  0.611290  1.181711
N    -3.428798  1.591735  0.384359
C    -3.954784  2.553989  -0.385039
N    -5.248457  2.546608  -0.734546
N    -3.158101  3.540647  -0.820667
H    -3.403288  -2.589676  -0.142938
H    -2.562888  -1.151388  -0.655498
H    -4.940281  -1.367477  1.275399
H    -4.934165  -0.718600  -0.352852
H    -3.664847  0.558639  2.156603
H    -5.166672  1.013251  1.408559
H    -2.417721  1.659586  0.550893
H    -5.676831  3.351255  -1.176225
H    -5.852339  1.763695  -0.524909
H    -3.466189  4.203042  -1.521855
N    -2.069679  -4.207816  1.737746
C    -3.464760  -4.277053  2.170145
H    -1.550746  -5.085527  1.718694
H    -3.728305  -3.422248  2.803783
H    -3.591879  -5.185531  2.766224
H    -4.151637  -4.324654  1.314897
Cd    1.272275  -2.049159  0.014687
