36
Energy: -175310.771796 eV PBE+vdW (tier 2 basis)
C    0.423173  1.434815  0.850691
C    0.236401  0.907103  2.232584
O    1.271269  0.912401  3.017590
H    1.486393  1.582013  0.644622
H    -0.091266  2.403595  0.757270
H    -0.007503  0.756053  0.103187
N    -0.921899  0.447477  2.672545
C    -2.237057  0.344258  2.041740
C    -3.177478  0.615664  3.252226
O    -2.686210  0.463346  4.391643
H    -1.142638  0.377469  3.704519
H    -2.346948  1.114464  1.267776
C    -2.509485  -1.053161  1.426723
C    -2.801186  -2.227843  2.392226
C    -1.651428  -3.181730  2.744668
N    -0.615795  -2.661434  3.660555
C    -0.713643  -2.565528  5.015734
N    -1.764832  -3.082624  5.654049
N    0.267613  -1.913092  5.667258
H    -1.675065  -1.300276  0.752886
H    -3.382311  -0.933109  0.771288
H    -3.550340  -2.866916  1.903928
H    -3.285967  -1.870730  3.312466
H    -1.114979  -3.477603  1.834205
H    -2.068381  -4.119348  3.146069
H    0.337781  -2.777625  3.331128
H    -1.948201  -2.863646  6.627052
H    -2.361183  -3.777428  5.217977
H    0.307658  -2.045862  6.675884
N    -4.453302  0.942229  3.045183
C    -5.153537  1.165867  1.781264
H    -4.994725  1.056834  3.901062
H    -4.459544  1.486063  0.997617
H    -5.886166  1.967036  1.922999
H    -5.682764  0.262155  1.451264
Cd    1.086494  -0.303982  4.675610
