36
Energy: -175311.491829 eV PBE+vdW (tier 2 basis)
C    0.453499  1.352142  1.554075
C    0.074901  0.180133  2.398325
O    0.950366  -0.336215  3.154209
H    -0.377462  1.741536  0.956588
H    1.275354  1.058836  0.886795
H    0.840575  2.149320  2.202786
N    -1.195332  -0.277315  2.321532
C    -1.698581  -1.371958  3.146541
C    -1.231046  -2.739953  2.591361
O    -0.245210  -3.300148  3.156358
H    -1.832431  0.214593  1.700598
H    -1.152553  -1.286492  4.094355
C    -3.168460  -1.256448  3.579759
C    -3.514357  -2.246964  4.714031
C    -3.078655  -1.856727  6.141211
N    -1.623322  -1.776489  6.360952
C    -0.776396  -2.754985  6.799117
N    -1.265474  -3.803835  7.475600
N    0.522723  -2.621493  6.508114
H    -3.851281  -1.414895  2.736444
H    -3.335894  -0.221984  3.918603
H    -4.608233  -2.346520  4.750935
H    -3.137379  -3.254619  4.476246
H    -3.530318  -2.566073  6.846435
H    -3.488607  -0.873460  6.407149
H    -1.219468  -0.846231  6.393271
H    -0.683890  -4.612299  7.665674
H    -2.145541  -3.748208  7.976806
H    1.152709  -3.198169  7.063959
N    -1.804298  -3.325670  1.546194
C    -2.921607  -2.888193  0.708303
H    -1.372632  -4.216332  1.296591
H    -3.882300  -3.241147  1.104797
H    -2.782397  -3.314263  -0.290299
H    -2.940265  -1.799577  0.603890
Cd    0.964238  -2.010735  4.530373
