36
Energy: -175309.921034 eV PBE+vdW (tier 2 basis)
C    -1.503126  -0.368743  0.334079
C    -0.868712  -0.414791  1.704627
O    0.421258  -0.720727  1.598313
H    -1.469592  -1.367973  -0.120564
H    -0.925621  0.297650  -0.317980
H    -2.536125  -0.014271  0.385819
N    -1.624514  -0.185658  2.738163
C    -1.281059  -0.304066  4.162904
C    -0.323478  0.790984  4.676709
O    0.953086  0.650210  4.752759
H    -3.283783  -0.810102  2.613425
H    -2.223178  -0.092275  4.688328
C    -0.882925  -1.726122  4.622426
C    -1.793711  -2.831606  4.065443
C    -3.138450  -3.061082  4.760274
N    -4.122068  -1.943938  4.839716
C    -4.863887  -1.470481  3.803099
N    -6.180804  -1.289147  3.983068
N    -4.281537  -1.155825  2.646823
H    -0.858235  -1.749189  5.722470
H    0.148939  -1.986210  4.310112
H    -1.266802  -3.791245  4.169836
H    -1.933885  -2.698250  2.985148
H    -2.960168  -3.336782  5.807218
H    -3.623600  -3.924662  4.281202
H    -4.618934  -1.926321  5.726087
H    -6.728781  -0.722412  3.344736
H    -6.690251  -1.792469  4.700969
H    -4.869691  -0.955341  1.844532
N    -0.827744  1.938345  5.099596
C    -2.231920  2.352494  5.145850
H    -0.133996  2.608313  5.434771
H    -2.750860  2.054735  4.229121
H    -2.255448  3.444153  5.214899
H    -2.737879  1.940362  6.028792
Cd    1.722541  -0.549128  3.182015
