36
Energy: -175309.10821 eV PBE+vdW (tier 2 basis)
C    1.797732  -0.671022  1.706124
C    0.951033  -0.141001  2.818828
O    1.245875  0.980886  3.324369
H    1.500974  -1.672522  1.376493
H    2.847202  -0.685362  2.027055
H    1.733204  0.021796  0.855347
N    -0.096632  -0.883218  3.229146
C    -1.118173  -0.446276  4.186088
C    -0.545355  -0.413700  5.620977
O    -0.388276  0.718889  6.194453
H    -0.267278  -1.748672  2.723406
H    -1.344225  0.609567  3.961759
C    -2.429285  -1.239355  3.984304
C    -3.723475  -0.553046  4.448971
C    -3.916498  -0.338910  5.967609
N    -3.602635  -1.498166  6.781887
C    -4.149799  -2.759332  6.731681
N    -5.372049  -2.902200  6.151808
N    -3.387166  -3.707523  7.224762
H    -2.351928  -2.238976  4.430226
H    -2.526428  -1.393119  2.898867
H    -4.548777  -1.166991  4.064097
H    -3.834355  0.427849  3.962118
H    -4.950655  0.001636  6.141348
H    -3.280638  0.474618  6.338425
H    -2.808127  -1.455063  7.409133
H    -5.794886  -3.823593  6.145328
H    -6.025716  -2.126451  6.119504
H    -3.842508  -4.625764  7.226093
N    -0.204045  -1.507417  6.290506
C    -0.318880  -2.927650  5.950748
H    0.187673  -1.303363  7.212260
H    -1.248736  -3.354184  6.367279
H    -0.280605  -3.079180  4.869808
H    0.535076  -3.446384  6.399825
Cd    0.615802  2.274784  4.990351
