36
Energy: -175311.100158 eV PBE+vdW (tier 2 basis)
C    1.085469  0.604238  1.123343
C    0.261079  -0.409016  1.848265
O    0.736479  -1.573889  2.006255
H    0.616572  1.592755  1.078810
H    1.274184  0.243956  0.102862
H    2.062838  0.686910  1.617042
N    -0.950139  -0.024368  2.310453
C    -1.832988  -0.882691  3.101650
C    -2.654000  -1.794239  2.158026
O    -2.148393  -2.891893  1.783627
H    -1.241727  0.928685  2.108698
H    -1.145791  -1.564678  3.618994
C    -2.586312  -0.206670  4.257910
C    -2.847163  -1.248329  5.373108
C    -1.546830  -1.579596  6.149374
N    -1.335741  -2.965742  6.617014
C    -0.714835  -3.904804  5.855553
N    0.217763  -4.692126  6.402679
N    -1.046031  -4.071098  4.560048
H    -3.529130  0.257876  3.936914
H    -1.968187  0.614300  4.651506
H    -3.289176  -2.158795  4.940154
H    -3.605433  -0.862518  6.064896
H    -1.496445  -0.950100  7.045445
H    -0.664818  -1.305188  5.548495
H    -1.297051  -3.093140  7.625009
H    0.632959  -4.492534  7.306306
H    0.446303  -5.577527  5.962826
H    -2.021403  -3.801102  4.423369
N    -3.841398  -1.383588  1.735114
C    -4.689516  -2.109503  0.785556
H    -4.190268  -0.494739  2.083121
H    -5.671060  -2.294383  1.236991
H    -4.211489  -3.059225  0.536180
H    -4.818931  -1.512284  -0.125086
Cd    -0.173366  -3.411224  2.731996
