36
Energy: -175309.030141 eV PBE+vdW (tier 2 basis)
C    -1.355259  -1.274318  1.600658
C    -1.541024  -0.667815  2.959813
O    -0.771229  -1.044715  3.898977
H    -0.430092  -0.875372  1.159260
H    -2.195887  -1.077339  0.928721
H    -1.205808  -2.354995  1.713500
N    -2.515684  0.238591  3.263222
C    -2.870563  1.337090  2.374366
C    -1.922407  2.542932  2.675695
O    -1.278718  2.652861  3.768556
H    -3.872521  -0.910106  3.797610
H    -2.697406  1.053770  1.323182
C    -4.340730  1.803073  2.549677
C    -5.391161  1.248337  1.568685
C    -6.030697  -0.113707  1.861804
N    -5.204163  -1.289252  1.532254
C    -4.688865  -2.224633  2.373151
N    -4.547033  -1.733678  3.792749
N    -4.198958  -3.382350  2.227023
H    -4.370536  2.896766  2.456082
H    -4.635184  1.609380  3.593980
H    -4.992612  1.247910  0.542083
H    -6.223921  1.966733  1.554024
H    -6.955639  -0.199669  1.275522
H    -6.356140  -0.162538  2.910996
H    -5.295928  -1.618432  0.574414
H    -4.138170  -2.535206  4.295661
H    -5.439676  -1.481718  4.235369
H    -4.274389  -3.783518  1.288813
N    -1.791116  3.507421  1.773416
C    -2.437588  3.643916  0.468492
H    -1.186142  4.275124  2.067499
H    -2.605195  2.666522  0.004937
H    -1.773090  4.218786  -0.183883
H    -3.394138  4.176639  0.552400
Cd    -1.248933  0.858445  5.036894
