36
Energy: -175309.284126 eV PBE+vdW (tier 2 basis)
C    -0.347570  -0.676900  -0.006014
C    -0.298128  -0.423192  1.466411
O    0.726881  0.152973  1.946862
H    0.529220  -1.266118  -0.304066
H    -0.271720  0.289429  -0.525245
H    -1.262707  -1.184361  -0.329147
N    -1.356474  -0.795300  2.208445
C    -1.669170  -0.406379  3.599540
C    -1.091301  -1.477890  4.545856
O    0.167077  -1.554370  4.753716
H    -2.103814  -1.269834  1.706133
H    -1.116021  0.524262  3.807097
C    -3.178743  -0.102520  3.672839
C    -3.707879  0.703850  4.874699
C    -3.778503  0.026427  6.249134
N    -4.453866  -1.261633  6.177373
C    -4.604666  -2.148446  7.244507
N    -3.962946  -1.839830  8.408913
N    -5.283405  -3.224379  6.966419
H    -3.753877  -1.033169  3.532654
H    -3.397779  0.501765  2.780741
H    -4.721722  1.032010  4.601114
H    -3.127713  1.631125  4.988060
H    -4.295750  0.721203  6.935682
H    -2.771749  -0.136805  6.666885
H    -5.239029  -1.349260  5.532658
H    -4.090697  -2.468700  9.194643
H    -3.764233  -0.877025  8.660815
H    -5.410217  -3.843376  7.773074
N    -1.896917  -2.359607  5.103935
C    -1.445518  -3.456853  5.963524
H    -2.910012  -2.195990  5.060798
H    -2.293686  -4.127427  6.124950
H    -1.090331  -3.072441  6.928532
H    -0.630600  -4.003280  5.477686
Cd    1.683818  -0.276595  3.846043
