36
Energy: -175310.546681 eV PBE+vdW (tier 2 basis)
C    -1.416415  0.881958  1.911899
C    -0.303902  0.514118  2.862567
O    0.633385  1.391242  2.966082
H    -1.475859  1.972747  1.846702
H    -2.385669  0.478349  2.214071
H    -1.165408  0.509992  0.908163
N    -0.212961  -0.582960  3.617800
C    -0.524193  -1.975829  3.389474
C    0.795880  -2.659309  2.867008
O    1.937460  -2.168652  3.105992
H    -7.016193  -3.987719  4.652139
H    -0.644465  -2.421909  4.395942
C    -1.819018  -2.311164  2.616100
C    -3.066740  -1.904382  3.420552
C    -4.389213  -1.946574  2.641979
N    -4.884255  -3.290664  2.306240
C    -5.829143  -3.970202  2.976457
N    -6.427919  -5.020462  2.396405
N    -6.175553  -3.620626  4.221244
H    -1.870369  -3.396447  2.436555
H    -1.812008  -1.830367  1.627532
H    -2.948371  -0.876341  3.791780
H    -3.138481  -2.536162  4.320410
H    -4.293990  -1.401657  1.692300
H    -5.177238  -1.428264  3.204933
H    -4.583023  -3.694500  1.425919
H    -7.000812  -5.661767  2.932785
H    -6.410704  -5.152459  1.392123
H    -5.627841  -2.966687  4.764563
N    0.720021  -3.816696  2.220149
C    1.899994  -4.570251  1.783295
H    -0.193182  -4.209680  2.030274
H    1.562621  -5.466869  1.257143
H    2.509014  -4.860962  2.647288
H    2.511789  -3.960189  1.109029
Cd    1.923487  -0.106254  4.002739
