36
Energy: -175308.82991 eV PBE+vdW (tier 2 basis)
C    0.321358  0.936052  1.504780
C    -0.089156  0.399908  2.827563
O    0.798291  0.094272  3.687150
H    1.163633  1.628556  1.608451
H    -0.517365  1.400262  0.958858
H    0.675954  0.080118  0.906554
N    -1.399984  0.188281  3.115348
C    -2.455455  1.190698  2.940193
C    -2.254547  2.265304  4.029410
O    -1.662730  1.998061  5.132228
H    -1.550043  -0.419090  3.923512
H    -2.336062  1.652366  1.949241
C    -3.841640  0.518413  3.076844
C    -4.169313  -0.507521  1.974741
C    -4.896709  0.071786  0.739084
N    -4.187737  1.183837  0.128554
C    -3.045273  1.135296  -0.633430
N    -2.868344  0.055997  -1.438519
N    -2.207776  2.138940  -0.459121
H    -3.877234  0.026828  4.062051
H    -4.615010  1.299270  3.121618
H    -4.825214  -1.282252  2.395535
H    -3.253386  -1.025037  1.652181
H    -5.891679  0.439103  1.022869
H    -5.063158  -0.730981  0.009285
H    -4.342919  2.107777  0.517034
H    -2.057113  0.030661  -2.044953
H    -3.665300  -0.485448  -1.757643
H    -1.466020  2.149106  -1.167266
N    -2.735722  3.485520  3.845894
C    -3.461859  4.016195  2.688939
H    -2.599760  4.116788  4.636805
H    -3.028947  3.641495  1.752584
H    -3.359333  5.105449  2.696865
H    -4.531097  3.772306  2.748091
Cd    0.163388  0.869083  5.662190
