36
Energy: -175308.778827 eV PBE+vdW (tier 2 basis)
C    -0.766580  -1.107907  -0.173570
C    -0.919511  -1.313149  1.294444
O    -0.159830  -2.132882  1.896903
H    0.151308  -0.537302  -0.380458
H    -1.628283  -0.613988  -0.632249
H    -0.622160  -2.093410  -0.637643
N    -1.876839  -0.654720  1.998931
C    -2.131158  0.781177  1.903667
C    -1.066760  1.488107  2.786402
O    -0.364058  0.829845  3.622376
H    -2.006121  -1.028412  2.939829
H    -1.968525  1.084170  0.859744
C    -3.578434  1.141500  2.295415
C    -3.984576  0.825570  3.744065
C    -5.208249  1.648285  4.194639
N    -4.874793  3.058942  4.241279
C    -5.446913  4.100159  3.550530
N    -6.738033  3.970952  3.148041
N    -4.642198  5.115926  3.327043
H    -4.243992  0.621472  1.592285
H    -3.711844  2.214661  2.106752
H    -3.158496  1.035929  4.444925
H    -4.232346  -0.238995  3.866051
H    -5.543433  1.297138  5.183317
H    -6.045538  1.505488  3.497877
H    -3.991296  3.328099  4.667082
H    -7.385447  3.369956  3.647060
H    -7.159783  4.726704  2.620624
H    -5.111252  5.895247  2.853242
N    -0.899039  2.802310  2.705509
C    -1.578971  3.788024  1.859896
H    -0.188041  3.165372  3.342133
H    -2.427348  4.251913  2.387616
H    -1.926918  3.330610  0.928381
H    -0.855655  4.569626  1.604876
Cd    0.664488  -1.182641  3.741189
