36
Energy: -175311.502127 eV PBE+vdW (tier 2 basis)
C    -1.634735  0.643539  0.167704
C    -1.744263  0.674324  1.656918
O    -1.308377  1.675932  2.290009
H    -2.130703  1.531915  -0.245172
H    -2.068636  -0.256440  -0.280480
H    -0.574487  0.713053  -0.111060
N    -2.316145  -0.388595  2.275109
C    -2.534592  -0.432035  3.715273
C    -1.221105  -0.779941  4.458249
O    -0.550044  0.173010  4.964818
H    -2.668630  -1.142505  1.691941
H    -2.733145  0.613834  3.991851
C    -3.833302  -1.104895  4.166771
C    -4.095384  -0.920120  5.678220
C    -3.783891  0.445155  6.318649
N    -4.429102  1.594492  5.646109
C    -3.994598  2.889693  5.746487
N    -4.932726  3.840078  5.908353
N    -2.700338  3.206119  5.648066
H    -3.869009  -2.173744  3.922952
H    -4.636203  -0.628382  3.585020
H    -3.514470  -1.655702  6.254812
H    -5.147223  -1.179369  5.865015
H    -2.705598  0.636160  6.357693
H    -4.114196  0.405566  7.368231
H    -5.439963  1.510034  5.563107
H    -4.721327  4.819118  5.749059
H    -5.845347  3.628854  6.297400
H    -2.498585  4.160308  5.940497
N    -0.765947  -2.020718  4.561600
C    -1.337776  -3.272832  4.063518
H    0.119647  -2.090594  5.064803
H    -0.520712  -3.988807  3.932811
H    -1.815380  -3.132585  3.089283
H    -2.057850  -3.695057  4.776145
Cd    -1.292250  2.184494  4.436321
