36
Energy: -175309.224501 eV PBE+vdW (tier 2 basis)
C    0.806827  -2.004817  1.202432
C    0.448753  -0.644932  1.709044
O    1.332121  0.269615  1.655015
H    1.090857  -1.914458  0.143881
H    -0.009100  -2.729872  1.292022
H    1.692048  -2.373790  1.736220
N    -0.795948  -0.449095  2.175278
C    -1.486039  0.829793  2.419228
C    -1.342522  1.262059  3.896398
O    -0.168948  1.454812  4.382934
H    -1.391098  -1.273530  2.188378
H    -0.920315  1.598362  1.865245
C    -2.903239  0.798556  1.804550
C    -3.710703  -0.509030  1.952600
C    -5.221729  -0.347706  1.634587
N    -6.011901  0.091277  2.790288
C    -5.734922  1.306946  3.415921
N    -5.803676  2.413062  2.629840
N    -5.315837  1.404610  4.650927
H    -2.790931  1.009124  0.731698
H    -3.459318  1.657916  2.201428
H    -3.622419  -0.933915  2.966721
H    -3.318444  -1.266354  1.255951
H    -5.638201  -1.312012  1.321819
H    -5.368176  0.344018  0.794346
H    -6.195813  -0.655985  3.457124
H    -5.735176  3.305215  3.109450
H    -6.418270  2.394803  1.823037
H    -5.391972  0.517006  5.156952
N    -2.381489  1.474686  4.673545
C    -2.259321  1.959886  6.052583
H    -3.360762  1.351696  4.354969
H    -3.260939  2.234849  6.393137
H    -1.597777  2.832496  6.090834
H    -1.846720  1.176662  6.700650
Cd    1.636657  1.713221  3.232663
