36
Energy: -175311.729668 eV PBE+vdW (tier 2 basis)
C    0.434424  -0.398481  0.501801
C    0.128157  -0.269452  1.961348
O    1.082091  -0.326838  2.786248
H    1.125563  0.405204  0.214218
H    -0.452366  -0.358664  -0.139209
H    0.960479  -1.347341  0.332729
N    -1.168168  -0.103861  2.306880
C    -1.759119  -0.006306  3.657032
C    -1.355306  1.340704  4.290704
O    -0.206884  1.531444  4.791590
H    -1.823435  -0.075900  1.531717
H    -2.840344  0.028155  3.487427
C    -1.462332  -1.272126  4.512052
C    -1.544193  -1.109439  6.036445
C    -1.043556  -2.332179  6.820773
N    0.264363  -2.918409  6.420905
C    1.494585  -2.459859  6.805937
N    2.355325  -3.348822  7.329005
N    1.832467  -1.179856  6.628785
H    -0.480771  -1.688137  4.231394
H    -2.168181  -2.046887  4.180243
H    -2.585625  -0.942473  6.349244
H    -1.001725  -0.216710  6.380442
H    -1.758505  -3.155713  6.704011
H    -1.019520  -2.077987  7.889645
H    0.226702  -3.929035  6.326194
H    3.347758  -3.148120  7.393877
H    2.035101  -4.214545  7.750020
H    2.665335  -0.901655  7.145820
N    -2.231712  2.339244  4.294438
C    -3.593433  2.382072  3.750250
H    -1.872430  3.199958  4.708536
H    -4.011605  3.366617  3.977056
H    -4.237938  1.628791  4.219213
H    -3.594760  2.258215  2.660184
Cd    1.252558  -0.077609  4.937047
