36
Energy: -175309.747888 eV PBE+vdW (tier 2 basis)
C    0.152904  -1.476162  0.813820
C    0.052150  -0.141731  1.462869
O    1.067058  0.639509  1.467665
H    0.336586  -1.367983  -0.264358
H    -0.719748  -2.109903  0.993305
H    1.046416  -1.970634  1.224923
N    -1.093381  0.267958  2.058299
C    -2.444365  0.162658  1.474201
C    -2.813454  1.589768  0.981319
O    -1.898099  2.288118  0.298295
H    -0.969966  1.023585  2.735092
H    -2.338533  -0.461214  0.572519
C    -3.463312  -0.477343  2.422877
C    -4.651709  -1.133183  1.679170
C    -6.009335  -0.886550  2.332999
N    -6.383738  0.521679  2.165434
C    -7.583968  1.026391  2.448972
N    -8.497858  0.300860  3.108838
N    -7.887511  2.282450  2.070712
H    -3.811694  0.286271  3.133156
H    -2.939941  -1.236961  3.017570
H    -4.498514  -2.218266  1.623109
H    -4.705989  -0.780054  0.638606
H    -5.965269  -1.150669  3.403656
H    -6.769506  -1.523553  1.856484
H    -5.635820  1.143529  1.806686
H    -9.456570  0.614410  3.197823
H    -8.253460  -0.567595  3.566599
H    -8.744752  2.729040  2.371625
N    -4.007746  2.025336  1.156515
C    -4.375283  3.372216  0.744721
H    -7.359893  2.741066  1.339877
H    -4.841762  3.341185  -0.252120
H    -3.524661  4.062644  0.695942
H    -5.113526  3.769960  1.454506
Cd    0.148332  2.485342  0.710249
