36
Energy: -175310.428555 eV PBE+vdW (tier 2 basis)
C    0.870963  -0.136867  -0.381078
C    0.674782  0.171884  1.072903
O    1.619742  0.269861  1.868636
H    -0.054265  -0.140869  -0.967361
H    1.350560  -1.121874  -0.463988
H    1.572155  0.591465  -0.807292
N    -0.621898  0.352885  1.499687
C    -1.049917  0.454934  2.896209
C    -0.594368  1.745139  3.618212
O    -1.427949  2.458819  4.326152
H    -1.348222  0.369216  0.792546
H    -2.148818  0.539271  2.833833
C    -0.696477  -0.805671  3.737143
C    -1.399195  -2.102830  3.263620
C    -2.430183  -2.710154  4.232879
N    -3.507013  -1.753453  4.542037
C    -3.611433  -0.963022  5.614430
N    -2.856990  -1.151453  6.708828
N    -4.435158  0.145979  5.647176
H    -0.922918  -0.591554  4.794029
H    0.391889  -0.934385  3.698362
H    -0.650768  -2.884413  3.075599
H    -1.883478  -1.937563  2.288232
H    -1.955994  -3.039191  5.165677
H    -2.885614  -3.605330  3.790603
H    -4.100596  -1.498789  3.756319
H    -3.165233  -0.696149  7.563018
H    -2.253120  -1.959173  6.815330
H    -5.245790  0.060320  5.028038
N    0.655171  2.104473  3.521701
C    1.263936  3.283619  4.132611
H    1.241465  1.451402  2.928944
H    0.612049  3.696025  4.906097
H    1.441642  4.043997  3.360965
H    2.227990  2.993087  4.564070
Cd    -3.182456  1.711970  5.070376
