36
Energy: -175309.358765 eV PBE+vdW (tier 2 basis)
C    0.496695  0.460989  0.612698
C    0.063718  0.413452  2.044806
O    0.945456  0.272139  2.937214
H    -0.330106  0.595753  -0.092569
H    1.028408  -0.469753  0.373217
H    1.217472  1.280236  0.488717
N    -1.261682  0.525446  2.293288
C    -1.964878  0.464162  3.588910
C    -1.588429  1.690045  4.451592
O    -0.612338  1.678900  5.258808
H    -1.849804  0.622461  1.471026
H    -3.026512  0.574563  3.337932
C    -1.798269  -0.919493  4.270765
C    -2.184262  -1.021637  5.760739
C    -1.115693  -1.739845  6.601903
N    -1.375474  -1.771948  7.956912
C    -1.083791  -2.782529  8.892770
N    -0.347410  -3.845757  8.448227
N    -1.642823  -2.570974  10.034240
H    -0.767585  -1.284855  4.116763
H    -2.398523  -1.624969  3.681639
H    -3.113550  -1.595944  5.871791
H    -2.375572  -0.034165  6.202820
H    -0.056766  -1.147576  6.375881
H    -0.879248  -2.743804  6.220763
H    -1.871378  -1.001091  8.406268
H    -0.147523  -4.571581  9.128762
H    0.391196  -3.714920  7.765942
H    -1.486560  -3.311550  10.724221
N    -2.323518  2.791410  4.340937
C    -3.488248  3.042793  3.485458
H    -1.996183  3.567274  4.917491
H    -4.308468  2.348727  3.707245
H    -3.843325  4.055706  3.694041
H    -3.222633  2.990010  2.422325
Cd    0.943875  0.112674  5.126251
