36
Energy: -175310.765624 eV PBE+vdW (tier 2 basis)
C    -0.232704  2.525355  0.198936
C    -0.181667  1.066775  0.481372
O    0.916947  0.462565  0.608583
H    0.213249  3.083601  1.034673
H    -1.240050  2.892488  -0.016019
H    0.414477  2.719961  -0.669658
N    -1.347976  0.344036  0.605792
C    -2.442818  0.697088  1.516566
C    -1.834231  1.129978  2.871618
O    -0.807644  0.544287  3.343209
H    -1.200875  -0.659145  0.507098
H    -3.041145  1.510772  1.081061
C    -3.346031  -0.534425  1.801125
C    -3.748404  -1.450338  0.625552
C    -2.819958  -2.648366  0.309274
N    -2.492590  -3.470400  1.481791
C    -1.383944  -3.355014  2.242394
N    -1.433651  -3.737225  3.532066
N    -0.223257  -2.853086  1.773140
H    -4.260340  -0.136973  2.260250
H    -2.870595  -1.139523  2.589515
H    -3.884968  -0.877440  -0.303627
H    -4.741212  -1.857374  0.863093
H    -1.883986  -2.343481  -0.175256
H    -3.315951  -3.295836  -0.424758
H    -3.224955  -4.093856  1.814068
H    -0.573933  -4.031315  3.983710
H    -2.303367  -4.014428  3.974429
H    -0.107194  -3.008371  0.771173
N    -2.445035  2.097452  3.536964
C    -2.067293  2.590071  4.864014
H    -3.253650  2.529947  3.095648
H    -2.863516  2.364378  5.583763
H    -1.920859  3.675347  4.820521
H    -1.140582  2.104109  5.176120
Cd    0.493107  -0.934678  2.335258
