36
Energy: -175309.561928 eV PBE+vdW (tier 2 basis)
C    0.327447  1.149696  0.976819
C    0.502910  -0.316665  1.365345
O    1.285924  -0.476754  2.492605
H    -0.205581  1.315727  0.032098
H    1.318991  1.609335  0.913695
H    -0.210939  1.681206  1.772222
N    -0.840598  -0.982921  1.677875
C    -2.173436  -0.491403  1.352812
C    -2.968667  -0.323393  2.700084
O    -2.396373  -0.273976  3.835899
H    -0.768591  -1.987673  1.517399
H    -2.079212  0.539527  0.975326
C    -2.878639  -1.346060  0.278888
C    -2.212974  -1.329840  -1.116403
C    -1.006090  -2.284766  -1.352050
N    0.210467  -1.604134  -1.832123
C    1.017572  -0.856564  -1.071185
N    1.745029  0.127222  -1.601792
N    1.150238  -1.107892  0.270718
H    -3.904274  -0.980179  0.130399
H    -2.989110  -2.379957  0.644745
H    -1.912675  -0.301657  -1.366803
H    -2.989114  -1.588120  -1.847268
H    -1.252046  -3.026952  -2.118635
H    -0.758511  -2.867869  -0.456402
H    0.338510  -1.565582  -2.841945
H    2.559311  0.462343  -1.096046
H    1.593906  0.476875  -2.543499
H    1.176920  -2.100902  0.500229
N    -4.279500  -0.161367  2.643776
C    -5.123029  0.089223  3.819261
H    -4.733611  -0.196098  1.737278
H    -4.830152  1.027948  4.303932
H    -5.022298  -0.731406  4.538536
H    -6.161927  0.158051  3.487642
Cd    -0.242023  -0.559878  3.927229
