36
Energy: -175310.810416 eV PBE+vdW (tier 2 basis)
C    1.732181  0.315499  3.169147
C    1.288900  0.238109  1.735337
O    2.016616  0.811999  0.850018
H    1.050786  -0.205031  3.849742
H    1.789129  1.373832  3.456134
H    2.744931  -0.095061  3.262647
N    0.159453  -0.347127  1.327289
C    -0.487770  -1.533566  1.802676
C    -0.146327  -2.666425  0.768908
O    0.150959  -2.425239  -0.433958
H    -7.670701  -0.124819  2.924286
H    -0.094523  -1.858622  2.783439
C    -2.015930  -1.279471  1.904979
C    -2.861140  -2.413266  2.496995
C    -4.359214  -2.102675  2.598641
N    -4.648591  -1.086150  3.621216
C    -5.812911  -0.427519  3.745083
N    -5.934681  0.542044  4.663197
N    -6.844392  -0.711469  2.941368
H    -2.385139  -1.024129  0.899216
H    -2.119014  -0.364600  2.506591
H    -2.485552  -2.705111  3.493031
H    -2.787541  -3.315008  1.872511
H    -4.900418  -3.032867  2.834967
H    -4.725770  -1.728419  1.630980
H    -4.017435  -1.040203  4.415487
H    -6.840979  0.917789  4.916520
H    -5.128750  0.923069  5.143039
H    -6.883849  -1.574493  2.414084
N    -0.188099  -3.922093  1.204132
C    0.111665  -5.084440  0.361737
H    -0.369399  -4.079425  2.190349
H    1.137622  -5.023435  -0.020585
H    -0.578725  -5.129018  -0.488084
H    0.003931  -5.988026  0.967155
Cd    0.819348  -0.256167  -0.763190
