36
Energy: -175311.619222 eV PBE+vdW (tier 2 basis)
C    1.267293  -1.529747  1.767199
C    0.467621  -0.795847  2.792857
O    1.051964  0.032844  3.549938
H    2.069515  -2.085044  2.271571
H    1.753347  -0.800379  1.105227
H    0.669019  -2.222255  1.165801
N    -0.858576  -1.050923  2.870361
C    -1.752094  -0.346292  3.784530
C    -1.552080  -0.836883  5.241110
O    -0.914462  -0.084629  6.041055
H    -1.249779  -1.708639  2.201170
H    -1.392581  0.692339  3.805514
C    -3.203791  -0.218653  3.295068
C    -4.090756  0.663408  4.201012
C    -3.789630  2.172323  4.256849
N    -2.549448  2.465705  4.991089
C    -1.707668  3.517947  4.803630
N    -2.162075  4.617837  4.182470
N    -0.437770  3.383976  5.205568
H    -3.677315  -1.203954  3.194852
H    -3.167389  0.209926  2.281662
H    -5.121731  0.569244  3.833810
H    -4.119375  0.259375  5.226893
H    -4.647777  2.674908  4.729451
H    -3.685894  2.579729  3.240813
H    -2.374867  1.922190  5.832679
H    -1.522763  5.343736  3.878176
H    -3.149361  4.851112  4.183039
H    0.097498  4.247389  5.273047
N    -2.010455  -2.004411  5.673495
C    -2.767747  -3.043249  4.973103
H    -1.787295  -2.188095  6.652823
H    -2.554596  -4.001051  5.457783
H    -2.458949  -3.123777  3.927027
H    -3.848002  -2.858241  5.031395
Cd    0.396664  1.448455  5.065591
