36
Energy: -175310.941702 eV PBE+vdW (tier 2 basis)
C    -1.323573  2.305444  -0.946913
C    -0.938231  1.363867  0.144004
O    0.293971  1.440551  0.548552
H    -1.147797  3.338884  -0.620234
H    -2.368605  2.185464  -1.249344
H    -0.672856  2.127924  -1.814724
N    -1.831574  0.514849  0.604788
C    -1.710817  -0.593577  1.548663
C    -2.960284  -1.471077  1.188250
O    -3.903956  -0.905809  0.635458
H    -2.796753  0.505422  0.213622
H    -0.777773  -1.149971  1.352391
C    -1.771636  -0.108243  3.018162
C    -1.337227  -1.150190  4.059746
C    -0.845228  -0.534745  5.382498
N    0.340958  0.312994  5.171712
C    1.605175  -0.122189  4.936202
N    2.109134  -1.110007  5.682802
N    2.308914  0.456759  3.946248
H    -2.787010  0.257763  3.229114
H    -1.134502  0.794946  3.098336
H    -0.525902  -1.782166  3.656692
H    -2.169442  -1.830641  4.285387
H    -0.618458  -1.327896  6.104710
H    -1.612711  0.097156  5.846085
H    0.179018  1.293939  4.968726
H    1.729721  -1.308609  6.603707
H    2.972544  -1.578774  5.429173
H    3.322754  0.349069  3.985869
N    -2.928781  -2.761612  1.552002
C    -4.041456  -3.682188  1.302188
H    -2.059693  -3.153598  1.897667
H    -4.160804  -4.351582  2.160480
H    -3.858244  -4.277550  0.398727
H    -4.954277  -3.096811  1.163639
Cd    1.320717  0.936343  2.210196
