36
Energy: -175308.725134 eV PBE+vdW (tier 2 basis)
C    0.719301  0.532733  1.372767
C    0.165652  0.917634  2.702859
O    0.929957  1.406253  3.585953
H    0.928620  1.435845  0.779624
H    0.065110  -0.139499  0.809459
H    1.689695  0.045643  1.537880
N    -1.151341  0.727560  2.992040
C    -2.243579  1.118342  2.104285
C    -2.516346  2.630816  2.365497
O    -1.917048  3.271720  3.277661
H    -1.356711  0.885499  3.978989
H    -1.878649  1.029273  1.071001
C    -3.483123  0.209628  2.250937
C    -4.143868  0.204556  3.636505
C    -5.421220  -0.645365  3.702542
N    -5.152523  -2.065146  3.525854
C    -6.025976  -3.003017  3.031905
N    -7.292619  -2.622730  2.725405
N    -5.697489  -4.248496  2.761312
H    -3.169935  -0.805153  1.967489
H    -4.224299  0.510618  1.494401
H    -4.424722  1.226406  3.934308
H    -3.442371  -0.157373  4.406712
H    -6.116541  -0.331510  2.908535
H    -5.925711  -0.461278  4.667482
H    -4.313770  -2.445331  3.953567
H    -7.885607  -3.351083  2.337992
H    -7.751739  -1.835300  3.166026
H    -4.736042  -4.481659  3.032883
N    -3.409743  3.238017  1.595048
C    -3.748448  4.661482  1.704944
H    -3.873366  2.697072  0.871001
H    -4.516559  4.891307  0.962398
H    -2.863514  5.279925  1.513324
H    -4.130581  4.885793  2.707331
Cd    0.048002  3.277250  4.474537
