36
Energy: -175308.762858 eV PBE+vdW (tier 2 basis)
C    0.896155  1.162724  3.272493
C    0.167088  -0.119727  3.485109
O    0.403977  -0.814289  4.519635
H    1.947432  1.003296  3.548488
H    0.841125  1.525692  2.241830
H    0.513596  1.930022  3.962442
N    -0.734728  -0.571676  2.573541
C    -1.783192  0.251182  1.977721
C    -2.973828  0.263888  2.982769
O    -2.969727  -0.430005  4.044264
H    -1.021118  -1.535679  2.746379
H    -1.401962  1.280577  1.915287
C    -2.157936  -0.207953  0.550721
C    -2.707933  -1.634371  0.438435
C    -3.137063  -2.039510  -0.989110
N    -2.049631  -2.152353  -1.947739
C    -1.671438  -1.192709  -2.849320
N    -0.654075  -1.491838  -3.697797
N    -2.167997  0.026403  -2.943914
H    -1.256385  -0.088149  -0.066543
H    -2.891674  0.507303  0.147411
H    -3.594928  -1.756844  1.080970
H    -1.961608  -2.366315  0.786808
H    -3.888667  -1.337840  -1.377940
H    -3.635166  -3.016857  -0.941309
H    -1.556688  -3.040353  -1.968614
H    -0.430167  -0.790535  -4.396408
H    -0.322100  -2.436088  -3.855238
H    -3.009035  0.151279  -2.374015
N    -4.014178  1.033555  2.695891
C    -5.194308  1.169117  3.557527
H    -3.993869  1.573588  1.835615
H    -4.900477  1.530712  4.549772
H    -5.702013  0.203515  3.664490
H    -5.875338  1.889348  3.097586
Cd    -1.519838  -1.410460  5.498659
