36
Energy: -175309.224001 eV PBE+vdW (tier 2 basis)
C    2.660697  -1.471223  0.476606
C    1.791175  -0.522731  1.237482
O    1.863321  0.715174  0.955377
H    2.401369  -1.396738  -0.589533
H    2.550491  -2.512497  0.797650
H    3.709404  -1.161549  0.569679
N    0.959688  -1.029426  2.164268
C    -0.193132  -0.372247  2.804416
C    0.202645  0.299339  4.137792
O    1.008604  1.293722  4.153386
H    1.024959  -2.034227  2.307213
H    -0.487652  0.464921  2.148646
C    -1.389782  -1.336412  2.869922
C    -1.123716  -2.740860  3.464819
C    -2.265030  -3.247364  4.361840
N    -2.381370  -2.463434  5.598465
C    -3.469106  -1.624452  5.867907
N    -3.578684  -1.218113  7.172466
N    -4.282685  -1.101596  5.000718
H    -1.785279  -1.440920  1.851129
H    -2.178753  -0.811408  3.430800
H    -0.199256  -2.763836  4.066483
H    -0.980658  -3.472545  2.657045
H    -2.080493  -4.294952  4.631820
H    -3.221912  -3.233041  3.822099
H    -1.983811  -2.924196  6.414790
H    -4.402173  -0.654616  7.367462
H    -3.278405  -1.822259  7.930825
H    -4.197211  -1.493596  4.060322
N    -0.315607  -0.125818  5.271619
C    -0.056637  0.498829  6.571606
H    -0.957996  -0.931816  5.266166
H    -0.880189  0.237075  7.242069
H    -0.003209  1.586139  6.459536
H    0.891512  0.138417  6.991168
Cd    1.696777  2.331243  2.379746
