36
Energy: -175308.706616 eV PBE+vdW (tier 2 basis)
C    0.733947  0.404248  0.392362
C    -0.054566  0.898420  1.553577
O    0.435191  1.796276  2.311232
H    0.875809  1.208710  -0.343454
H    0.299343  -0.479729  -0.083233
H    1.739727  0.152471  0.761562
N    -1.280921  0.389163  1.838893
C    -2.346404  0.187495  0.856003
C    -3.249220  1.455394  0.898100
O    -2.834390  2.565099  1.376969
H    -1.602412  0.603848  2.783641
H    -1.870960  0.208229  -0.137255
C    -3.082944  -1.151604  0.996334
C    -3.833673  -1.377636  2.323528
C    -5.042889  -2.348517  2.206352
N    -6.339294  -1.680036  2.116218
C    -6.854965  -0.966024  1.066087
N    -6.246859  -1.127357  -0.182581
N    -7.802754  -0.081207  1.148571
H    -2.342355  -1.949145  0.845809
H    -3.769898  -1.235637  0.144333
H    -4.213595  -0.429184  2.734306
H    -3.138793  -1.782629  3.071458
H    -5.095508  -2.984574  3.096731
H    -4.908886  -3.034031  1.356044
H    -6.844166  -1.566153  2.990233
H    -6.858139  -0.757386  -0.911494
H    -5.954699  -2.077852  -0.407003
H    -8.233887  -0.012816  2.075476
N    -4.458638  1.370426  0.377826
C    -5.404175  2.486250  0.279187
H    -4.789727  0.462812  0.025268
H    -6.418623  2.074228  0.292337
H    -5.244292  3.040134  -0.655044
H    -5.267165  3.165883  1.124969
Cd    -1.128367  3.344785  2.559366
