36
Energy: -175309.298597 eV PBE+vdW (tier 2 basis)
C    -0.073497  0.340344  0.548780
C    -0.630661  1.116556  1.748663
O    0.375201  1.551568  2.581972
H    -0.769165  0.165502  -0.276570
H    0.302855  -0.639930  0.867781
H    0.782738  0.909631  0.171240
N    -1.543588  0.254757  2.676105
C    -2.394355  -0.893081  2.335903
C    -1.563757  -2.196869  2.565940
O    -0.341514  -2.170985  2.926524
H    -2.029555  0.900299  3.297444
H    -3.157154  -0.931601  3.134171
C    -3.162551  -0.793744  0.992027
C    -4.417543  0.098943  1.016758
C    -4.259239  1.613584  1.247353
N    -3.481911  2.304042  0.204527
C    -2.149600  2.398406  0.170753
N    -1.504991  2.616496  -0.977175
N    -1.407575  2.312917  1.322367
H    -3.494016  -1.792584  0.688249
H    -2.478859  -0.483860  0.194598
H    -5.111889  -0.259447  1.793672
H    -4.946811  -0.048517  0.063806
H    -3.816779  1.837932  2.225033
H    -5.251708  2.079596  1.255930
H    -4.003190  2.624589  -0.610230
H    -0.558957  2.983526  -0.944756
H    -1.957288  2.549663  -1.884176
H    -1.823497  2.792434  2.119791
N    -2.135058  -3.390579  2.449750
C    -3.533629  -3.761385  2.224449
H    -1.493068  -4.161887  2.635132
H    -4.213994  -2.982691  2.583024
H    -3.734709  -4.672849  2.797321
H    -3.728540  -3.970523  1.164713
Cd    0.561188  -0.286594  3.611377
