36
Energy: -175310.721901 eV PBE+vdW (tier 2 basis)
C    -0.967109  3.499292  0.045387
C    -0.783647  2.022061  0.237988
O    -0.001567  1.385489  -0.474509
H    -1.990173  3.810053  -0.208868
H    -0.483545  1.528357  -2.567835
H    -0.250292  3.888782  -0.677970
N    -1.461200  1.369013  1.254861
C    -2.786949  1.689000  1.787584
C    -2.676768  2.219087  3.249027
O    -1.907858  3.188029  3.543040
H    -1.150816  0.404877  1.369262
H    -3.173596  2.545276  1.212690
C    -3.777308  0.512775  1.610409
C    -3.775434  -0.286745  0.289063
C    -3.982678  0.439889  -1.052099
N    -2.693545  0.740664  -1.684601
C    -2.496352  1.319551  -2.879291
N    -3.532962  1.621541  -3.672950
N    -1.244516  1.631792  -3.239965
H    -4.791064  0.901906  1.788803
H    -3.584271  -0.240593  2.391654
H    -4.588841  -1.016661  0.392626
H    -2.867297  -0.904964  0.214609
H    -4.559883  1.369649  -0.924944
H    -4.567969  -0.222967  -1.708325
H    -1.855245  0.369648  -1.243274
H    -3.392784  2.117394  -4.545495
H    -4.444774  1.206318  -3.527398
H    -1.009867  1.848431  -4.201235
N    -3.409566  1.671348  4.205231
C    -3.394981  2.128205  5.599290
H    -4.010530  0.888413  3.970576
H    -4.147573  1.563126  6.154565
H    -3.628409  3.197792  5.647567
H    -2.407361  1.959139  6.044611
Cd    -0.750121  4.292784  2.059159
