36
Energy: -175310.02849 eV PBE+vdW (tier 2 basis)
C    -0.953529  -4.741193  2.891381
C    -0.307938  -3.400847  2.765304
O    0.967184  -3.344326  2.960179
H    -1.189053  -5.123471  1.885762
H    -1.895297  -4.686123  3.452277
H    -0.272118  -5.444175  3.377185
N    -0.987628  -2.293760  2.466161
C    -2.376975  -2.149662  1.987410
C    -2.136626  -1.588248  0.546568
O    -1.060559  -0.987100  0.369698
H    -0.477092  -1.571877  1.876941
H    -2.896847  -3.115548  1.986157
C    -3.160799  -1.066085  2.765879
C    -3.592229  -1.285117  4.227189
C    -2.513568  -1.488188  5.300717
N    -1.385664  -0.553563  5.143308
C    -0.140210  -0.810642  5.550768
N    0.089453  -1.829617  6.402418
N    0.972959  -0.154938  5.083495
H    -4.086082  -0.885916  2.199696
H    -2.600677  -0.121543  2.658027
H    -4.267260  -2.149935  4.299512
H    -4.204229  -0.414458  4.504221
H    -2.104742  -2.508809  5.234284
H    -2.970622  -1.372541  6.294522
H    -1.487446  0.173149  4.441318
H    0.978278  -1.825925  6.894549
H    -0.674151  -2.306753  6.869155
H    0.762502  0.760146  4.677257
N    -3.097054  -1.743125  -0.363488
C    -3.028538  -1.199841  -1.722488
H    -3.926647  -2.271283  -0.109037
H    -2.049412  -0.735342  -1.862727
H    -3.814108  -0.448827  -1.868853
H    -3.159500  -2.007606  -2.451403
Cd    1.736470  -1.509857  3.647449
