36
Energy: -175309.112253 eV PBE+vdW (tier 2 basis)
C    -2.393623  -0.576763  -0.124141
C    -1.620314  -0.808218  1.134951
O    -0.351191  -0.771147  1.063468
H    -3.475420  -0.646573  0.025871
H    -2.081217  -1.311232  -0.878046
H    -2.139962  0.415359  -0.521536
N    -2.302262  -1.045473  2.265791
C    -1.692163  -1.145429  3.591725
C    -0.908606  -2.467163  3.773389
O    0.367917  -2.420370  3.862532
H    -3.334812  -0.949700  2.229496
H    -0.915419  -0.362369  3.664842
C    -2.711318  -0.871767  4.711585
C    -3.360153  0.521474  4.596953
C    -4.812715  0.584576  5.124179
N    -5.654060  -0.564495  4.786831
C    -5.820052  -1.182549  3.574107
N    -5.327386  -0.507373  2.440697
N    -6.301175  -2.370202  3.382521
H    -2.193152  -0.983475  5.673739
H    -3.488184  -1.645171  4.691538
H    -3.338966  0.861253  3.553471
H    -2.780390  1.264997  5.160000
H    -5.277206  1.521158  4.773454
H    -4.813898  0.638400  6.219191
H    -6.112528  -1.029602  5.563630
H    -5.754851  -0.929656  1.614361
H    -5.498945  0.498885  2.445644
H    -6.657098  -2.816721  4.233046
N    -1.493842  -3.651247  3.858248
C    -2.908760  -4.029504  3.820890
H    -0.831028  -4.416907  3.996144
H    -3.326979  -4.075066  4.834640
H    -2.974018  -5.027541  3.375014
H    -3.494954  -3.343863  3.204037
Cd    1.315565  -1.078203  2.435046
