36
Energy: -175308.540344 eV PBE+vdW (tier 2 basis)
C    -0.649319  -0.097634  -0.289641
C    -0.231961  0.121302  1.125289
O    0.995905  0.092771  1.433576
H    -0.455358  0.811659  -0.879403
H    -1.700066  -0.386470  -0.387437
H    -0.010358  -0.881227  -0.717395
N    -1.157761  0.344641  2.096389
C    -2.260819  1.304042  1.980492
C    -1.608656  2.705193  1.874847
O    -0.504580  2.931635  2.462407
H    -0.766425  0.300163  3.038960
H    -2.836362  1.069961  1.076225
C    -3.132566  1.168184  3.254316
C    -4.497589  1.868800  3.296587
C    -5.601323  1.161227  2.482283
N    -6.937753  1.665663  2.749072
C    -7.716116  1.272506  3.807576
N    -8.937409  1.846133  3.945117
N    -7.383491  0.395540  4.735486
H    -2.530300  1.525557  4.104162
H    -3.275945  0.087393  3.409949
H    -4.424260  2.926386  3.004807
H    -4.813870  1.883682  4.349495
H    -5.582537  0.079687  2.687914
H    -5.437425  1.260130  1.399901
H    -7.284976  2.407884  2.150534
H    -9.507554  1.521144  4.719417
H    -9.372607  2.427927  3.239515
H    -6.489767  -0.067458  4.547654
N    -2.188705  3.692168  1.198143
C    -3.433861  3.712330  0.434767
H    -1.666042  4.569496  1.228876
H    -3.241010  4.153534  -0.550183
H    -4.189697  4.320203  0.947945
H    -3.821069  2.700836  0.291285
Cd    1.531002  1.916497  2.638684
