36
Energy: -175311.355868 eV PBE+vdW (tier 2 basis)
C    -1.012208  -0.181592  -0.282593
C    -1.130807  0.203289  1.156372
O    -0.426972  1.161873  1.588446
H    -1.207213  0.702219  -0.904415
H    -1.692531  -0.988287  -0.574811
H    0.023561  -0.488177  -0.482862
N    -1.998030  -0.493196  1.925064
C    -2.294859  -0.215830  3.333388
C    -1.194809  -0.836932  4.225627
O    -0.155876  -0.159526  4.478054
H    -2.499659  -1.254787  1.474909
H    -2.177705  0.869610  3.451200
C    -3.763782  -0.479210  3.688631
C    -4.176210  -0.082789  5.126012
C    -3.551077  1.179395  5.756407
N    -3.702357  2.412797  4.975285
C    -2.691664  3.154591  4.469887
N    -2.960710  4.012979  3.464939
N    -1.409502  3.049469  4.877112
H    -4.036562  -1.534008  3.523558
H    -4.356798  0.090541  2.958743
H    -3.941153  -0.897874  5.825989
H    -5.271659  0.001961  5.142407
H    -2.479476  1.028106  5.933102
H    -4.001559  1.328574  6.747163
H    -4.652185  2.747430  4.827967
H    -2.343958  4.808960  3.339273
H    -3.883212  4.077538  3.048942
H    -1.336910  2.697196  5.832177
N    -1.356209  -2.075622  4.670176
C    -0.368607  -2.821413  5.455718
H    -2.219172  -2.557013  4.431380
H    -0.819299  -3.147044  6.400346
H    0.487011  -2.173590  5.658034
H    -0.038366  -3.702503  4.892486
Cd    -0.125280  1.910942  3.602582
