36
Energy: -175310.17134 eV PBE+vdW (tier 2 basis)
C    -0.441810  -1.401223  0.158785
C    -0.321374  -0.989535  1.608876
O    0.964169  -1.018313  1.969595
H    0.141296  -0.711810  -0.464846
H    -1.482807  -1.394516  -0.173365
H    -0.006832  -2.399671  0.018860
N    -1.406853  -0.709816  2.262211
C    -1.592168  -0.419247  3.690988
C    -1.044856  0.933099  4.199376
O    0.164691  1.147821  4.579863
H    -2.901246  -1.754051  1.757047
H    -2.683504  -0.295044  3.793776
C    -1.245813  -1.589570  4.649973
C    -2.238398  -2.761646  4.530532
C    -2.047287  -3.680910  3.297882
N    -3.302851  -4.178085  2.738649
C    -4.085456  -3.502504  1.881143
N    -5.216218  -4.078060  1.439458
N    -3.761595  -2.270169  1.473112
H    -1.281417  -1.214085  5.683006
H    -0.218203  -1.961642  4.488146
H    -3.258106  -2.348062  4.515360
H    -2.178252  -3.367919  5.443400
H    -1.451512  -4.561868  3.562964
H    -1.499299  -3.173855  2.496706
H    -3.650372  -5.067131  3.081169
H    -5.846071  -3.593719  0.812515
H    -5.443057  -5.040741  1.656015
H    -4.322239  -1.833251  0.751168
N    -1.907305  1.928906  4.298317
C    -1.574615  3.274950  4.772582
H    -2.874648  1.737592  4.052841
H    -2.368271  3.958085  4.458816
H    -0.620042  3.594681  4.342707
H    -1.495375  3.286493  5.867066
Cd    1.599428  -0.122347  3.698896
