36
Energy: -175310.033753 eV PBE+vdW (tier 2 basis)
C    0.219652  0.000674  0.222522
C    0.130481  -0.275891  1.706590
O    1.217013  -0.935580  2.106553
H    1.177791  0.481957  -0.006771
H    -0.596225  0.646981  -0.111589
H    0.199366  -0.948900  -0.329386
N    -0.931049  0.119803  2.341144
C    -1.373907  -0.154978  3.714004
C    -0.614473  0.594134  4.830931
O    0.510640  0.230960  5.331146
H    -2.427642  -0.018715  1.369540
H    -2.385015  0.279679  3.759582
C    -1.559056  -1.657515  4.043897
C    -2.259425  -2.457803  2.935116
C    -3.787067  -2.383966  2.864210
N    -4.449150  -1.057886  2.708320
C    -4.481412  -0.317392  1.568945
N    -5.652275  0.202632  1.171409
N    -3.362155  -0.082498  0.884781
H    -2.101720  -1.744770  4.997576
H    -0.581164  -2.146028  4.223571
H    -2.044936  -3.524289  3.096640
H    -1.815235  -2.221774  1.959739
H    -4.209575  -2.786205  3.793446
H    -4.121809  -3.043717  2.049879
H    -5.299424  -0.979601  3.259241
H    -5.693506  0.951162  0.488090
H    -6.536023  -0.196503  1.467716
H    -3.434875  0.340918  -0.034553
N    -1.188751  1.674370  5.330502
C    -0.608573  2.503329  6.391576
H    -2.092964  1.942360  4.953922
H    -1.222747  3.400208  6.503220
H    0.414981  2.790392  6.126036
H    -0.590140  1.952631  7.339956
Cd    1.659999  -1.052127  4.103999
