36
Energy: -175308.818079 eV PBE+vdW (tier 2 basis)
C    1.879193  2.829841  1.784721
C    1.583620  1.439499  1.336465
O    2.525856  0.785076  0.779893
H    1.160890  3.234259  2.499905
H    1.948312  3.491622  0.908693
H    2.883361  2.812589  2.231662
N    0.399533  0.804160  1.551456
C    -0.976001  1.235003  1.247858
C    -1.239748  0.827375  -0.226219
O    -0.298689  0.723302  -1.074940
H    0.507385  -0.207644  1.459670
H    -1.630509  0.630165  1.894446
C    -1.258848  2.721342  1.540322
C    -2.740700  3.117094  1.502356
C    -3.024020  4.434060  2.255764
N    -2.472465  5.635057  1.643387
C    -1.347454  6.274205  2.100624
N    -1.182852  7.568727  1.718291
N    -0.509232  5.581195  2.843777
H    -0.683867  3.363491  0.860011
H    -0.885412  2.919631  2.552984
H    -3.352812  2.350945  2.007205
H    -3.110269  3.201621  0.469647
H    -2.632666  4.367880  3.277834
H    -4.112293  4.569164  2.321437
H    -3.065573  6.135640  0.989199
H    -0.336698  8.062306  1.973348
H    -1.952281  8.138368  1.383990
H    0.259131  6.169973  3.180489
N    -2.494032  0.611304  -0.596006
C    -2.896809  0.251075  -1.959411
H    -3.225379  0.709480  0.102466
H    -3.982436  0.127541  -1.976660
H    -2.421932  -0.690863  -2.258801
H    -2.605710  1.037430  -2.665387
Cd    1.777332  -0.122636  -1.093839
