36
Energy: -175308.769356 eV PBE+vdW (tier 2 basis)
C    -0.864683  0.417833  -0.442776
C    -0.813977  0.031294  0.992734
O    0.137034  -0.686023  1.426256
H    -0.439280  1.428890  -0.562527
H    -1.890445  0.409913  -0.848667
H    -0.226279  -0.264491  -1.014439
N    -1.788561  0.433861  1.862647
C    -2.279840  1.813374  1.947993
C    -1.114463  2.682094  2.485014
O    -0.145179  2.162606  3.126400
H    -1.704265  -0.009341  2.779267
H    -2.549201  2.148206  0.937191
C    -3.503875  1.919520  2.895834
C    -4.905463  1.759940  2.286860
C    -5.312895  0.357708  1.787405
N    -4.671098  -0.037103  0.549817
C    -4.946117  0.404187  -0.719688
N    -6.117531  1.054001  -0.943131
N    -3.992280  0.177698  -1.598798
H    -3.475735  2.908358  3.373808
H    -3.360876  1.205316  3.723520
H    -5.051000  2.491187  1.476704
H    -5.624674  2.037179  3.071529
H    -6.406357  0.326700  1.671269
H    -5.075555  -0.406943  2.538976
H    -3.830506  -0.602740  0.591939
H    -6.353427  1.305393  -1.896210
H    -6.905719  0.954423  -0.312485
H    -4.253011  0.468540  -2.546539
N    -1.136307  3.997245  2.308001
C    -2.171300  4.828735  1.692781
H    -0.347908  4.489266  2.731244
H    -2.760290  4.254511  0.971675
H    -1.684965  5.653448  1.161450
H    -2.840376  5.247455  2.456280
Cd    1.099227  0.292475  3.188350
