36
Energy: -175310.543978 eV PBE+vdW (tier 2 basis)
C    -0.535490  -1.017261  0.110980
C    -0.390599  -1.039608  1.602692
O    0.703749  -0.990672  2.176709
H    -0.163081  -0.050891  -0.256248
H    -1.565128  -1.154995  -0.237311
H    0.107691  -1.791596  -0.324216
N    -1.552185  -1.114366  2.345429
C    -1.534487  -0.929767  3.791158
C    -1.097496  -2.234000  4.524237
O    -1.782175  -2.936543  5.378821
H    -2.428692  -1.273640  1.862721
H    -0.681799  -0.255251  3.978564
C    -2.785845  -0.179135  4.300582
C    -4.168324  -0.634953  3.800031
C    -5.368397  0.208004  4.288892
N    -5.425948  0.551263  5.724094
C    -5.281662  -0.285190  6.761735
N    -4.973462  0.198634  7.974708
N    -5.393951  -1.642065  6.643086
H    -2.649680  0.873490  4.012007
H    -2.741917  -0.153665  5.406264
H    -4.345629  -1.710753  3.979020
H    -4.214979  -0.546937  2.704330
H    -6.305229  -0.279283  3.980805
H    -5.350090  1.176376  3.773990
H    -5.587772  1.533584  5.934133
H    -5.185402  -0.371580  8.787951
H    -4.776189  1.181552  8.134532
H    -6.040746  -1.897520  5.892798
N    0.113615  -2.631693  4.230087
C    0.764345  -3.827622  4.763675
H    0.601959  -2.035413  3.513520
H    1.799889  -3.832987  4.415066
H    0.256956  -4.733569  4.408784
H    0.747048  -3.816397  5.859612
Cd    -3.566635  -2.524848  6.247627
