36
Energy: -175310.712947 eV PBE+vdW (tier 2 basis)
C    -0.612367  1.232059  0.053726
C    -1.266289  1.166516  1.404423
O    -0.917828  1.965408  2.280108
H    -1.299032  1.458570  -0.771120
H    0.217070  1.939986  0.078118
H    -1.414103  3.824018  1.965764
N    -2.237239  0.234954  1.734357
C    -3.132531  -0.651818  0.974918
C    -2.553821  -2.065924  0.716504
O    -1.442329  -2.303700  0.149177
H    -2.440729  0.288669  2.730839
H    -3.974364  -0.812100  1.664750
C    -3.759038  -0.044618  -0.301982
C    -4.783981  1.090189  -0.038922
C    -4.386111  2.540712  -0.336151
N    -3.458672  3.097329  0.654352
C    -2.838553  4.290714  0.568038
N    -3.166289  5.151503  -0.405608
N    -1.870831  4.578240  1.442818
H    -4.285775  -0.867290  -0.805357
H    -2.988267  0.275357  -1.015767
H    -5.167462  1.026950  0.992500
H    -5.658916  0.898988  -0.673786
H    -5.314714  3.134578  -0.358206
H    -3.923488  2.614625  -1.332733
H    -3.399244  2.635090  1.555664
H    -2.625402  5.995822  -0.553560
H    -4.057129  5.092555  -0.883900
H    -1.516355  5.521983  1.543775
N    -3.313378  -3.087306  1.091429
C    -2.956588  -4.492213  0.869756
H    -4.187028  -2.892685  1.571063
H    -3.810723  -5.113297  1.150665
H    -2.089511  -4.766510  1.482875
H    -2.713774  -4.657097  -0.185747
Cd    0.010875  -0.790320  -0.392663
