36
Energy: -175310.97413 eV PBE+vdW (tier 2 basis)
C    -0.100124  -1.513025  1.482188
C    0.246548  -0.142914  1.984591
O    1.390342  0.165625  2.347431
H    -1.127516  -1.608631  1.114472
H    0.052643  -2.229675  2.301132
H    0.602365  -1.788339  0.686153
N    -0.773122  0.780060  2.022606
C    -0.725957  2.087512  2.676562
C    0.261397  3.116410  2.104513
O    -0.076089  4.376410  2.081142
H    -1.663253  0.505482  1.622720
H    -1.715052  2.522191  2.465696
C    -0.532948  1.991478  4.219642
C    -1.794853  1.606299  5.012744
C    -2.540829  2.768653  5.672385
N    -3.136083  3.712102  4.660395
C    -3.551854  4.993830  5.166272
N    -4.517742  5.073518  6.074949
N    -2.887278  5.999356  4.643714
H    -0.128961  2.946862  4.601985
H    0.270973  1.266446  4.398315
H    -1.511285  0.933392  5.833680
H    -2.484002  1.015133  4.388289
H    -1.849042  3.360554  6.288735
H    -3.321537  2.373099  6.340221
H    -3.923591  3.254713  4.187715
H    -4.834023  5.963068  6.453532
H    -4.976076  4.241633  6.432704
H    -3.097362  6.953338  4.942469
N    1.435394  2.734220  1.689226
C    2.482047  3.596916  1.148008
H    1.626838  1.707671  1.856324
H    2.172284  4.643553  1.182870
H    2.685019  3.306207  0.109888
H    3.397362  3.453894  1.734561
Cd    -1.523960  5.154997  3.289755
