36
Energy: -175311.428579 eV PBE+vdW (tier 2 basis)
C    1.143756  -1.152107  2.356341
C    0.804157  0.305138  2.234832
O    1.682795  1.088057  1.783511
H    1.294223  -1.553008  1.343508
H    0.373646  -1.748728  2.856916
H    2.098262  -1.262339  2.884515
N    -0.443908  0.663994  2.603783
C    -1.275757  1.885188  2.440938
C    -0.913014  2.790400  1.250830
O    0.086055  3.563769  1.225576
H    -0.995231  -0.118758  2.946073
H    -2.257736  1.460259  2.187019
C    -1.571167  2.678289  3.747624
C    -0.573947  3.611134  4.465771
C    0.509935  2.969672  5.352036
N    1.863618  2.944136  4.714877
C    2.645453  4.158972  4.715103
N    2.920007  4.768649  5.868865
N    3.015365  4.537064  3.518816
H    -1.947112  1.940646  4.474284
H    -2.448282  3.293574  3.495334
H    -1.199641  4.228595  5.124969
H    -0.128591  4.338648  3.769762
H    0.266047  1.923076  5.572054
H    0.545721  3.487660  6.322355
H    2.426708  2.190919  5.121314
H    3.458505  5.629358  5.907251
H    2.646338  4.364938  6.757967
H    3.609437  5.362654  3.425348
N    -1.783017  2.807696  0.246370
C    -1.641359  3.672392  -0.927668
H    -2.604074  2.212803  0.298834
H    -2.411576  3.398378  -1.652914
H    -0.650683  3.537400  -1.375833
H    -1.763948  4.725212  -0.644877
Cd    1.986575  3.178025  2.213318
