36
Energy: -175309.166007 eV PBE+vdW (tier 2 basis)
C    -0.162840  0.304980  -0.535194
C    -0.198714  0.092535  0.947549
O    0.802717  -0.427491  1.520053
H    -1.099761  0.690323  -0.951022
H    0.082859  -0.649762  -1.019431
H    0.653834  0.998379  -0.778006
N    -1.324497  0.451953  1.595466
C    -1.746671  0.206967  2.987815
C    -1.122082  1.205370  3.974795
O    0.122167  1.440888  4.025193
H    -2.035890  0.874544  1.006423
H    -2.825793  0.404665  2.966713
C    -1.573093  -1.246467  3.489749
C    -2.301337  -2.277704  2.619336
C    -2.252360  -3.686660  3.220592
N    -2.925878  -4.628702  2.353659
C    -3.136153  -5.963994  2.572405
N    -2.690489  -6.522904  3.723550
N    -3.773135  -6.576386  1.594903
H    -1.975376  -1.269133  4.514734
H    -0.508614  -1.505412  3.568440
H    -1.851722  -2.306582  1.615279
H    -3.354983  -1.981699  2.493190
H    -2.734120  -3.685855  4.215810
H    -1.201108  -3.997626  3.370369
H    -3.296944  -4.326908  1.456174
H    -2.855834  -7.507091  3.894630
H    -2.210755  -6.006379  4.450057
H    -3.920676  -7.574721  1.778799
N    -1.922468  1.838942  4.827368
C    -3.384129  1.787561  4.936740
H    -1.430562  2.458005  5.472183
H    -3.868361  2.157077  4.023941
H    -3.679879  2.442117  5.761199
H    -3.734662  0.774285  5.168289
Cd    1.899886  0.385734  3.250493
