36
Energy: -175309.508514 eV PBE+vdW (tier 2 basis)
C    0.664692  -0.370166  0.198298
C    0.319279  0.215321  1.526714
O    1.230209  0.753307  2.234698
H    0.753824  -1.464379  0.293780
H    1.637960  0.017160  -0.118230
H    -0.097249  -0.151324  -0.556153
N    -0.946782  0.165654  2.014943
C    -1.837453  -1.020068  2.044007
C    -1.101986  -2.166187  2.777515
O    -0.393404  -1.878511  3.880489
H    -1.080800  0.788059  2.811546
H    -2.651155  -0.705156  2.716237
C    -2.470732  -1.398757  0.693254
C    -3.851225  -2.052203  0.862972
C    -4.608329  -2.290365  -0.450978
N    -4.085923  -3.377509  -1.292712
C    -4.552989  -4.633457  -1.330757
N    -4.215660  -5.437419  -2.351023
N    -5.347299  -5.102335  -0.360006
H    -1.796495  -2.071409  0.144369
H    -2.582409  -0.473399  0.108052
H    -4.490074  -1.393682  1.472049
H    -3.742801  -2.994292  1.420491
H    -4.601600  -1.383097  -1.070933
H    -5.666227  -2.503967  -0.246618
H    -3.365045  -3.145495  -1.967283
H    -4.393363  -6.434237  -2.315426
H    -3.873252  -5.062927  -3.227622
H    -5.467004  -4.607242  0.513768
N    -1.298806  -3.364842  2.395955
C    -0.649157  -4.524345  2.964281
H    -5.882586  -5.952938  -0.488131
H    -1.191625  -4.850075  3.865444
H    0.396704  -4.336496  3.244043
H    -0.692661  -5.347993  2.241623
Cd    1.038752  -0.362582  4.164857
