36
Energy: -175310.261037 eV PBE+vdW (tier 2 basis)
C    -0.443427  -0.275236  -0.008570
C    -0.081101  -0.292579  1.436888
O    1.067413  -0.766679  1.762214
H    -0.228228  0.724235  -0.419952
H    -1.503856  -0.495325  -0.177581
H    0.177395  -0.998923  -0.545161
N    -0.934083  0.164941  2.360522
C    -2.171920  0.928348  2.151614
C    -1.864239  2.284526  1.479089
O    -0.813210  2.901968  1.738621
H    -0.667418  0.024239  3.332521
H    -2.832186  0.340702  1.500169
C    -2.935808  1.152396  3.494032
C    -2.150951  1.330357  4.810104
C    -1.208308  2.559092  5.002512
N    0.119099  2.110926  5.464315
C    1.189525  1.881605  4.704361
N    1.237759  2.290616  3.370461
N    2.257563  1.151973  5.064571
H    -3.596757  0.288691  3.647219
H    -3.601647  2.013612  3.346123
H    -1.579778  0.412000  5.031346
H    -2.911300  1.349243  5.602496
H    -1.609206  3.237110  5.764021
H    -1.082830  3.147678  4.089271
H    0.133625  1.685265  6.390239
H    0.369431  2.581050  2.854473
H    2.022078  2.919054  3.187136
H    2.357981  0.871818  6.040674
N    -2.786911  2.781840  0.645857
C    -4.054677  2.186702  0.214967
H    -2.559515  3.708648  0.288765
H    -3.898479  1.232738  -0.305648
H    -4.526253  2.875105  -0.491706
H    -4.747508  2.041239  1.053459
Cd    2.331278  0.023321  3.254289
