36
Energy: -175310.072102 eV PBE+vdW (tier 2 basis)
C    -0.156934  -0.083501  0.082065
C    -0.171996  0.023673  1.586490
O    1.044411  0.297568  2.034437
H    0.184899  -1.088369  -0.204478
H    0.560584  0.630990  -0.336035
H    -1.144742  0.102415  -0.347839
N    -1.298912  -0.148401  2.234386
C    -1.367910  0.100630  3.668957
C    -0.910242  -1.111941  4.519908
O    0.216661  -1.061329  5.145101
H    -2.891513  -0.396481  0.962381
H    -0.627432  0.881154  3.962125
C    -2.726858  0.712675  4.156048
C    -3.950767  0.588340  3.242685
C    -3.940046  1.582682  2.066847
N    -4.897767  1.229902  1.017376
C    -4.712373  0.226015  0.149081
N    -5.631007  -0.016108  -0.798694
N    -3.613194  -0.535711  0.233822
H    -2.544053  1.779218  4.350154
H    -2.966046  0.289997  5.142065
H    -4.849872  0.766683  3.848842
H    -4.051814  -0.432414  2.856602
H    -2.940752  1.651757  1.616028
H    -4.199826  2.591374  2.409050
H    -5.781279  1.726467  0.986352
H    -5.542522  -0.797502  -1.435872
H    -6.419047  0.602811  -0.944487
H    -3.427509  -1.228989  -0.480071
N    -1.613661  -2.221877  4.662860
C    -2.915435  -2.578005  4.104428
H    -1.169078  -2.913641  5.267734
H    -2.992887  -3.669308  4.108469
H    -2.990868  -2.227637  3.071286
H    -3.734899  -2.168820  4.708802
Cd    1.566185  0.167737  4.038661
