36
Energy: -175309.081686 eV PBE+vdW (tier 2 basis)
C    0.086147  -2.359364  0.333743
C    -0.223802  -1.362998  1.405990
O    0.581099  -0.409523  1.601065
H    0.161312  -1.830189  -0.626223
H    -0.662945  -3.153997  0.249221
H    1.070828  -2.803421  0.529585
N    -1.363549  -1.525846  2.110625
C    -1.908679  -0.575623  3.083270
C    -1.175891  -0.672540  4.444343
O    -0.308876  0.213844  4.738117
H    -1.940000  -2.325561  1.863561
H    -1.646472  0.432843  2.724942
C    -3.445933  -0.641792  3.144912
C    -4.112244  0.029327  1.934726
C    -5.653902  -0.048609  1.949905
N    -6.267751  0.647451  3.071450
C    -6.643360  0.115604  4.282256
N    -6.773843  -1.249806  4.374719
N    -6.802670  0.812323  5.376318
H    -3.766880  -0.143300  4.071337
H    -3.782684  -1.685092  3.230241
H    -3.775138  -0.435569  0.995189
H    -3.808429  1.086815  1.883077
H    -5.979670  -1.095740  1.944971
H    -6.038879  0.398500  1.022978
H    -6.290404  1.661849  3.024892
H    -7.157448  -1.538776  5.271750
H    -7.161916  -1.753761  3.583065
H    -6.739055  1.825879  5.237248
N    -1.412163  -1.630574  5.331080
C    -2.357047  -2.748378  5.297136
H    -0.849713  -1.540528  6.178543
H    -2.007822  -3.499471  6.011947
H    -2.382377  -3.215367  4.307625
H    -3.365313  -2.430304  5.590431
Cd    1.012819  1.065399  3.191980
