36
Energy: -175309.138719 eV PBE+vdW (tier 2 basis)
C    -0.863706  -0.873568  -0.990390
C    -0.881072  -0.689161  0.494007
O    0.015124  0.023074  1.028686
H    -0.959041  0.111452  -1.467792
H    -1.662007  -1.528821  -1.355092
H    0.110748  -1.280137  -1.290602
N    -1.864456  -1.291142  1.195195
C    -2.132384  -1.090456  2.620635
C    -1.105431  -1.843203  3.503687
O    -0.210182  -1.170470  4.110918
H    -2.555113  -1.807917  0.657001
H    -1.934333  -0.029698  2.844320
C    -3.618800  -1.339107  2.937912
C    -3.970068  -1.128960  4.416126
C    -5.468958  -1.294766  4.745254
N    -6.337620  -0.276498  4.178900
C    -7.030859  -0.383042  3.000943
N    -7.798608  0.676054  2.630618
N    -6.980984  -1.396472  2.159302
H    -3.912749  -2.349042  2.617490
H    -4.188296  -0.637484  2.310017
H    -3.646027  -0.127927  4.741010
H    -3.424911  -1.848077  5.048100
H    -5.590784  -1.260300  5.835628
H    -5.826324  -2.287621  4.435351
H    -6.458871  0.569996  4.726670
H    -8.376556  0.542848  1.807334
H    -8.066861  1.411222  3.274064
H    -6.504787  -2.208849  2.560045
N    -1.113362  -3.160773  3.663178
C    -2.022685  -4.177578  3.133143
H    -0.368409  -3.495831  4.276014
H    -1.496699  -5.136994  3.150328
H    -2.295575  -3.963808  2.095616
H    -2.925432  -4.268724  3.750765
Cd    0.774305  0.497547  3.049931
