36
Energy: -175310.864389 eV PBE+vdW (tier 2 basis)
C    -0.611840  -1.500915  0.470863
C    -0.053890  -0.670713  1.566856
O    1.194383  -0.404684  1.590405
H    -0.646998  -0.905380  -0.454915
H    -1.603646  -1.902749  0.696067
H    0.088224  -2.324682  0.273302
N    -0.847870  -0.190909  2.558987
C    -2.125658  0.498601  2.365837
C    -1.909969  1.617566  1.320177
O    -0.748881  2.067729  1.105622
H    -0.321737  0.149651  3.364286
H    -2.871963  -0.214732  1.991162
C    -2.638512  1.037243  3.733059
C    -1.661244  1.847361  4.611307
C    -1.419619  3.328629  4.236339
N    -0.187602  3.847319  4.848793
C    1.045192  3.650774  4.331967
N    2.106473  3.579658  5.147313
N    1.249635  3.538648  2.997450
H    -2.962347  0.160443  4.310041
H    -3.549459  1.623156  3.548075
H    -0.680211  1.345442  4.688386
H    -2.048122  1.808065  5.639124
H    -2.249618  3.955725  4.582633
H    -1.359981  3.469907  3.152391
H    -0.252856  4.176642  5.809218
H    3.027426  3.778447  4.769886
H    2.013763  3.535924  6.156449
H    0.495368  4.000647  2.484573
N    -2.955041  2.106190  0.656343
C    -4.370163  1.738807  0.740427
H    -2.717358  2.854082  0.004013
H    -4.804292  1.788951  -0.263579
H    -4.917581  2.430558  1.393961
H    -4.494416  0.717920  1.113130
Cd    1.380050  1.676700  2.050484
