36
Energy: -175308.423981 eV PBE+vdW (tier 2 basis)
C    0.883656  -0.018600  0.716848
C    0.486603  0.066614  2.159593
O    1.420524  0.413427  2.968794
H    1.490868  0.855932  0.457230
H    0.025973  -0.087778  0.041113
H    1.519220  -0.905414  0.580729
N    -0.737922  -0.219286  2.568958
C    -1.929824  -0.576183  1.795275
C    -3.084368  -0.255746  2.790943
O    -2.828375  -0.224112  3.999440
H    -0.995980  -0.154102  3.569569
H    -1.994897  0.059578  0.900669
C    -1.953461  -2.080901  1.405929
C    -2.867456  -2.391617  0.212608
C    -3.466539  -3.810784  0.211561
N    -4.273875  -4.129314  1.389479
C    -5.425740  -3.495201  1.739557
N    -6.000279  -3.796549  2.932442
N    -6.018092  -2.541332  1.029575
H    -2.257499  -2.652915  2.295282
H    -0.926459  -2.395685  1.175100
H    -2.318174  -2.264268  -0.730910
H    -3.698823  -1.674460  0.167162
H    -2.671968  -4.565859  0.172936
H    -4.068959  -3.951082  -0.699424
H    -3.917349  -4.850044  2.009540
H    -6.933050  -3.427206  3.087376
H    -5.730096  -4.607495  3.478123
H    -5.687488  -2.530838  0.058935
N    -4.322968  -0.080903  2.290488
C    -5.477215  0.203173  3.138503
H    -4.444861  0.003868  1.286747
H    -6.382199  -0.108681  2.609659
H    -5.538554  1.275180  3.372755
H    -5.376128  -0.350225  4.077766
Cd    1.600203  0.963170  5.065164
