36
Energy: -175311.132618 eV PBE+vdW (tier 2 basis)
C    -1.139043  -0.775664  -0.718090
C    -0.584020  -0.522583  0.644972
O    0.703650  -0.625476  0.751796
H    -0.685202  -0.078974  -1.434960
H    -2.228840  -0.680479  -0.748511
H    -0.854888  -1.789794  -1.032319
N    -1.415691  -0.234831  1.624227
C    -1.272256  -0.184949  3.081640
C    -2.628994  -0.838785  3.549890
O    -3.569353  -0.810772  2.754984
H    -2.440360  -0.310908  1.433744
H    -0.421978  -0.807676  3.407308
C    -1.209457  1.261195  3.627671
C    0.124297  2.011485  3.497100
C    1.136293  1.655557  4.602765
N    2.423698  2.340738  4.483572
C    3.576989  1.809108  4.029536
N    4.727566  2.421285  4.350838
N    3.586326  0.691698  3.282286
H    -1.500750  1.238602  4.688938
H    -1.999189  1.832003  3.120738
H    -0.068045  3.093119  3.543300
H    0.552202  1.873202  2.481182
H    1.334781  0.574067  4.672823
H    0.707538  1.934227  5.575475
H    2.477391  3.279047  4.868564
H    5.587737  2.222475  3.852673
H    4.785679  3.081838  5.118575
H    4.504243  0.260350  3.195396
N    -2.667318  -1.336269  4.792676
C    -3.874453  -1.915851  5.387613
H    -1.818972  -1.339395  5.348852
H    -4.173549  -1.342976  6.273387
H    -3.689463  -2.957996  5.672662
H    -4.675402  -1.879325  4.644786
Cd    2.089634  0.020036  2.061238
