36
Energy: -175310.513684 eV PBE+vdW (tier 2 basis)
C    0.324692  0.328082  0.465532
C    0.044168  0.187912  1.919605
O    1.050800  0.293442  2.733682
H    -0.574609  0.245856  -0.151336
H    1.061396  -0.424863  0.155160
H    0.792148  1.309128  0.296808
N    -1.165362  -0.034329  2.408766
C    -2.490424  -0.302234  1.844700
C    -3.409822  0.118391  3.034843
O    -2.900655  0.136203  4.177632
H    -1.357498  0.109541  3.431336
H    -2.671829  0.327263  0.962931
C    -2.729243  -1.794872  1.489548
C    -2.724207  -2.787841  2.674043
C    -1.328896  -3.359844  2.984719
N    -1.148105  -3.932306  4.328343
C    -0.559151  -3.274837  5.345897
N    0.132636  -3.948854  6.270956
N    -0.651390  -1.921244  5.476053
H    -1.998773  -2.094470  0.721946
H    -3.707582  -1.843600  0.992315
H    -3.399357  -3.620539  2.438584
H    -3.141454  -2.314821  3.573914
H    -0.557317  -2.587573  2.858405
H    -1.083909  -4.156363  2.269452
H    -1.278698  -4.937075  4.424544
H    0.295925  -3.516456  7.174642
H    0.375647  -4.928626  6.165656
H    -1.542408  -1.571229  5.100524
N    -4.684994  0.377300  2.764237
C    -5.686566  0.733549  3.771622
H    -4.981099  0.371204  1.791887
H    -6.497585  -0.004252  3.771174
H    -6.100224  1.723738  3.547892
H    -5.205894  0.752872  4.752548
Cd    0.721367  -0.618909  4.595798
