36
Energy: -175310.245144 eV PBE+vdW (tier 2 basis)
C    -0.862908  -0.858340  -0.239717
C    -0.663105  -0.500862  1.209143
O    0.596642  -0.180502  1.447839
H    -1.925257  -0.941424  -0.487310
H    -0.357913  -1.809142  -0.457588
H    -0.400149  -0.096549  -0.879000
N    -1.692639  -0.535081  2.019814
C    -1.593660  -0.033523  3.381813
C    -0.983429  -1.047274  4.377479
O    0.187811  -0.828575  4.871972
H    -4.080286  -2.058986  0.031665
H    -0.887551  0.832240  3.435632
C    -2.930388  0.564569  3.880048
C    -3.450234  1.698367  2.966742
C    -4.646312  1.326814  2.086382
N    -4.341551  0.175485  1.231861
C    -5.195498  -0.362086  0.362480
N    -6.376144  0.217456  0.101990
N    -4.876523  -1.511231  -0.263976
H    -2.762471  0.951261  4.894482
H    -3.690521  -0.220810  3.974348
H    -2.638882  2.083944  2.331021
H    -3.771515  2.544041  3.587409
H    -4.900571  2.203253  1.468759
H    -5.519283  1.095262  2.718541
H    -3.391522  -0.242524  1.356485
H    -7.061925  -0.224946  -0.497480
H    -6.593141  1.146111  0.439467
H    -5.439300  -1.877851  -1.021043
N    -1.605479  -2.146156  4.765645
C    -2.908532  -2.673869  4.362512
H    -1.077127  -2.702805  5.439696
H    -2.835420  -3.766478  4.341099
H    -3.163480  -2.320631  3.360382
H    -3.687291  -2.389738  5.081648
Cd    1.341656  0.148699  3.360968
