36
Energy: -175309.846148 eV PBE+vdW (tier 2 basis)
C    -0.336682  3.125786  0.697605
C    -0.683779  2.724174  2.099222
O    -0.645373  3.682040  3.030243
H    -0.936142  3.996286  0.401701
H    -0.498030  2.303389  -0.003195
H    0.717471  3.439151  0.640706
N    -1.059712  1.506687  2.345189
C    -1.337818  0.997763  3.662361
C    -0.463222  1.448160  4.835937
O    0.783823  1.712149  4.700732
H    -2.555445  -3.497782  -1.225256
H    -2.376239  1.284953  3.912122
C    -1.293780  -0.560145  3.591257
C    -2.399729  -1.117450  2.689900
C    -2.398334  -2.646807  2.555021
N    -1.300828  -3.202560  1.749133
C    -1.367117  -3.524314  0.449912
N    -0.410612  -4.292371  -0.094426
N    -2.373682  -3.086622  -0.317421
H    -1.388068  -0.981941  4.603537
H    -0.296710  -0.835800  3.216396
H    -2.329024  -0.640055  1.701344
H    -3.381903  -0.837067  3.101759
H    -3.344752  -2.992737  2.117488
H    -2.333654  -3.125338  3.541983
H    -0.433249  -3.425005  2.225111
H    -0.327952  -4.396359  -1.098704
H    0.196523  -4.865512  0.478900
H    -2.999359  -2.355414  -0.006287
N    -0.995144  1.483120  6.057307
C    -2.374062  1.209046  6.462211
H    -0.327871  1.691517  6.799419
H    -3.080778  1.775353  5.842829
H    -2.495271  1.531786  7.499998
H    -2.610021  0.138937  6.403141
Cd    1.189227  3.754491  4.027927
