36
Energy: -175308.63007 eV PBE+vdW (tier 2 basis)
C    -1.243717  0.462329  -1.197989
C    -0.402464  0.558922  0.029715
O    0.849198  0.714358  -0.073960
H    -1.348245  1.456439  -1.658627
H    -2.232334  0.032274  -1.011322
H    -0.707405  -0.156898  -1.929348
N    -0.961556  0.457868  1.267906
C    -2.144037  1.210086  1.685692
C    -1.661400  2.650235  2.009940
O    -0.429846  2.888845  2.210774
H    -0.256244  0.393486  2.002502
H    -2.831339  1.258193  0.830190
C    -2.882760  0.523042  2.856317
C    -2.070927  0.343312  4.147603
C    -2.888685  -0.255524  5.301097
N    -3.297878  -1.627786  5.038657
C    -4.387785  -2.266602  5.577526
N    -5.148101  -1.608824  6.489701
N    -4.797629  -3.463660  5.214687
H    -3.231164  -0.449682  2.481315
H    -3.789635  1.103221  3.077902
H    -1.682932  1.310613  4.500894
H    -1.188487  -0.296254  3.977755
H    -3.798584  0.344035  5.460275
H    -2.294473  -0.196771  6.230162
H    -2.642571  -2.233968  4.554931
H    -5.956144  -2.119058  6.834515
H    -4.787501  -0.861766  7.070033
H    -4.173094  -3.917222  4.538833
N    -2.539956  3.643457  2.099052
C    -3.993130  3.623272  1.927872
H    -2.121894  4.544410  2.335389
H    -4.296911  4.557581  1.444031
H    -4.503591  3.550463  2.897059
H    -4.304321  2.792093  1.288069
Cd    1.594591  2.381216  1.251115
