36
Energy: -175309.18204 eV PBE+vdW (tier 2 basis)
C    -0.488849  -1.887556  -0.068259
C    -0.295557  -0.827904  0.970697
O    0.705672  -0.065793  0.888758
H    -0.554167  -1.406437  -1.053651
H    -1.382799  -2.499204  0.094614
H    0.397633  -2.534852  -0.089016
N    -1.218398  -0.729726  1.953022
C    -1.257193  0.323544  2.968716
C    -0.202301  0.082465  4.077470
O    0.856340  0.787721  4.076851
H    -1.985912  -1.394841  1.927746
H    -0.903520  1.246000  2.481454
C    -2.688447  0.602469  3.464109
C    -3.525527  1.384005  2.437565
C    -4.936248  1.736341  2.926986
N    -5.756672  0.556539  3.102299
C    -6.885675  0.424140  3.873534
N    -7.326879  1.499948  4.575646
N    -7.405242  -0.783470  3.866811
H    -2.612549  1.186640  4.393694
H    -3.193324  -0.335697  3.735456
H    -3.601471  0.827217  1.489396
H    -3.020880  2.329875  2.192094
H    -5.395587  2.434061  2.202970
H    -4.875292  2.267674  3.890637
H    -5.638463  -0.235303  2.475212
H    -7.067695  2.449857  4.335436
H    -8.157225  1.398039  5.147255
H    -8.246808  -0.858076  4.447875
N    -0.351858  -0.824877  5.035188
C    -1.456841  -1.743580  5.312129
H    0.432107  -0.851195  5.688748
H    -1.060281  -2.572273  5.906598
H    -1.865899  -2.162779  4.387835
H    -2.252031  -1.253424  5.887536
Cd    1.856574  1.341689  2.176764
