36
Energy: -175310.044251 eV PBE+vdW (tier 2 basis)
C    0.560305  1.182178  0.820149
C    -0.155846  0.469453  1.934430
O    -0.641005  -0.755357  1.502568
H    0.896532  2.168640  1.147229
H    -0.108428  1.288886  -0.046192
H    1.416742  0.585911  0.478951
N    -0.283988  1.042629  3.071691
C    -1.072793  0.691660  4.250687
C    -0.276837  -0.186159  5.235157
O    -0.000320  -1.429556  5.028203
H    -3.222494  -0.886224  -1.177497
H    -1.207905  1.650368  4.780066
C    -2.514985  0.135322  4.060403
C    -3.529586  1.115028  3.442583
C    -3.330259  1.538012  1.979071
N    -3.360598  0.432167  1.012998
C    -4.374803  0.122337  0.196055
N    -5.603187  0.622541  0.382152
N    -4.158140  -0.721429  -0.827260
H    -2.890407  -0.130303  5.060285
H    -2.524603  -0.805787  3.481862
H    -3.546342  2.037436  4.043541
H    -4.527023  0.664717  3.558866
H    -2.372680  2.056049  1.847966
H    -4.101910  2.267497  1.700217
H    -2.502990  -0.120778  0.927813
H    -5.860132  1.101108  1.235314
H    -6.308445  0.563608  -0.342900
H    -4.926599  -1.104634  -1.364742
N    0.131901  0.366610  6.359419
C    0.901157  -0.316760  7.403045
H    -0.109464  1.342820  6.511382
H    1.474940  0.432010  7.956208
H    1.581036  -1.040575  6.944576
H    0.227086  -0.840695  8.092643
Cd    -0.341645  -2.061255  3.058503
