36
Energy: -175309.907724 eV PBE+vdW (tier 2 basis)
C    -0.287732  -0.058674  3.349833
C    -1.739001  0.028826  3.070166
O    -2.543615  0.525072  3.909824
H    -0.096977  -0.293077  4.401961
H    0.135177  0.943241  3.152748
H    0.225878  -0.748279  2.671470
N    -2.226520  -0.377848  1.830771
C    -2.420671  -1.825149  1.490641
C    -1.927854  -2.709250  2.640122
O    -2.499058  -2.563763  3.766906
H    -3.078843  0.146672  1.615372
H    -3.496178  -1.967852  1.645263
C    -2.227098  -2.176562  0.018496
C    -3.205761  -3.276639  -0.469599
C    -4.617787  -3.335636  0.169981
N    -5.370252  -2.067234  0.180843
C    -5.669921  -1.305621  1.255577
N    -5.952691  0.006036  1.055681
N    -5.634264  -1.747637  2.527276
H    -1.192012  -2.449190  -0.235730
H    -2.411756  -1.248986  -0.541322
H    -2.780403  -4.277400  -0.303088
H    -3.303080  -3.183375  -1.559566
H    -4.563528  -3.705824  1.201282
H    -5.213639  -4.077925  -0.376837
H    -5.679666  -1.725411  -0.726753
H    -6.584752  0.454891  1.712352
H    -5.941694  0.400873  0.120414
H    -5.731281  -2.760539  2.598867
N    -0.984454  -3.612694  2.428059
C    -0.484912  -4.558130  3.429564
H    -0.559085  -3.635088  1.504289
H    0.545433  -4.300476  3.704616
H    -0.500704  -5.571288  3.012750
H    -1.122290  -4.508704  4.315374
Cd    -4.173330  -0.988081  3.909319
