36
Energy: -175308.726854 eV PBE+vdW (tier 2 basis)
C    0.252199  -0.426880  2.344027
C    -0.411730  0.083469  3.568958
O    0.276633  0.268041  4.627153
H    1.078928  0.234729  2.051876
H    -0.444360  -0.600916  1.509240
H    0.717497  -1.391066  2.607041
N    -1.748336  0.323297  3.603337
C    -2.483006  1.108931  2.609288
C    -2.164856  2.595694  2.882262
O    -1.729521  2.985194  4.021398
H    -2.125644  0.415026  4.548429
H    -2.111989  0.825894  1.614676
C    -3.998574  0.823376  2.723994
C    -4.368956  -0.646263  2.446234
C    -4.939867  -0.962378  1.045444
N    -4.272461  -0.333310  -0.094176
C    -2.979274  -0.551516  -0.473295
N    -2.513720  0.174045  -1.542045
N    -2.110586  -1.310600  0.160551
H    -4.540788  1.497160  2.047513
H    -4.316649  1.105361  3.739445
H    -5.142471  -0.960296  3.159593
H    -3.503734  -1.287369  2.667241
H    -5.979964  -0.618724  0.997164
H    -4.970861  -2.055813  0.914719
H    -4.875829  0.168884  -0.737765
H    -1.639201  -0.169346  -1.929325
H    -3.165447  0.536567  -2.230924
H    -2.572012  -1.901498  0.857309
N    -2.379389  3.508733  1.946823
C    -2.927609  3.341032  0.600792
H    -2.175034  4.464968  2.241865
H    -2.690056  2.349630  0.201109
H    -2.470813  4.093947  -0.049728
H    -4.015033  3.492199  0.601664
Cd    -0.265861  2.220088  5.491985
