36
Energy: -175311.129352 eV PBE+vdW (tier 2 basis)
C    -1.640126  -0.580914  -1.127532
C    -1.212331  -0.784714  0.280320
O    -0.075350  -1.303703  0.522710
H    -1.126548  0.301811  -1.540984
H    -2.722238  -0.465267  -1.236955
H    -1.292858  -1.437833  -1.720095
N    -2.019496  -0.428594  1.314301
C    -2.688663  0.867092  1.421587
C    -1.595002  1.960158  1.396142
O    -0.396271  1.670265  1.700842
H    -1.739128  -0.815289  2.216910
H    -3.333356  1.001589  0.542396
C    -3.610512  0.916016  2.674809
C    -3.145654  0.324463  4.025295
C    -2.160306  1.098954  4.922915
N    -0.764722  1.033544  4.486036
C    0.266363  0.341235  5.023588
N    0.265583  0.025805  6.327774
N    1.268348  -0.020733  4.206545
H    -4.521820  0.371422  2.393049
H    -3.923142  1.959395  2.823047
H    -2.794848  -0.716191  3.917316
H    -4.068849  0.225137  4.615804
H    -2.231199  0.677885  5.932659
H    -2.454590  2.155393  5.004667
H    -0.532984  1.524505  3.622479
H    0.945598  -0.624315  6.705116
H    -0.278409  0.557814  6.997843
H    2.138617  -0.296776  4.656006
N    -1.910769  3.205621  1.058945
C    -3.208457  3.771506  0.683607
H    -1.122481  3.854043  1.083192
H    -3.890816  2.996150  0.323894
H    -3.054007  4.494376  -0.124372
H    -3.668804  4.289088  1.535214
Cd    0.827035  -0.325060  2.193299
