36
Energy: -175309.458605 eV PBE+vdW (tier 2 basis)
C    0.138088  -0.426422  0.101691
C    0.050598  -0.375990  1.594255
O    1.126633  -0.390106  2.260530
H    0.700179  0.451836  -0.245366
H    -0.841110  -0.442401  -0.388697
H    0.714008  -1.312034  -0.196037
N    -1.173194  -0.304820  2.154015
C    -1.467308  -0.053897  3.568786
C    -1.324775  -1.349389  4.407164
O    -0.259541  -1.521718  5.092573
H    -1.960742  -0.279638  1.511181
H    -0.667076  0.596682  3.957055
C    -2.786752  0.721538  3.710897
C    -3.217989  0.951337  5.163501
C    -4.653647  1.512175  5.221365
N    -5.237037  1.475007  6.549537
C    -5.809564  0.345253  7.068687
N    -6.488985  0.476141  8.237665
N    -5.642793  -0.781888  6.403009
H    -3.588032  0.197711  3.169738
H    -2.645937  1.683466  3.195098
H    -2.521761  1.632793  5.673893
H    -3.216474  0.005561  5.723054
H    -5.297552  0.925925  4.551584
H    -4.677048  2.554734  4.878429
H    -5.280300  2.336926  7.081125
H    -6.899410  -0.338570  8.675315
H    -6.746731  1.377062  8.623900
H    -6.146834  -1.550292  6.855928
N    -2.245783  -2.300411  4.451206
C    -3.586640  -2.371452  3.861768
H    -1.977369  -3.084073  5.048223
H    -3.873400  -3.426974  3.830815
H    -3.585691  -1.997359  2.833704
H    -4.317359  -1.823741  4.476226
Cd    1.655813  -0.754943  4.357395
