36
Energy: -175311.053086 eV PBE+vdW (tier 2 basis)
C    0.326375  0.655395  -0.116733
C    0.116551  0.325525  1.315779
O    1.085140  0.180190  2.108381
H    1.015469  1.502591  -0.220087
H    -0.604945  0.830109  -0.663153
H    0.831350  -0.210990  -0.576285
N    -1.159190  0.153663  1.811563
C    -2.247933  1.130422  1.702360
C    -1.641247  2.540172  1.836521
O    -0.714009  2.753901  2.678644
H    -1.200625  -0.454787  2.625804
H    -2.774417  1.012009  0.744265
C    -3.247491  0.971253  2.892971
C    -3.433773  -0.423625  3.520849
C    -2.491295  -0.810060  4.681728
N    -2.464322  0.176693  5.771067
C    -1.365342  0.556897  6.478105
N    -1.542154  0.842717  7.780812
N    -0.159918  0.665597  5.908884
H    -4.218609  1.328438  2.529952
H    -2.954412  1.669765  3.692566
H    -3.398072  -1.224989  2.767208
H    -4.461019  -0.462599  3.911130
H    -1.447471  -0.982031  4.381622
H    -2.826493  -1.778771  5.083418
H    -3.347112  0.296485  6.261781
H    -0.844735  1.361547  8.302573
H    -2.326543  0.474367  8.307962
H    0.596404  0.715562  6.588742
N    -2.149600  3.508933  1.092404
C    -1.762042  4.920231  1.154008
H    -2.876592  3.255085  0.427154
H    -2.627515  5.527450  1.444778
H    -1.409870  5.246557  0.168522
H    -0.963461  5.039894  1.889135
Cd    0.287474  1.224255  3.930721
