36
Energy: -175310.622717 eV PBE+vdW (tier 2 basis)
C    0.257156  0.283832  1.242137
C    -0.607243  0.429316  2.470994
O    -0.457564  1.412976  3.180884
H    -0.285744  0.259714  0.288290
H    1.019463  1.064306  1.239192
H    -3.542461  3.920220  -1.467742
N    -1.537405  -0.536796  2.858247
C    -2.219483  -1.654224  2.193042
C    -1.494762  -3.008405  2.388570
O    -0.309007  -3.245377  2.006110
H    -1.952770  -0.260259  3.745386
H    -3.170471  -1.745128  2.739580
C    -2.604359  -1.423339  0.713773
C    -3.547773  -0.222349  0.541189
C    -3.873810  0.059039  -0.934665
N    -4.965030  1.022385  -1.126455
C    -4.847051  2.338599  -1.358431
N    -5.892982  3.021301  -1.842136
N    -3.691392  2.977412  -1.127071
H    -3.100093  -2.338296  0.355116
H    -1.707916  -1.310751  0.087310
H    -3.112454  0.672820  1.011576
H    -4.487254  -0.419294  1.080169
H    -4.187542  -0.865710  -1.438067
H    -2.992984  0.422788  -1.482800
H    -5.909366  0.649645  -1.129439
H    -5.924386  4.033806  -1.806319
H    -6.677999  2.551466  -2.278084
H    -2.996257  2.600793  -0.496634
N    -2.191830  -3.975601  2.974884
C    -1.668013  -5.322691  3.216574
H    -3.128829  -3.765609  3.303975
H    -0.887728  -5.297349  3.987338
H    -1.242833  -5.731493  2.293651
H    -2.490200  -5.958526  3.554566
Cd    1.110055  -1.702109  1.377091
