36
Energy: -175309.304289 eV PBE+vdW (tier 2 basis)
C    1.162808  -0.134321  0.791778
C    0.529166  0.507224  1.984296
O    1.027807  1.591490  2.418354
H    1.104352  0.567874  -0.051540
H    0.674294  -1.077338  0.511254
H    2.227757  -0.305616  0.994268
N    -0.549749  -0.093773  2.511553
C    -1.461486  0.426422  3.544243
C    -0.895450  0.098491  4.946842
O    0.002380  0.828488  5.478760
H    -0.851454  -0.946244  2.039410
H    -1.456620  1.527242  3.474389
C    -2.895542  -0.076995  3.302195
C    -3.719693  0.623948  2.201153
C    -3.179488  0.628199  0.764800
N    -2.754524  -0.689719  0.338782
C    -1.910660  -0.986890  -0.710919
N    -1.665073  0.010057  -1.611842
N    -1.367977  -2.176938  -0.668061
H    -3.460247  0.061563  4.235088
H    -2.866734  -1.165590  3.121961
H    -3.898622  1.670503  2.486466
H    -4.711605  0.148511  2.206637
H    -2.319568  1.310399  0.661327
H    -3.975537  1.035091  0.115125
H    -3.166756  -1.517789  0.759178
H    -1.073310  -0.214163  -2.404671
H    -2.372176  0.714368  -1.800916
H    -0.819810  -2.395914  -1.506103
N    -1.333662  -0.963565  5.598222
C    -0.840090  -1.375333  6.918557
H    -2.074735  -1.515689  5.176069
H    -1.061182  -0.601374  7.663165
H    0.243021  -1.538320  6.882277
H    -1.341663  -2.304959  7.197781
Cd    1.096364  2.403606  4.439493
