36
Energy: -175311.460757 eV PBE+vdW (tier 2 basis)
C    0.650705  0.128932  1.225403
C    -0.057480  -0.198402  2.502886
O    0.572765  -0.844544  3.386976
H    0.036869  0.688780  0.512178
H    0.986586  -0.806100  0.757384
H    1.553132  0.708976  1.460847
N    -1.334930  0.226617  2.623776
C    -2.295896  0.026085  3.728554
C    -1.789524  0.743079  5.000296
O    -0.981053  0.200589  5.809361
H    -1.694808  0.726526  1.816323
H    -3.201861  0.552682  3.406102
C    -2.677333  -1.462594  3.917600
C    -3.554984  -1.773519  5.146141
C    -3.546822  -3.271078  5.566411
N    -2.891152  -3.521783  6.861594
C    -1.580171  -3.342079  7.116038
N    -1.185992  -3.057065  8.368126
N    -0.632798  -3.428589  6.155287
H    -1.772653  -2.089347  3.926568
H    -3.192789  -1.770291  2.996505
H    -4.587989  -1.466328  4.935647
H    -3.235870  -1.178184  6.012974
H    -3.094533  -3.901247  4.787267
H    -4.570487  -3.641456  5.681135
H    -3.503881  -3.705385  7.651322
H    -0.232753  -3.273715  8.639447
H    -1.848071  -2.854984  9.109071
H    -0.936479  -4.038274  5.394159
N    -2.225027  1.974371  5.249162
C    -3.147557  2.805721  4.468490
H    -1.824448  2.391882  6.089428
H    -2.744255  3.025144  3.472184
H    -3.270360  3.754869  4.997319
H    -4.136790  2.339226  4.383418
Cd    0.121122  -1.644713  5.333150
