36
Energy: -175308.416546 eV PBE+vdW (tier 2 basis)
C    -0.142368  0.056788  0.197974
C    -0.074971  -0.107236  1.681853
O    0.505156  -1.119203  2.169958
H    -0.060265  1.099985  -0.118659
H    -1.102704  -0.339415  -0.171015
H    0.651390  -0.543300  -0.258832
N    -0.640754  0.804658  2.521022
C    -1.985093  1.389659  2.346875
C    -2.981361  0.222594  2.096445
O    -2.709499  -0.958821  2.467107
H    -0.388335  0.634650  3.493800
H    -2.249992  1.750236  3.354595
C    -2.073897  2.616652  1.419541
C    -1.206562  3.808068  1.886035
C    0.175624  3.958912  1.218460
N    0.119080  4.381419  -0.176918
C    -0.153379  5.644604  -0.643046
N    -0.360831  6.649345  0.243902
N    -0.279669  5.952149  -1.918472
H    -3.119104  2.957549  1.431430
H    -1.860800  2.350234  0.375107
H    -1.045791  3.753804  2.973233
H    -1.775170  4.732928  1.721204
H    0.738166  3.017833  1.249157
H    0.778410  4.676338  1.799100
H    0.422754  3.729688  -0.890467
H    -0.519636  7.567252  -0.161470
H    -0.066824  6.607911  1.211605
H    -0.091574  5.160620  -2.543745
N    -4.153552  0.485769  1.537257
C    -5.211892  -0.514857  1.359054
H    -4.343059  1.434794  1.231952
H    -6.090288  -0.015650  0.942752
H    -5.471329  -0.966444  2.323340
H    -4.881959  -1.302869  0.671860
Cd    -1.060519  -2.293235  3.299343
