36
Energy: -175308.503248 eV PBE+vdW (tier 2 basis)
C    -0.053628  0.327012  1.976847
C    -0.966938  1.203912  2.767353
O    -0.663501  1.459241  3.973964
H    -0.024990  0.588889  0.916870
H    -0.361183  -0.725611  2.077192
H    0.948604  0.405320  2.413728
N    -2.078062  1.789319  2.237265
C    -3.163758  1.150966  1.475911
C    -3.964143  0.278239  2.480218
O    -3.415517  -0.136025  3.549432
H    -2.425390  2.528560  2.850304
H    -3.812360  1.982124  1.159404
C    -2.747716  0.374117  0.210551
C    -2.209985  1.295106  -0.895152
C    -1.693916  0.555570  -2.147731
N    -0.417362  -0.121016  -1.948388
C    -0.200343  -1.405709  -1.516966
N    -1.236787  -2.296830  -1.573826
N    0.917133  -1.810632  -0.962494
H    -3.637606  -0.151749  -0.162547
H    -2.036448  -0.418808  0.470041
H    -1.406163  1.940433  -0.509254
H    -3.010326  1.976124  -1.223860
H    -1.550255  1.286107  -2.954957
H    -2.443129  -0.158683  -2.512956
H    0.416201  0.456351  -2.007219
H    -0.965542  -3.246704  -1.332889
H    -1.913341  -2.226003  -2.326559
H    1.678811  -1.127160  -1.026491
N    -5.224919  -0.050125  2.221886
C    -6.058591  0.274078  1.064195
H    -5.652676  -0.638814  2.938255
H    -5.709251  1.185015  0.569024
H    -7.082858  0.444993  1.412302
H    -6.068574  -0.554702  0.344039
Cd    -2.293370  0.741270  5.312181
