36
Energy: -175310.415531 eV PBE+vdW (tier 2 basis)
C    1.928324  0.703308  2.775729
C    1.019445  1.417385  1.836532
O    1.421470  2.532424  1.344773
H    2.602840  1.428785  3.241601
H    2.544899  -0.006563  2.201858
H    1.385708  0.146976  3.548144
N    -0.180061  0.913513  1.517913
C    -0.736821  -0.415834  1.821349
C    0.157323  -1.512404  1.202321
O    0.807443  -1.279532  0.165281
H    -0.804564  1.524893  0.996388
H    -0.766134  -0.528164  2.913754
C    -2.204017  -0.492765  1.296190
C    -2.555084  -1.227566  -0.016615
C    -1.946351  -0.805125  -1.371082
N    -1.899712  0.650761  -1.574720
C    -0.808958  1.404160  -1.711752
N    0.479693  0.860463  -1.531097
N    -0.795100  2.725888  -1.890575
H    -2.599751  0.535620  1.274631
H    -2.797215  -0.986001  2.076602
H    -3.650891  -1.171294  -0.093236
H    -2.335139  -2.300836  0.084786
H    -2.551130  -1.241626  -2.177489
H    -0.932070  -1.192501  -1.490609
H    -2.795866  1.134913  -1.612436
H    1.002754  0.792893  -2.407265
H    0.569143  -0.009009  -0.947952
H    -1.659275  3.210331  -2.136108
N    0.174772  -2.708728  1.802591
C    -0.521209  -3.130029  3.020764
H    0.746810  -3.402622  1.323640
H    -1.611282  -3.121973  2.892813
H    -0.218842  -4.156662  3.244653
H    -0.244752  -2.508083  3.881959
Cd    0.871543  3.140656  -0.609880
