36
Energy: -175309.53123 eV PBE+vdW (tier 2 basis)
C    -0.371699  0.390060  -0.557493
C    -0.136030  0.604325  0.895978
O    1.015733  0.983231  1.296988
H    -1.321013  -0.110385  -0.767338
H    0.454995  -0.225264  -0.941705
H    -0.316321  1.346201  -1.097385
N    -1.115893  0.389555  1.809444
C    -2.484831  0.921937  1.746636
C    -2.457992  2.436425  2.087395
O    -1.508870  2.919820  2.890076
H    -0.768337  0.315823  2.768397
H    -2.827378  0.841788  0.707660
C    -3.408390  0.114515  2.685119
C    -4.015565  -1.147636  2.034234
C    -5.504929  -1.004366  1.679598
N    -5.758056  0.234722  0.932381
C    -6.630163  1.205919  1.260309
N    -7.786494  0.902293  1.862621
N    -6.297195  2.469931  0.972157
H    -4.203286  0.784141  3.037564
H    -2.837248  -0.154350  3.585414
H    -3.929373  -2.010219  2.707497
H    -3.444179  -1.425709  1.134594
H    -6.103439  -0.959967  2.599104
H    -5.843767  -1.876386  1.103591
H    -5.105108  0.482515  0.196544
H    -8.359019  1.622105  2.288540
H    -8.191057  -0.023710  1.780339
H    -6.998028  3.202530  0.957756
N    -3.433362  3.148280  1.650996
C    -3.457712  4.591209  1.837721
H    -5.297811  2.730257  1.020062
H    -4.028076  5.048119  1.019391
H    -2.456377  5.038079  1.879119
H    -3.976050  4.835798  2.778244
Cd    0.568991  2.631217  2.695725
