36
Energy: -175311.767959 eV PBE+vdW (tier 2 basis)
C    -0.110939  0.781296  0.435786
C    -0.547713  0.567594  1.852432
O    0.159370  -0.162736  2.599806
H    -0.791863  1.410894  -0.146246
H    -0.004440  -0.193763  -0.056900
H    0.885902  1.243189  0.443960
N    -1.682088  1.186829  2.245907
C    -2.319298  1.272446  3.578592
C    -1.298000  1.675697  4.667963
O    -0.616054  0.823433  5.309062
H    -2.138556  1.733265  1.521712
H    -3.006876  2.120728  3.475320
C    -3.185961  0.047465  4.023766
C    -2.986039  -1.282228  3.278636
C    -3.472159  -2.524552  4.042269
N    -2.992029  -2.694122  5.434815
C    -1.842444  -3.332945  5.799472
N    -1.906401  -4.197325  6.826295
N    -0.693483  -3.078868  5.166548
H    -4.240250  0.337730  3.932943
H    -3.015721  -0.102161  5.100669
H    -1.942433  -1.443682  2.963007
H    -3.530171  -1.266264  2.323035
H    -3.214452  -3.420063  3.460521
H    -4.566197  -2.497582  4.117834
H    -3.734665  -2.752825  6.124466
H    -2.779171  -4.636464  7.099216
H    -1.068440  -4.506015  7.307202
H    0.037723  -3.764236  5.348978
N    -1.193196  2.970579  4.935799
C    -0.285577  3.548352  5.928693
H    -1.808689  3.611945  4.442872
H    -0.837921  3.802465  6.842365
H    0.162532  4.457815  5.514802
H    0.495816  2.823259  6.167325
Cd    -0.198676  -1.152795  4.500638
