36
Energy: -175310.760173 eV PBE+vdW (tier 2 basis)
C    0.339348  0.151609  1.077047
C    -0.736885  -0.201168  2.040811
O    -0.458153  -0.702353  3.166608
H    0.816199  1.093861  1.390794
H    -0.015053  0.242211  0.046165
H    1.120515  -0.617521  1.139281
N    -2.052045  0.018200  1.719528
C    -2.563486  1.284125  1.191059
C    -2.132909  2.420332  2.150715
O    -1.861177  2.182643  3.371135
H    -2.704506  -0.489714  2.315045
H    -2.119582  1.454357  0.200678
C    -4.105873  1.242934  1.027619
C    -4.945869  1.334183  2.323416
C    -5.392948  -0.001136  2.968874
N    -5.723927  0.175335  4.390387
C    -4.788996  0.242914  5.363751
N    -4.987695  1.037357  6.423421
N    -3.646338  -0.483229  5.312839
H    -4.354971  0.343506  0.444794
H    -4.376490  2.087331  0.381698
H    -5.850850  1.915457  2.103375
H    -4.404097  1.922111  3.079619
H    -4.636234  -0.791616  2.882997
H    -6.281776  -0.402235  2.467662
H    -6.653154  0.533215  4.600428
H    -4.490065  0.837377  7.285231
H    -5.750548  1.704788  6.466189
H    -3.802235  -1.365844  4.821119
N    -2.061018  3.668219  1.705340
C    -2.332924  4.194984  0.365873
H    -1.801178  4.350248  2.419111
H    -1.650337  5.029727  0.177056
H    -3.365098  4.560891  0.291446
H    -2.160731  3.434735  -0.401794
Cd    -1.827488  0.311560  4.590820
