36
Energy: -175308.646146 eV PBE+vdW (tier 2 basis)
C    -0.493491  1.964041  -0.604053
C    -0.473491  1.898238  0.881600
O    0.210849  2.738908  1.551088
H    0.524461  2.197766  -0.945795
H    -1.120463  2.807155  -0.933866
H    -0.836212  1.025144  -1.059083
N    -1.161070  0.934611  1.543793
C    -2.561189  0.588126  1.288763
C    -3.398519  1.746477  1.883149
O    -2.939735  2.426458  2.864990
H    -0.898718  0.843531  2.526707
H    -2.694799  0.517655  0.201620
C    -2.844877  -0.777012  1.964688
C    -4.105945  -1.561793  1.583217
C    -4.185170  -2.114062  0.141186
N    -3.009411  -2.852625  -0.290721
C    -1.934404  -2.289875  -0.926504
N    -0.765601  -2.979624  -0.913491
N    -1.935333  -1.104098  -1.515381
H    -2.852318  -0.624452  3.055312
H    -1.959884  -1.393820  1.749623
H    -5.020638  -0.983542  1.778307
H    -4.157729  -2.413044  2.277575
H    -4.375324  -1.313130  -0.585722
H    -5.050151  -2.785982  0.070653
H    -2.921825  -3.807849  0.045452
H    -0.063340  -2.702509  -1.590814
H    -0.695268  -3.917985  -0.537261
H    -2.894543  -0.806891  -1.718514
N    -4.606292  2.044731  1.423999
C    -5.365377  1.469606  0.315529
H    -5.060300  2.806562  1.931896
H    -4.714633  0.874984  -0.329496
H    -5.790571  2.287007  -0.278027
H    -6.185345  0.843150  0.687403
Cd    -1.015353  3.491162  3.240559
