36
Energy: -175311.087886 eV PBE+vdW (tier 2 basis)
C    0.818265  0.209923  0.640196
C    0.658139  -0.211810  2.068018
O    1.713742  -0.492673  2.742259
H    0.455432  -0.586098  -0.027634
H    1.874897  0.383072  0.419873
H    0.245928  1.120042  0.417044
N    -0.509056  -0.332638  2.722560
C    -1.815168  -0.224699  2.086041
C    -2.278736  1.231887  2.168115
O    -1.630822  2.018418  2.982108
H    -0.877620  1.458995  3.324173
H    -1.786181  -0.505754  1.019099
C    -2.821092  -1.142503  2.834086
C    -2.667560  -2.642456  2.498577
C    -2.707370  -3.569976  3.724693
N    -1.438302  -3.496709  4.455279
C    -1.203114  -3.116314  5.737753
N    -2.143581  -3.331729  6.672191
N    -0.040544  -2.509628  5.998342
H    -3.850709  -0.826508  2.618582
H    -2.666332  -0.960730  3.908676
H    -1.722623  -2.825832  1.963306
H    -3.462929  -2.951209  1.807310
H    -2.889637  -4.605766  3.407349
H    -3.521981  -3.287170  4.403641
H    -0.611468  -3.770198  3.932744
H    -2.060924  -2.915855  7.593131
H    -2.818629  -4.081865  6.567844
H    0.258380  -2.504277  6.972070
N    -3.282849  1.709638  1.485023
C    -3.794092  3.087901  1.536890
H    -3.762083  1.063127  0.860067
H    -3.909043  3.457858  0.512335
H    -3.091405  3.719781  2.084238
H    -4.769546  3.096506  2.038263
Cd    0.726420  -1.300502  4.473559
