36
Energy: -175308.661388 eV PBE+vdW (tier 2 basis)
C    -0.991976  -1.186907  0.563648
C    -0.343412  -0.247834  1.521682
O    0.853851  -0.453701  1.890515
H    -0.569029  -1.049930  -0.442931
H    -2.080955  -1.087017  0.531397
H    -0.729401  -2.210172  0.866158
N    -1.020054  0.815184  2.030006
C    -1.809003  1.751629  1.232383
C    -0.806401  2.762840  0.610482
O    0.395179  2.835160  1.027970
H    -0.536744  1.256895  2.812724
H    -2.276079  1.184293  0.415045
C    -2.926856  2.416324  2.064562
C    -2.459005  3.383422  3.158567
C    -3.632800  4.113872  3.851722
N    -4.487134  4.863075  2.936662
C    -4.101179  5.911589  2.137844
N    -2.948338  6.571609  2.461174
N    -4.711160  6.254829  1.029230
H    -3.525339  1.601278  2.497533
H    -3.589732  2.948154  1.369821
H    -1.768211  4.130854  2.739486
H    -1.911859  2.856207  3.955253
H    -3.235749  4.776643  4.635939
H    -4.281156  3.393246  4.365413
H    -5.410228  4.489474  2.744116
H    -2.784063  7.406820  1.905469
H    -2.671769  6.643502  3.434993
H    -5.609396  5.779880  0.892182
N    -1.197201  3.587287  -0.353303
C    -2.507446  3.736223  -0.989912
H    -0.462857  4.219255  -0.675331
H    -2.348143  3.993707  -2.042296
H    -3.087234  4.541684  -0.516855
H    -3.071976  2.799616  -0.951980
Cd    2.029327  1.438020  1.743181
