36
Energy: -175308.766195 eV PBE+vdW (tier 2 basis)
C    -0.883095  0.564310  -0.195642
C    -0.889844  0.143979  1.234653
O    -0.109627  -0.777830  1.622728
H    0.012109  1.170208  -0.403074
H    -1.781502  1.116828  -0.486203
H    -0.790218  -0.338332  -0.814211
N    -1.733937  0.722153  2.129024
C    -1.929047  2.164858  2.268641
C    -0.686600  2.722947  3.011423
O    0.100876  1.948168  3.643395
H    -1.772188  0.226084  3.021049
H    -1.975549  2.605449  1.262400
C    -3.229634  2.476831  3.035677
C    -4.493537  1.952767  2.342292
C    -5.811388  2.358973  3.038372
N    -6.220573  3.739246  2.820061
C    -5.854046  4.818051  3.576356
N    -6.276408  6.044784  3.169814
N    -5.068945  4.784443  4.638334
H    -3.292792  3.564562  3.172543
H    -3.147577  2.051529  4.050181
H    -4.471760  0.853804  2.301572
H    -4.525796  2.299457  1.297501
H    -5.761741  2.158801  4.119063
H    -6.621357  1.727064  2.653409
H    -6.792016  3.910619  1.997669
H    -6.107731  6.810101  3.814498
H    -7.026702  6.165741  2.499188
H    -4.942784  3.832036  4.992565
N    -0.450180  4.028953  3.025098
C    -1.227701  5.119500  2.434879
H    0.368190  4.296658  3.573633
H    -1.752132  4.785311  1.534047
H    -0.535408  5.917754  2.148599
H    -1.951930  5.521670  3.156332
Cd    0.985361  -0.123630  3.461499
