36
Energy: -175309.380135 eV PBE+vdW (tier 2 basis)
C    0.116750  1.017551  -0.191866
C    -0.133838  0.453455  1.161352
O    0.817097  -0.142624  1.782472
H    0.802214  1.875618  -0.128627
H    -0.801444  1.304096  -0.712407
H    0.642923  0.251937  -0.780391
N    -1.347153  0.550524  1.754317
C    -2.089661  1.810342  1.893847
C    -1.495078  2.585475  3.104286
O    -0.927678  1.833947  4.073367
H    -1.439319  -0.048296  2.576126
H    -1.918070  2.396865  0.982350
C    -3.611489  1.601545  2.043298
C    -4.133834  0.846302  3.278234
C    -4.091157  1.542191  4.646481
N    -4.898223  2.774788  4.696356
C    -4.620695  3.866356  5.438607
N    -5.635122  4.609179  5.907079
N    -3.358144  4.224400  5.698600
H    -3.946349  1.064156  1.145023
H    -4.084288  2.592207  1.990016
H    -3.621164  -0.120867  3.401473
H    -5.176269  0.565649  3.062561
H    -3.070714  1.785491  4.953907
H    -4.485136  0.840904  5.398495
H    -5.877123  2.667325  4.441297
H    -5.484033  5.551507  6.248621
H    -6.572450  4.233935  5.994907
H    -3.176080  4.951886  6.380481
N    -1.626019  3.836937  3.297614
C    -2.306833  4.752524  2.402598
H    -2.583281  3.976459  5.068231
H    -1.764641  5.705051  2.402268
H    -3.324952  4.963471  2.765492
H    -2.393790  4.396658  1.363700
Cd    0.851445  0.759993  3.779729
