36
Energy: -175308.890371 eV PBE+vdW (tier 2 basis)
C    0.480831  1.468436  0.726827
C    -0.163998  1.044541  2.007580
O    -0.722986  1.906460  2.764543
H    1.197486  2.276717  0.921994
H    -0.298277  1.893879  0.077528
H    0.986285  0.655634  0.192937
N    -0.158337  -0.259298  2.311637
C    -0.846284  -0.960643  3.399629
C    -0.566547  -0.372779  4.789036
O    0.443567  0.371338  5.010472
H    0.289862  -0.883280  1.634044
H    -1.933377  -0.874167  3.227136
C    -0.424505  -2.456261  3.360667
C    -1.188715  -3.363262  2.377677
C    -1.240784  -2.942494  0.904763
N    0.089777  -2.657155  0.364584
C    0.328347  -1.963251  -0.815589
N    -0.750725  -1.467693  -1.485880
N    1.517441  -1.635443  -1.247663
H    -0.547415  -2.889009  4.361072
H    0.660295  -2.483685  3.176505
H    -2.229221  -3.481940  2.713919
H    -0.742656  -4.366493  2.454043
H    -1.849823  -2.033036  0.783257
H    -1.745597  -3.739811  0.331898
H    0.826980  -3.315214  0.608775
H    -0.522265  -0.982302  -2.349707
H    -1.642643  -1.949928  -1.472949
H    2.279576  -2.062755  -0.711415
N    -1.384158  -0.691728  5.788641
C    -2.558895  -1.564530  5.797114
H    -1.091567  -0.319362  6.692963
H    -3.065672  -1.550973  4.826942
H    -3.256884  -1.197110  6.556034
H    -2.280591  -2.596894  6.048187
Cd    0.300701  2.519349  4.586785
