36
Energy: -175311.620807 eV PBE+vdW (tier 2 basis)
C    0.261644  0.342184  0.784533
C    -0.406105  0.246809  2.116476
O    0.164930  0.739220  3.131082
H    0.445809  1.400204  0.554069
H    -0.321629  -0.108775  -0.025102
H    1.243543  -0.146332  0.842809
N    -1.613813  -0.365160  2.183007
C    -2.376480  -0.440004  3.421366
C    -1.846175  -1.569585  4.335198
O    -1.023233  -1.280401  5.252864
H    -2.012712  -0.728527  1.321563
H    -2.115162  0.489800  3.947457
C    -3.898110  -0.330350  3.319107
C    -4.465484  0.021461  4.712765
C    -4.042750  1.413508  5.259050
N    -3.573393  1.374543  6.655704
C    -2.516758  2.046822  7.185193
N    -2.654971  2.509997  8.441482
N    -1.373108  2.234968  6.509995
H    -4.365851  -1.253949  2.947711
H    -4.145098  0.455928  2.590202
H    -4.160261  -0.750377  5.435599
H    -5.559514  -0.032126  4.663232
H    -4.896160  2.104281  5.203062
H    -3.252522  1.885698  4.661869
H    -4.287824  1.121695  7.333847
H    -1.846584  2.765808  8.997318
H    -3.566483  2.679985  8.852749
H    -0.798709  2.969705  6.919328
N    -2.249098  -2.812280  4.116123
C    -1.785504  -3.987975  4.858192
H    -2.932622  -2.968431  3.379945
H    -2.612950  -4.413283  5.438959
H    -0.980037  -3.688270  5.532112
H    -1.417410  -4.741096  4.152265
Cd    -0.408662  0.847098  5.247907
