36
Energy: -175310.689035 eV PBE+vdW (tier 2 basis)
C    -2.254440  -2.320861  -0.450257
C    -0.934366  -1.634400  -0.567738
O    -0.103677  -2.104795  -1.440225
H    -2.323887  -3.110613  -1.202713
H    -3.080014  -1.609220  -0.590096
H    -2.368667  -2.772759  0.545992
N    -0.620556  -0.585462  0.188578
C    -1.389174  0.022165  1.280753
C    -1.046488  1.531446  1.202162
O    0.019681  1.867079  0.653928
H    0.139032  0.060070  -0.088059
H    -2.459540  -0.131595  1.088772
C    -1.048674  -0.589270  2.667801
C    0.222282  -0.152908  3.425518
C    1.608533  -0.599466  2.921462
N    2.193936  0.349639  1.964883
C    2.719590  0.075446  0.771743
N    2.706096  1.035089  -0.188285
N    3.196457  -1.142110  0.409768
H    -1.062300  -1.685347  2.563893
H    -1.898066  -0.354396  3.325638
H    0.120365  -0.569817  4.437104
H    0.224687  0.938729  3.576334
H    1.561326  -1.587424  2.442105
H    2.289048  -0.691777  3.779116
H    2.035631  1.334976  2.168397
H    3.492557  1.091896  -0.828484
H    2.145454  1.873287  -0.048482
H    3.460164  -1.755357  1.181114
N    -1.912799  2.370275  1.773992
C    -1.740193  3.822489  1.830647
H    -2.768713  1.987094  2.165330
H    -2.621507  4.315139  1.404547
H    -0.856797  4.094156  1.247744
H    -1.612603  4.151788  2.869169
Cd    1.934382  -1.879315  -1.070752
