36
Energy: -175310.431133 eV PBE+vdW (tier 2 basis)
C    0.748156  3.128556  1.990529
C    0.501039  1.665818  2.085690
O    1.338244  0.900961  2.643465
H    0.703089  3.578296  2.993965
H    0.060845  3.642620  1.312882
H    1.782165  3.275382  1.645937
N    -0.650179  1.116893  1.572683
C    -1.996095  1.608926  1.888468
C    -2.042821  1.915258  3.408025
O    -1.430083  1.173278  4.239673
H    -0.550213  0.118041  1.390853
H    -2.212613  2.515213  1.303006
C    -3.097854  0.543446  1.642026
C    -3.254307  -0.167137  0.280633
C    -2.330735  -1.372141  -0.043683
N    -2.021529  -2.181991  1.151370
C    -0.823062  -2.195203  1.767096
N    0.284407  -1.916542  1.023018
N    -0.643518  -2.362553  3.094991
H    -4.045560  1.063702  1.837677
H    -3.020074  -0.206611  2.445265
H    -3.175175  0.544584  -0.553476
H    -4.292170  -0.528462  0.257936
H    -1.387498  -1.024909  -0.477992
H    -2.811660  -2.001998  -0.802199
H    -2.817651  -2.439224  1.729480
H    1.174314  -2.157469  1.451818
H    0.255914  -2.085130  0.021947
H    -1.500967  -2.648671  3.572975
N    -2.775439  2.943455  3.805229
C    -3.010877  3.335601  5.197435
H    -3.228592  3.501617  3.084831
H    -2.420769  2.694100  5.855079
H    -4.075989  3.228788  5.436122
H    -2.715692  4.382003  5.336036
Cd    0.036744  -0.458783  3.873755
