36
Energy: -175310.234157 eV PBE+vdW (tier 2 basis)
C    -0.183058  0.682591  -0.110107
C    -0.182164  0.429883  1.364333
O    0.883471  -0.070897  1.866383
H    0.003608  -0.272437  -0.622075
H    0.651691  1.347212  -0.367593
H    -1.122128  1.106703  -0.480343
N    -1.290915  0.729766  2.056220
C    -1.781784  0.360014  3.417301
C    -1.314014  1.257204  4.578701
O    -0.036217  1.386997  4.925261
H    -2.004731  1.178748  1.489052
H    -2.851966  0.580668  3.341851
C    -1.647707  -1.148312  3.720053
C    -2.297761  -1.599480  5.042537
C    -3.827528  -1.527299  5.145213
N    -4.319486  -0.157705  5.329832
C    -5.599758  0.173083  5.511081
N    -6.558389  -0.761017  5.585460
N    -5.931433  1.473512  5.595165
H    -0.590020  -1.456655  3.748394
H    -2.084517  -1.700726  2.874838
H    -1.849276  -1.071428  5.897835
H    -2.033161  -2.656627  5.180053
H    -4.125465  -2.143362  6.009091
H    -4.287231  -1.970558  4.245593
H    -3.620387  0.619304  5.364160
H    -7.534059  -0.509267  5.686715
H    -6.333219  -1.745903  5.631710
H    -6.859412  1.770149  5.869459
N    -2.246292  1.808938  5.273335
C    -1.924417  2.603059  6.456209
H    -5.223069  2.189531  5.493308
H    -2.854083  2.873259  6.968239
H    -1.405401  3.530277  6.175344
H    -1.277294  2.057578  7.157841
Cd    1.447452  0.451640  3.842673
