36
Energy: -175308.511731 eV PBE+vdW (tier 2 basis)
C    -2.400455  0.268348  -0.685068
C    -1.094289  0.168272  0.027974
O    -0.013643  0.198923  -0.641109
H    -2.216240  0.499038  -1.738191
H    -3.047953  1.032278  -0.239742
H    -2.933272  -0.695148  -0.635402
N    -1.020072  0.038722  1.379945
C    -1.832914  -0.861681  2.215887
C    -1.572540  -2.311739  1.725203
O    -0.518798  -2.620126  1.074140
H    -0.083107  0.212390  1.741804
H    -1.348671  -0.810019  3.204709
C    -3.312549  -0.429980  2.394545
C    -3.822437  -0.371417  3.848302
C    -3.860700  -1.674397  4.651328
N    -4.669060  -2.699771  3.978392
C    -4.795476  -4.016603  4.438643
N    -3.965890  -4.416175  5.439545
N    -5.566205  -4.913034  3.888151
H    -3.970671  -1.046332  1.765605
H    -3.400137  0.589286  2.000906
H    -4.834494  0.060707  3.823564
H    -3.216537  0.347612  4.419029
H    -4.253641  -1.451462  5.658412
H    -2.845757  -2.082828  4.789809
H    -5.533578  -2.354892  3.562921
H    -4.088462  -5.379110  5.742056
H    -3.596169  -3.768805  6.125636
H    -6.165107  -4.537908  3.145531
N    -2.443778  -3.251394  2.040333
C    -2.269308  -4.670573  1.714291
H    -3.291569  -2.992907  2.569103
H    -3.119676  -5.221654  2.125002
H    -1.339319  -5.052411  2.151591
H    -2.235566  -4.813634  0.627693
Cd    1.104127  -1.638758  -0.090170
