36
Energy: -175308.809824 eV PBE+vdW (tier 2 basis)
C    -1.946784  0.792449  0.135020
C    -1.318672  0.519479  1.465409
O    -0.108712  0.856773  1.627857
H    -2.070130  1.878687  0.016742
H    -2.915697  0.298718  0.019298
H    -1.265895  0.461140  -0.658015
N    -2.070522  -0.061483  2.420944
C    -1.605954  -0.282829  3.790711
C    -0.584171  -1.448401  3.875559
O    0.644981  -1.173323  4.088995
H    -3.050913  -0.251888  2.179504
H    -0.989211  0.590845  4.052136
C    -2.726511  -0.345157  4.876047
C    -4.166883  -0.663290  4.442985
C    -5.014751  0.593625  4.134072
N    -6.261605  0.253808  3.464183
C    -6.310070  -0.278565  2.193210
N    -5.251952  0.108019  1.346529
N    -7.169550  -1.128689  1.747948
H    -2.719882  0.623227  5.394632
H    -2.402611  -1.069038  5.635363
H    -4.659094  -1.220522  5.251133
H    -4.199131  -1.332678  3.571909
H    -4.450854  1.310250  3.519973
H    -5.267011  1.119633  5.063383
H    -7.062565  0.045690  4.054682
H    -5.437982  -0.279348  0.419609
H    -5.159960  1.123630  1.281439
H    -7.917517  -1.381337  2.400974
N    -0.918045  -2.725896  3.767041
C    -2.229754  -3.348299  3.592896
H    -0.124063  -3.360306  3.867511
H    -2.068068  -4.375623  3.253735
H    -2.812300  -2.827436  2.826747
H    -2.787686  -3.379710  4.537096
Cd    1.484336  0.591652  3.115703
