36
Energy: -175308.90647 eV PBE+vdW (tier 2 basis)
C    0.109444  0.347796  -0.393756
C    0.078291  0.126340  1.079224
O    1.167808  -0.036733  1.714174
H    0.475388  1.362244  -0.612772
H    -0.861522  0.188622  -0.871692
H    0.848980  -0.341717  -0.823441
N    -1.096387  0.079446  1.755602
C    -2.188014  1.042978  1.610647
C    -1.762246  2.332069  2.352389
O    -0.824462  2.323320  3.219939
H    -1.007248  -0.290134  2.703657
H    -2.311215  1.269967  0.542219
C    -3.504741  0.459022  2.150940
C    -3.978931  -0.726157  1.303218
C    -5.419282  -1.164013  1.583056
N    -6.461652  -0.137692  1.462709
C    -6.684789  0.678696  0.375722
N    -7.980608  1.012921  0.137880
N    -5.651546  1.123286  -0.311113
H    -4.265780  1.248858  2.136199
H    -3.374385  0.174919  3.208148
H    -3.349164  -1.610039  1.481687
H    -3.882355  -0.468460  0.241297
H    -5.507357  -1.549573  2.607829
H    -5.653975  -2.006141  0.909265
H    -7.272501  -0.309977  2.050226
H    -8.204785  1.759377  -0.508196
H    -8.761536  0.517654  0.552641
H    -5.969257  1.625064  -1.147189
N    -2.392946  3.472793  2.114307
C    -3.514838  3.750125  1.216469
H    -2.048914  4.260223  2.666581
H    -3.786204  2.870510  0.625557
H    -3.236721  4.568329  0.541279
H    -4.388313  4.059230  1.804537
Cd    1.127116  1.277179  3.512161
