36
Energy: -175310.67687 eV PBE+vdW (tier 2 basis)
C    0.802735  -0.431925  2.038424
C    -0.148194  0.528507  2.692807
O    0.166206  1.767454  2.706422
H    0.844054  -0.218209  0.961423
H    0.528314  -1.480235  2.192089
H    1.813519  -0.251075  2.426399
N    -1.293025  0.164879  3.309290
C    -2.216478  -0.851021  2.847691
C    -3.365764  -0.142871  2.053388
O    -3.586077  1.107153  2.130367
H    -0.578408  0.028737  5.277403
H    -1.724083  -1.531499  2.131556
C    -2.811593  -1.676911  4.015140
C    -1.988114  -2.907742  4.423680
C    -0.682062  -2.674932  5.192499
N    -0.883908  -2.193077  6.566644
C    -0.498580  -1.010658  7.064584
N    -0.359043  -0.863202  8.390233
N    -0.263925  0.030312  6.252514
H    -3.813952  -2.029898  3.740422
H    -2.969770  -0.998183  4.867901
H    -1.736845  -3.497247  3.527959
H    -2.629033  -3.566632  5.028348
H    -0.011662  -1.973373  4.682898
H    -0.136256  -3.626226  5.262795
H    -1.228684  -2.874046  7.237673
H    -0.308292  0.054442  8.816540
H    -0.278610  -1.663098  9.007265
H    0.287030  0.814581  6.579635
N    -4.155602  -0.867834  1.269398
C    -4.131066  -2.304104  0.997572
H    -4.893651  -0.330514  0.813339
H    -3.126096  -2.715797  1.130324
H    -4.428009  -2.462614  -0.044306
H    -4.833163  -2.842028  1.648302
Cd    -2.004517  2.279921  3.134034
