36
Energy: -175311.823818 eV PBE+vdW (tier 2 basis)
C    0.369004  0.767279  0.458997
C    0.619057  0.855660  1.932630
O    1.735295  0.500489  2.397109
H    -0.655188  1.021246  0.166963
H    0.601649  -0.249914  0.117860
H    1.067933  1.440128  -0.056968
N    -0.392403  1.302387  2.705355
C    -0.463893  1.458052  4.173220
C    0.397658  2.664160  4.615499
O    1.668242  2.633824  4.650621
H    -1.239506  1.556505  2.205942
H    -1.514360  1.719729  4.352292
C    -0.149537  0.203478  5.033189
C    -0.485279  -1.177926  4.445351
C    0.490882  -2.275599  4.913136
N    1.854692  -1.959721  4.468138
C    2.966388  -1.823468  5.238669
N    3.149265  -2.668307  6.265223
N    3.815698  -0.829698  4.951475
H    -0.672212  0.345740  5.989369
H    0.916931  0.213768  5.312235
H    -0.472538  -1.152381  3.346363
H    -1.503554  -1.480369  4.722757
H    0.168319  -3.246412  4.512847
H    0.498234  -2.354846  6.008542
H    1.948704  -1.619757  3.513694
H    3.866519  -2.497934  6.961308
H    2.716860  -3.586174  6.263936
H    4.749481  -0.903169  5.351183
N    -0.236648  3.773523  4.960915
C    0.439211  5.003388  5.388090
H    -1.251658  3.781394  4.919707
H    1.156924  4.778599  6.184608
H    -0.315808  5.700023  5.760605
H    0.971832  5.458177  4.543885
Cd    2.899833  0.923795  4.241573
