36
Energy: -175309.633721 eV PBE+vdW (tier 2 basis)
C    -0.690190  0.502689  2.712833
C    -1.257366  -0.214168  3.889069
O    -0.547257  -0.347039  4.943943
H    -1.434007  1.136755  2.220869
H    -0.322737  -0.232589  1.978541
H    0.168110  1.098408  3.039880
N    -2.503360  -0.750662  3.873823
C    -3.103329  -1.605528  2.819520
C    -2.213273  -2.865780  2.664156
O    -1.754574  -3.456704  3.774619
H    -2.858504  -0.952782  4.808490
H    -4.041884  -1.950013  3.281011
C    -3.458688  -0.891609  1.509712
C    -4.679648  -1.537612  0.807896
C    -4.532171  -1.680790  -0.704798
N    -3.533770  -2.713089  -1.005705
C    -3.338711  -3.252068  -2.208942
N    -3.913824  -2.727996  -3.300349
N    -2.549538  -4.336050  -2.335336
H    -2.583709  -0.888422  0.845547
H    -3.689921  0.155947  1.740242
H    -5.576246  -0.936643  1.004540
H    -4.886792  -2.534675  1.224348
H    -4.237235  -0.715424  -1.150867
H    -5.498789  -1.974548  -1.140505
H    -2.956326  -3.027401  -0.204495
H    -3.902242  -3.214807  -4.188276
H    -4.359439  -1.819944  -3.279628
H    -2.297063  -4.697206  -3.246881
N    -2.032405  -3.374153  1.499178
C    -1.161903  -4.526083  1.316052
H    -2.354915  -4.925146  -1.536543
H    -1.752475  -5.453610  1.377637
H    -0.362559  -4.593118  2.064620
H    -0.709107  -4.474295  0.316830
Cd    -0.711057  -2.512775  5.332237
