36
Energy: -175310.401196 eV PBE+vdW (tier 2 basis)
C    0.319134  -1.072229  -0.406137
C    0.422350  -0.307939  0.878604
O    1.604752  0.012697  1.286523
H    1.281438  -1.061944  -0.925050
H    -0.454892  -0.660033  -1.066667
H    0.058987  -2.120768  -0.194970
N    -0.602064  0.066314  1.655119
C    -1.976628  -0.379541  1.458528
C    -2.671438  0.613746  0.525974
O    -2.084618  1.768702  0.354006
H    -1.215108  1.692480  0.837591
H    -2.029559  -1.379237  0.995283
C    -2.744018  -0.401868  2.819374
C    -2.602784  -1.674830  3.676053
C    -1.252161  -2.055279  4.312085
N    -0.929446  -1.503565  5.646836
C    -0.047222  -0.497100  5.855611
N    0.802259  -0.557947  6.885946
N    -0.021735  0.595853  5.056122
H    -3.819069  -0.287684  2.620806
H    -2.463110  0.510552  3.367048
H    -2.905009  -2.532666  3.055321
H    -3.356418  -1.621165  4.475232
H    -0.413909  -1.834827  3.636669
H    -1.249043  -3.144189  4.448705
H    -1.094618  -2.135037  6.427290
H    1.242415  0.295503  7.214343
H    0.965494  -1.409669  7.411931
H    -0.963276  0.734310  4.681856
N    -3.805612  0.423794  -0.094578
C    -4.659643  -0.765960  -0.073352
H    -4.137668  1.214203  -0.653578
H    -4.120011  -1.622827  0.337686
H    -4.963112  -0.996127  -1.100467
H    -5.556489  -0.571808  0.528345
Cd    1.067027  0.650604  3.255693
