36
Energy: -175310.139499 eV PBE+vdW (tier 2 basis)
C    -0.680598  1.571254  0.782382
C    -0.950209  1.320766  2.244368
O    -0.832248  2.431955  2.949497
H    0.211787  2.197122  0.667367
H    -1.516937  2.127265  0.335122
H    -0.523029  0.624554  0.254693
N    -1.259401  0.106074  2.630075
C    -1.563757  -0.147696  4.024076
C    -0.328646  -0.096800  4.959465
O    -0.265887  0.789145  5.892321
H    -2.560200  -0.529640  0.915649
H    -2.237424  0.651321  4.436541
C    -2.360769  -1.453666  4.261976
C    -3.584122  -1.592998  3.338422
C    -3.303118  -2.562589  2.175789
N    -4.253423  -2.456935  1.070292
C    -4.126526  -1.585521  0.060640
N    -4.969609  -1.640059  -0.980926
N    -3.156489  -0.662093  0.092585
H    -2.672544  -1.460247  5.314866
H    -1.704781  -2.325618  4.138516
H    -3.874173  -0.609044  2.940746
H    -4.447101  -1.955452  3.911452
H    -3.333075  -3.601153  2.528827
H    -2.293970  -2.402529  1.771569
H    -5.087629  -3.033869  1.095150
H    -4.990340  -0.911792  -1.683867
H    -5.594206  -2.425735  -1.116308
H    -2.927683  -0.136907  -0.741693
N    0.674257  -0.950009  4.852390
C    0.878727  -2.026659  3.882946
H    1.407472  -0.817481  5.551187
H    0.284807  -1.839490  2.984978
H    1.938944  -2.034090  3.606414
H    0.626664  -2.999940  4.323458
Cd    -1.090066  2.571022  5.018355
