36
Energy: -175308.539194 eV PBE+vdW (tier 2 basis)
C    0.127923  0.220555  0.463242
C    0.125811  0.142012  1.952591
O    1.233633  0.254707  2.564123
H    0.992023  0.824045  0.160989
H    -0.787952  0.646271  0.047570
H    0.283433  -0.785247  0.042102
N    -1.011460  0.008137  2.695338
C    -2.089233  -0.978686  2.527917
C    -1.508461  -2.361812  2.929282
O    -0.256118  -2.564518  2.893210
H    -0.819820  0.201471  3.679632
H    -2.845621  -0.702622  3.278478
C    -2.766988  -1.027345  1.144831
C    -3.495816  0.255422  0.716793
C    -4.797979  0.578663  1.488268
N    -5.742777  -0.518794  1.541784
C    -6.466252  -1.081760  0.518613
N    -6.555567  -0.416338  -0.662261
N    -6.977397  -2.258647  0.808209
H    -3.486591  -1.857170  1.160044
H    -2.031149  -1.308442  0.381938
H    -3.726740  0.154602  -0.352718
H    -2.844955  1.137183  0.808342
H    -5.261218  1.471035  1.037540
H    -4.585768  0.860932  2.527562
H    -5.867793  -1.033088  2.407487
H    -7.142436  -0.807001  -1.390737
H    -6.393806  0.583534  -0.721474
H    -7.532955  -2.652685  0.041356
N    -2.324483  -3.347421  3.290871
C    -3.784138  -3.351550  3.400676
H    -1.845888  -4.222934  3.505149
H    -4.142571  -2.400880  3.811928
H    -4.070518  -4.145776  4.096566
H    -4.268591  -3.545396  2.434460
Cd    1.649335  -1.617517  3.694767
