36
Energy: -175309.147033 eV PBE+vdW (tier 2 basis)
C    0.229735  -0.021416  -0.022916
C    0.056112  -0.125597  1.462001
O    1.033239  -0.537050  2.148238
H    -0.661030  0.341445  -0.546562
H    0.495680  -1.013964  -0.411977
H    1.077483  0.641950  -0.238325
N    -1.147386  0.218404  1.965457
C    -1.703337  0.075130  3.330450
C    -1.121091  1.138883  4.287001
O    0.026565  1.049071  4.813156
H    -1.810862  0.547819  1.270636
H    -2.767129  0.317018  3.201145
C    -1.618629  -1.357999  3.892553
C    -2.525337  -1.636636  5.101769
C    -4.009804  -1.877646  4.741985
N    -4.802734  -2.361190  5.856161
C    -4.842397  -3.673522  6.260829
N    -5.588315  -3.970162  7.355333
N    -4.200274  -4.678405  5.702624
H    -0.580004  -1.594419  4.177229
H    -1.852643  -2.049903  3.069819
H    -2.448390  -0.831885  5.849866
H    -2.149504  -2.541033  5.600568
H    -4.082113  -2.598808  3.913167
H    -4.494495  -0.958602  4.383781
H    -5.270085  -1.668193  6.431431
H    -5.644645  -4.950180  7.612421
H    -6.249649  -3.328288  7.774933
H    -3.722426  -4.416760  4.836230
N    -1.887465  2.185654  4.567730
C    -1.468339  3.289538  5.438081
H    -2.804807  2.243533  4.136418
H    -2.316442  3.965614  5.571583
H    -0.633662  3.837200  4.983668
H    -1.150386  2.901215  6.412168
Cd    1.685364  -0.281947  4.220084
