36
Energy: -175310.557855 eV PBE+vdW (tier 2 basis)
C    -0.021163  1.209830  1.559575
C    0.093779  -0.214079  1.963733
O    0.868620  -0.567617  2.898343
H    -0.265102  1.834414  2.428837
H    -0.731282  1.371621  0.743447
H    0.975673  1.535554  1.219804
N    -0.630077  -1.185670  1.315737
C    -2.084060  -1.177050  1.124717
C    -2.712411  -0.567802  2.395800
O    -2.221887  -0.844108  3.534725
H    -0.220512  -2.114504  1.403331
H    -2.344688  -0.610424  0.222971
C    -2.662909  -2.639070  1.039217
C    -1.732006  -3.782593  0.597761
C    -2.143521  -5.173362  1.126705
N    -2.520686  -5.256397  2.552447
C    -1.954054  -4.657230  3.617377
N    -2.698798  -4.505253  4.736958
N    -0.708824  -4.155240  3.619565
H    -3.533688  -2.600427  0.372992
H    -3.059202  -2.885605  2.033643
H    -0.684927  -3.619047  0.890301
H    -1.698351  -3.861310  -0.497077
H    -1.339573  -5.890357  0.904472
H    -3.028831  -5.526798  0.583825
H    -3.317165  -5.856734  2.747814
H    -2.223386  -4.503502  5.633294
H    -3.681731  -4.754692  4.750872
H    -0.091138  -4.596687  2.940163
N    -3.787376  0.202016  2.299135
C    -4.484648  0.633266  1.080518
H    -4.162711  0.521403  3.192091
H    -3.825855  1.223900  0.432266
H    -5.321247  1.269404  1.381423
H    -4.889859  -0.221329  0.525880
Cd    -0.376301  -2.085328  3.946958
