36
Energy: -175308.724549 eV PBE+vdW (tier 2 basis)
C    -0.003364  -0.295491  0.316797
C    0.284161  0.202928  1.692788
O    1.482656  0.304895  2.088585
H    0.198845  0.499674  -0.417208
H    -1.028530  -0.658053  0.195622
H    0.703459  -1.105048  0.092617
N    -0.728298  0.536837  2.538356
C    -1.861929  1.382926  2.165881
C    -1.332090  2.837860  2.076957
O    -0.243537  3.167498  2.643034
H    -0.407193  0.703673  3.493475
H    -2.216482  1.066877  1.174630
C    -3.001050  1.245912  3.196837
C    -3.634400  -0.150777  3.198854
C    -4.703686  -0.347504  4.293892
N    -5.869263  0.518704  4.169722
C    -6.885500  0.408249  3.255206
N    -6.902114  -0.667157  2.420489
N    -7.821365  1.315649  3.075877
H    -3.765579  2.005020  2.982179
H    -2.599833  1.493291  4.194195
H    -2.863715  -0.918183  3.363483
H    -4.073511  -0.356814  2.210635
H    -4.271866  -0.157271  5.284980
H    -5.017861  -1.403288  4.305297
H    -5.981040  1.263542  4.848183
H    -7.723507  -0.730457  1.825651
H    -6.456196  -1.541940  2.670821
H    -7.784706  2.072496  3.767490
N    -2.029944  3.761421  1.424843
C    -3.316384  3.642479  0.739023
H    -1.610824  4.692165  1.449319
H    -3.287494  4.259995  -0.165079
H    -4.135637  3.996633  1.378459
H    -3.510025  2.608234  0.439946
Cd    1.852240  2.336878  2.980669
