36
Energy: -175308.421623 eV PBE+vdW (tier 2 basis)
C    -0.601638  -0.919152  1.886963
C    -0.483844  0.062541  3.009307
O    0.321542  -0.132993  3.988944
H    0.343252  -0.934629  1.323209
H    -1.410031  -0.696888  1.185629
H    -0.761292  -1.922672  2.301602
N    -1.211660  1.171923  3.061074
C    -2.293319  1.641002  2.194100
C    -2.231715  3.189344  2.352550
O    -2.070760  3.632707  3.491257
H    -1.057896  1.796841  3.864369
H    -2.102648  1.324847  1.162105
C    -3.666045  1.121007  2.696750
C    -4.867136  1.614728  1.886020
C    -6.234960  1.150061  2.430353
N    -6.612984  1.751036  3.701486
C    -6.457100  1.193186  4.938007
N    -6.890642  1.884991  6.018310
N    -5.866434  0.033163  5.189217
H    -3.753960  1.427360  3.750156
H    -3.626993  0.019962  2.679886
H    -4.805107  1.249441  0.849308
H    -4.871114  2.713893  1.832304
H    -6.271362  0.056025  2.524081
H    -7.013711  1.418853  1.704065
H    -6.987805  2.695598  3.655469
H    -6.787273  1.434735  6.921743
H    -7.493636  2.697169  5.957148
H    -5.689707  -0.503169  4.334069
N    -2.377303  3.966000  1.261822
C    -2.426283  3.567501  -0.143583
H    -2.296132  4.961277  1.463419
H    -2.661722  4.454939  -0.738314
H    -3.215086  2.828787  -0.328633
H    -1.462313  3.173358  -0.494346
Cd    2.183401  -1.267101  4.183463
