36
Energy: -175310.013226 eV PBE+vdW (tier 2 basis)
C    -2.066163  -0.480244  0.640317
C    -1.240062  -0.164640  1.865666
O    0.011911  -0.589976  1.691393
H    -3.077232  -0.074870  0.731948
H    -2.101194  -1.566779  0.485567
H    -1.585289  -0.048477  -0.246162
N    -1.825456  0.415739  2.870059
C    -1.212226  0.719166  4.173267
C    -0.185975  1.871875  4.121900
O    1.089674  1.698471  4.067646
H    -3.472889  -0.432877  3.211209
H    -2.034074  1.153975  4.760088
C    -0.739019  -0.539936  4.954103
C    -1.561082  -0.810052  6.225321
C    -3.069148  -0.995839  6.022693
N    -3.439099  -2.166050  5.212244
C    -4.239628  -2.144757  4.127665
N    -4.983221  -3.227211  3.849629
N    -4.291433  -1.067705  3.337134
H    0.315365  -0.445645  5.268934
H    -0.804377  -1.412237  4.288885
H    -1.433166  0.019279  6.937861
H    -1.149039  -1.696248  6.729891
H    -3.534247  -0.117878  5.557877
H    -3.542792  -1.106128  7.009010
H    -3.324465  -3.072929  5.656613
H    -5.404708  -3.355379  2.937110
H    -5.209094  -3.913071  4.560964
H    -5.036171  -1.000575  2.652702
N    -0.624449  3.117979  4.163816
C    -2.008343  3.591423  4.260578
H    0.108816  3.827776  4.130420
H    -2.029553  4.631430  3.921567
H    -2.365234  3.560204  5.298562
H    -2.661780  3.002134  3.609428
Cd    1.576065  0.007130  2.885865
