36
Energy: -175309.919065 eV PBE+vdW (tier 2 basis)
C    2.160899  0.105891  0.556925
C    1.298060  -0.070165  1.765819
O    1.840477  -0.591598  2.798560
H    1.631444  0.541354  -0.296941
H    2.557976  -0.878172  0.269178
H    3.025767  0.731138  0.814674
N    0.015052  0.312194  1.686454
C    -1.161838  0.032289  2.541222
C    -1.333586  0.935768  3.766759
O    -0.415162  1.188108  4.641785
H    -0.221954  0.755912  0.803064
H    -2.010802  0.305570  1.899949
C    -1.364997  -1.455577  2.908735
C    -1.828178  -2.318221  1.727865
C    -3.141478  -1.862759  1.069044
N    -4.285682  -1.781261  1.973643
C    -5.008052  -0.635850  2.185932
N    -6.323146  -0.805692  2.466396
N    -4.402521  0.540888  2.132196
H    -2.134097  -1.486907  3.694904
H    -0.454474  -1.899545  3.339554
H    -1.935522  -3.351314  2.088096
H    -1.057737  -2.356617  0.942654
H    -3.380820  -2.573838  0.264218
H    -3.043291  -0.880154  0.591104
H    -4.761670  -2.655346  2.175806
H    -6.881558  -0.027245  2.793185
H    -6.824883  -1.647775  2.208401
H    -5.092282  1.296202  2.096487
N    -2.538890  1.423163  3.918317
C    -2.968531  2.205933  5.073844
H    -3.273001  1.119914  3.178618
H    -2.658016  3.252949  4.961177
H    -2.533519  1.809090  5.997634
H    -4.060000  2.164525  5.129844
Cd    1.298696  -0.039737  4.784873
