36
Energy: -175309.031511 eV PBE+vdW (tier 2 basis)
C    -1.977626  -0.206353  -0.209333
C    -1.218851  -0.148715  1.066169
O    -0.039161  -0.627326  1.119297
H    -1.343397  0.095700  -1.050760
H    -2.916285  0.370576  -0.175215
H    -2.238692  -1.265166  -0.375422
N    -1.782983  0.354516  2.195261
C    -2.468026  1.642844  2.303663
C    -1.383694  2.733906  2.401030
O    -0.164226  2.470676  2.691694
H    -1.312211  0.067020  3.055711
H    -3.055369  1.800291  1.380541
C    -3.439695  1.662477  3.521701
C    -4.918105  1.601131  3.120914
C    -5.300983  0.344755  2.301950
N    -6.313363  0.599501  1.290109
C    -6.044691  1.231922  0.112801
N    -7.075315  1.395948  -0.753227
N    -4.805163  1.653942  -0.103436
H    -3.272258  2.566039  4.123231
H    -3.178226  0.821857  4.182650
H    -5.165729  2.489231  2.525443
H    -5.532408  1.660009  4.029012
H    -5.691603  -0.440597  2.959455
H    -4.422421  -0.077642  1.798257
H    -7.265821  0.312659  1.485481
H    -6.928534  1.857592  -1.641054
H    -8.007229  1.040998  -0.573335
H    -4.737503  2.084620  -1.030381
N    -1.718427  4.000577  2.206145
C    -3.042415  4.556140  1.920774
H    -0.951678  4.664150  2.323255
H    -3.582498  4.785620  2.848665
H    -3.631324  3.858962  1.313825
H    -2.906893  5.483950  1.356467
Cd    1.184514  0.769619  2.317461
