36
Energy: -175311.353463 eV PBE+vdW (tier 2 basis)
C    -3.106529  1.021711  1.245133
C    -2.125756  0.529228  2.264323
O    -0.900042  0.519073  1.979989
H    -4.151515  0.942629  1.562492
H    -2.965252  0.461235  0.312165
H    -2.878357  2.072889  1.020408
N    -2.626196  0.119013  3.452321
C    -1.927914  -0.349152  4.667269
C    -0.913844  0.721371  5.144813
O    0.297082  0.740868  4.761091
H    -3.637067  0.169607  3.531731
H    -2.725998  -0.375940  5.415849
C    -1.297231  -1.783639  4.632570
C    -1.522361  -2.620183  3.365402
C    -0.784102  -3.975322  3.345044
N    0.630544  -3.978893  3.767230
C    1.584413  -3.079412  3.465123
N    2.671029  -2.993506  4.259350
N    1.493713  -2.217418  2.430052
H    -1.694750  -2.328669  5.499625
H    -0.220042  -1.693950  4.840916
H    -1.268570  -2.044206  2.465294
H    -2.588617  -2.863213  3.253871
H    -0.880285  -4.416980  2.341905
H    -1.280873  -4.670568  4.033237
H    0.904056  -4.758495  4.359332
H    3.528215  -2.624605  3.861431
H    2.752861  -3.529878  5.115836
H    0.885209  -2.571628  1.691249
N    -1.324165  1.645218  6.003918
C    -2.647533  1.815139  6.612868
H    -0.604855  2.321638  6.261881
H    -3.416879  1.992487  5.851573
H    -2.605943  2.694850  7.260869
H    -2.917547  0.952096  7.234312
Cd    0.915028  -0.254821  2.939345
