36
Energy: -175309.155206 eV PBE+vdW (tier 2 basis)
C    -0.722695  -2.718659  0.781547
C    -0.689701  -1.524836  1.682643
O    0.190285  -0.639770  1.482527
H    -0.873505  -2.375327  -0.251187
H    -1.508238  -3.436340  1.041434
H    0.254334  -3.218299  0.810971
N    -1.612272  -1.445336  2.663480
C    -1.832911  -0.289812  3.535585
C    -0.781989  -0.222882  4.671441
O    0.183608  0.605136  4.568063
H    -2.275316  -2.212888  2.728218
H    -1.625135  0.610139  2.934169
C    -3.294752  -0.191964  4.005138
C    -4.267713  0.270865  2.912315
C    -5.723276  0.434847  3.402031
N    -6.409443  -0.805559  3.730474
C    -6.395622  -1.424313  4.952577
N    -7.023860  -2.628483  5.049014
N    -5.769268  -0.991230  6.029387
H    -3.316486  0.524703  4.840374
H    -3.620104  -1.154483  4.422711
H    -4.257225  -0.424217  2.058637
H    -3.947966  1.249897  2.522096
H    -6.305303  0.923414  2.610787
H    -5.762503  1.115092  4.266154
H    -6.939060  -1.241266  2.981746
H    -7.138019  -2.993119  5.989146
H    -7.690003  -2.945482  4.354061
H    -5.488963  -0.011015  5.937340
N    -0.842611  -0.973421  5.762771
C    -1.822695  -1.980798  6.180960
H    -0.078436  -0.791828  6.415412
H    -1.351566  -2.595244  6.953788
H    -2.091482  -2.638590  5.348137
H    -2.726082  -1.522069  6.602721
Cd    1.060903  1.047650  2.605417
