36
Energy: -175310.796915 eV PBE+vdW (tier 2 basis)
C    2.106284  -0.566586  2.143811
C    1.506843  -1.122376  0.882840
O    2.305294  -1.501557  -0.045232
H    1.348307  -0.272201  2.876853
H    2.712587  0.310234  1.880534
H    2.787918  -1.305532  2.582357
N    0.194621  -1.201787  0.644754
C    -0.885658  -1.508532  1.534507
C    -1.272315  -3.006119  1.259138
O    -1.048670  -3.576218  0.155309
H    -4.817491  4.855287  1.992071
H    -0.583992  -1.439827  2.595862
C    -2.068821  -0.541959  1.258653
C    -3.279216  -0.657625  2.192345
C    -4.412282  0.330161  1.890357
N    -4.043615  1.716439  2.214493
C    -4.720756  2.806176  1.816077
N    -5.853116  2.684640  1.113501
N    -4.244173  4.026801  2.100089
H    -2.387424  -0.685645  0.214170
H    -1.636785  0.468248  1.307158
H    -2.974469  -0.544701  3.247177
H    -3.730344  -1.657221  2.115802
H    -5.303137  0.037053  2.468758
H    -4.667017  0.285097  0.820817
H    -3.374354  1.850687  2.966424
H    -6.368891  1.814243  1.085181
H    -6.289740  3.491244  0.682242
H    -3.301542  4.161909  2.443815
N    -1.866050  -3.673838  2.243784
C    -2.279793  -5.076896  2.139863
H    -1.975499  -3.207227  3.138512
H    -1.411283  -5.716801  1.942869
H    -3.002068  -5.203061  1.325497
H    -2.740815  -5.373119  3.085585
Cd    0.547035  -2.497917  -1.090278
