36
Energy: -175308.644038 eV PBE+vdW (tier 2 basis)
C    -1.048528  -1.129587  -0.008627
C    -0.665716  -1.048313  1.427721
O    0.558003  -1.151344  1.760590
H    -0.869538  -0.156608  -0.493639
H    -2.089889  -1.441392  -0.165713
H    -0.370977  -1.839948  -0.500370
N    -1.601128  -0.880374  2.397673
C    -2.699969  0.078080  2.337360
C    -2.127947  1.447815  2.812228
O    -0.927364  1.583982  3.208030
H    -1.251958  -1.058051  3.340909
H    -2.992864  0.180769  1.281734
C    -3.917992  -0.408040  3.161329
C    -5.282364  0.146023  2.686694
C    -6.293631  -0.949044  2.271767
N    -5.761299  -1.926849  1.327356
C    -5.159422  -1.656170  0.123379
N    -5.413024  -0.434832  -0.450131
N    -4.280603  -2.435590  -0.454738
H    -3.759068  -0.183136  4.225029
H    -3.915731  -1.502626  3.072646
H    -5.145081  0.821254  1.827861
H    -5.765160  0.736610  3.476238
H    -7.199675  -0.468950  1.868279
H    -6.618293  -1.515991  3.152511
H    -5.677861  -2.885859  1.646769
H    -5.060623  -0.360773  -1.401351
H    -6.335517  -0.028297  -0.322625
H    -4.191119  -3.349211  0.001232
N    -2.936361  2.496249  2.812463
C    -2.536124  3.841049  3.243727
H    -3.899803  2.360202  2.520528
H    -3.365297  4.525341  3.047592
H    -1.653450  4.169921  2.684065
H    -2.304773  3.846724  4.315602
Cd    1.031897  0.489361  3.176517
