36
Energy: -175310.428387 eV PBE+vdW (tier 2 basis)
C    1.640926  0.378541  0.823849
C    1.157775  0.292539  2.247751
O    2.110079  0.681466  3.086660
H    0.827205  0.223283  0.109933
H    2.427499  -0.369069  0.655265
H    2.094858  1.362267  0.649204
N    -0.064158  -0.109459  2.481569
C    -0.708334  0.006162  3.791989
C    -0.519906  -1.253825  4.660327
O    0.478702  -1.373212  5.464753
H    -1.064514  -1.403320  -0.615855
H    -0.259822  0.826338  4.401479
C    -2.191209  0.397491  3.609522
C    -2.377661  1.697862  2.793667
C    -2.947705  1.498011  1.386344
N    -2.121380  0.563746  0.616717
C    -2.376374  0.179966  -0.632799
N    -3.350088  0.758414  -1.350424
N    -1.644733  -0.805279  -1.188747
H    -2.644676  0.508274  4.603451
H    -2.729575  -0.422874  3.106661
H    -1.425438  2.243755  2.722765
H    -3.068868  2.365112  3.322764
H    -2.984860  2.479727  0.887577
H    -3.978578  1.112234  1.448237
H    -1.295901  0.172004  1.124272
H    -3.605578  0.415472  -2.268309
H    -3.809620  1.601501  -1.031684
H    -1.737106  -1.046437  -2.167380
N    -1.386640  -2.243872  4.593425
C    -1.279642  -3.489330  5.361663
H    -2.198826  -2.116441  3.997214
H    -2.049624  -4.179279  5.007975
H    -1.429425  -3.292021  6.430141
H    -0.290009  -3.936004  5.216713
Cd    1.988217  0.056473  5.048472
