36
Energy: -175308.552189 eV PBE+vdW (tier 2 basis)
C    -0.090891  1.343157  1.063943
C    -0.225466  0.697126  2.406213
O    0.626524  0.911825  3.342982
H    -0.831908  1.005623  0.334710
H    0.912029  1.141808  0.665747
H    -0.195765  2.432320  1.177258
N    -1.214140  -0.137355  2.695616
C    -2.281089  -0.689141  1.857616
C    -3.408366  -1.010503  2.884279
O    -3.079568  -1.489977  3.969913
H    -1.240856  -0.525449  3.649801
H    -2.612957  0.064378  1.130407
C    -1.808123  -1.979878  1.146846
C    -2.898010  -2.711747  0.354654
C    -2.335039  -3.974050  -0.330809
N    -3.341983  -4.761983  -1.025820
C    -3.747862  -4.566507  -2.314961
N    -4.681308  -5.397841  -2.836264
N    -3.330102  -3.595288  -3.113787
H    -1.394292  -2.648140  1.917287
H    -0.973454  -1.707589  0.481224
H    -3.338472  -2.052021  -0.410447
H    -3.717658  -3.011728  1.023255
H    -1.878524  -4.634665  0.419106
H    -1.533549  -3.713470  -1.037460
H    -3.825212  -5.467949  -0.476552
H    -4.955623  -5.231559  -3.799289
H    -4.972709  -6.263287  -2.396906
H    -2.552962  -3.063684  -2.708462
N    -4.670947  -0.766887  2.493494
C    -5.827046  -1.012121  3.355636
H    -4.825097  -0.289885  1.611469
H    -6.134076  -0.093163  3.871739
H    -5.553502  -1.762605  4.102970
H    -6.661473  -1.378478  2.748342
Cd    2.029478  2.534215  3.749124
