36
Energy: -175309.195747 eV PBE+vdW (tier 2 basis)
C    -1.251922  0.664764  -0.185829
C    -0.961324  0.335947  1.245214
O    0.251930  0.114498  1.557736
H    -2.312990  0.848468  -0.384648
H    -0.909912  -0.173233  -0.809802
H    -0.662462  1.542060  -0.482408
N    -2.000198  0.284349  2.095708
C    -2.127517  -0.245239  3.475679
C    -1.606725  0.720749  4.549371
O    -0.378912  1.039686  4.710774
H    -2.892541  0.517564  1.667648
H    -3.212575  -0.269108  3.618836
C    -1.621279  -1.697068  3.615270
C    -1.727155  -2.344935  5.009504
C    -3.101904  -2.311091  5.724190
N    -4.246736  -2.522633  4.848088
C    -5.104664  -1.549147  4.389206
N    -5.178942  -0.370293  5.165853
N    -5.776170  -1.575301  3.286693
H    -0.576066  -1.784128  3.282905
H    -2.195615  -2.283300  2.883603
H    -0.996156  -1.901886  5.703911
H    -1.413874  -3.390943  4.884731
H    -3.242427  -1.355194  6.237304
H    -3.102500  -3.081436  6.508687
H    -4.310578  -3.417330  4.369604
H    -5.942999  0.199892  4.796998
H    -5.341417  -0.554630  6.157888
H    -5.691006  -2.448560  2.757706
N    -2.517816  1.210415  5.368387
C    -2.218735  2.122409  6.474841
H    -3.486258  0.866061  5.252558
H    -3.153983  2.358796  6.988554
H    -1.772214  3.048174  6.093391
H    -1.518641  1.657664  7.179944
Cd    1.239118  0.420208  3.438700
