36
Energy: -175309.429427 eV PBE+vdW (tier 2 basis)
C    2.045188  0.662869  2.117306
C    1.289490  -0.220289  3.062124
O    2.006141  -0.942400  3.849519
H    2.630613  1.387691  2.699695
H    1.383686  1.198620  1.428361
H    2.764334  0.054066  1.553939
N    -0.038224  -0.163683  3.019853
C    -1.077262  -1.024858  3.620802
C    -1.196564  -0.870266  5.152362
O    -0.498290  -1.524956  5.998408
H    -0.443722  0.343320  2.170071
H    -2.007061  -0.593109  3.232936
C    -1.051197  -2.499172  3.152288
C    -0.937178  -2.709932  1.631787
C    -2.203678  -2.534984  0.756331
N    -3.022852  -1.341687  0.955918
C    -2.566399  -0.053863  0.991751
N    -3.421953  0.879445  1.534488
N    -1.344626  0.332281  0.699597
H    -1.943899  -2.997260  3.559588
H    -0.191783  -3.041104  3.604304
H    -0.626192  -3.750767  1.465028
H    -0.109804  -2.102489  1.242587
H    -2.878137  -3.382658  0.929239
H    -1.880193  -2.614280  -0.295311
H    -4.025936  -1.495128  0.982487
H    -3.234269  1.834270  1.240284
H    -4.410547  0.657989  1.602721
H    -0.858730  -0.375331  0.144493
N    -2.118060  -0.031657  5.591185
C    -2.385723  0.246666  7.005564
H    -2.692028  0.441666  4.896965
H    -3.046658  -0.521954  7.426482
H    -2.871364  1.223490  7.080139
H    -1.445284  0.255179  7.564776
Cd    1.390303  -2.298093  5.344444
