36
Energy: -175308.67526 eV PBE+vdW (tier 2 basis)
C    -1.788536  -0.191180  -0.204231
C    -1.824241  -0.616825  1.220943
O    -1.044312  -1.545186  1.645368
H    -2.719598  0.284705  -0.526700
H    -1.589461  -1.075226  -0.819954
H    -0.951135  0.508138  -0.362115
N    -2.595894  0.015561  2.132543
C    -2.902874  1.433711  2.209403
C    -1.668764  2.128901  2.847161
O    -0.755376  1.454285  3.430763
H    -2.632222  -0.460145  3.034110
H    -3.028748  1.821029  1.188146
C    -4.205611  1.655490  3.010442
C    -5.501051  1.286846  2.252268
C    -6.109858  -0.106060  2.509139
N    -5.273271  -1.251443  2.153814
C    -4.860358  -1.614315  0.897187
N    -5.341547  -0.902568  -0.165644
N    -3.937563  -2.518984  0.652477
H    -4.261454  2.714119  3.291000
H    -4.130922  1.109908  3.965561
H    -5.352479  1.447488  1.174554
H    -6.283361  1.999363  2.548310
H    -7.078326  -0.165727  1.983248
H    -6.346757  -0.216433  3.574703
H    -5.083914  -1.932823  2.880582
H    -5.110430  -1.310595  -1.067751
H    -6.265607  -0.485833  -0.113706
H    -3.671076  -3.054009  1.485519
N    -1.553106  3.448301  2.807461
C    -2.455822  4.446573  2.231190
H    -0.720988  3.807682  3.278326
H    -1.848981  5.243145  1.787603
H    -3.098175  4.885825  3.005685
H    -3.077178  4.009947  1.443976
Cd    0.207740  -0.547672  3.167197
