36
Energy: -175309.300226 eV PBE+vdW (tier 2 basis)
C    1.398666  1.337809  0.509669
C    0.675537  1.249029  1.816957
O    1.012780  2.076994  2.725982
H    1.111150  2.274041  0.009132
H    2.476953  1.398818  0.699137
H    1.183336  0.488085  -0.146483
N    -0.284540  0.322380  1.942109
C    -1.218392  0.163302  3.069297
C    -0.549695  -0.630472  4.215675
O    0.114324  -0.039994  5.132481
H    -0.470373  -0.243778  1.089342
H    -1.424692  1.164496  3.487364
C    -2.549323  -0.444448  2.595173
C    -3.432894  0.510746  1.755262
C    -4.228315  -0.192565  0.628998
N    -3.422611  -0.424913  -0.578985
C    -2.276857  -1.219457  -0.529189
N    -2.456883  -2.501593  -0.096004
N    -1.073927  -0.767656  -0.759865
H    -3.114856  -0.755889  3.484114
H    -2.338156  -1.362822  2.025407
H    -2.824072  1.305003  1.295846
H    -4.146081  1.019050  2.418371
H    -5.072467  0.436646  0.323784
H    -4.655440  -1.140790  0.981664
H    -3.286753  0.418033  -1.134232
H    -1.662753  -3.117234  -0.245808
H    -3.360859  -2.928569  -0.273627
H    -1.097177  0.181443  -1.144464
N    -0.663668  -1.944956  4.248163
C    -0.053044  -2.799280  5.273707
H    -1.248308  -2.388429  3.545017
H    -0.564414  -2.665211  6.235019
H    1.004760  -2.541900  5.392691
H    -0.144808  -3.840300  4.954255
Cd    0.804034  1.995637  4.865641
