36
Energy: -175311.413542 eV PBE+vdW (tier 2 basis)
C    -1.243626  -0.617931  -0.549406
C    -1.562104  -0.204391  0.850090
O    -1.504095  1.014776  1.168277
H    -1.374368  -1.690911  -0.725047
H    -0.205235  -0.337689  -0.773468
H    -1.881308  -0.053950  -1.242683
N    -1.909260  -1.172459  1.735824
C    -2.287499  -0.865742  3.107384
C    -1.053174  -0.611028  3.999574
O    -0.727146  0.598576  4.220880
H    -1.939636  -2.132672  1.404686
H    -2.721811  0.138276  3.025814
C    -3.473196  -1.668322  3.681618
C    -4.764609  -0.847459  3.484147
C    -4.796263  0.464727  4.313526
N    -5.312709  1.616329  3.557361
C    -4.846227  2.893431  3.580340
N    -5.756235  3.873889  3.421084
N    -3.548936  3.190121  3.729821
H    -3.306507  -1.869683  4.749156
H    -3.568930  -2.648846  3.195406
H    -5.632530  -1.467548  3.740031
H    -4.867029  -0.602637  2.415682
H    -3.804615  0.742568  4.694745
H    -5.417546  0.322540  5.209979
H    -6.277160  1.527333  3.248251
H    -6.738431  3.731362  3.629307
H    -5.475464  4.811251  3.156809
H    -3.401641  4.169982  3.963765
N    -0.334222  -1.593416  4.518996
C    -0.521815  -3.038368  4.406607
H    0.458204  -1.278552  5.081602
H    -0.854197  -3.456444  5.365184
H    0.431476  -3.502653  4.129371
H    -1.260386  -3.279574  3.638695
Cd    -1.865659  2.099000  3.071581
