36
Energy: -175311.04274 eV PBE+vdW (tier 2 basis)
C    0.459794  -0.324388  1.316193
C    0.095368  0.432654  2.541583
O    0.988372  0.972935  3.258968
H    0.794954  0.378586  0.538000
H    -0.355044  -0.945774  0.934333
H    1.330563  -0.953601  1.547349
N    -1.212346  0.558794  2.920822
C    -2.286746  1.036523  2.048014
C    -1.799060  2.340990  1.377171
O    -1.024028  3.130497  1.999355
H    -1.326200  0.892748  3.881096
H    -2.522946  0.269981  1.297047
C    -3.552812  1.387158  2.892580
C    -3.791314  0.576498  4.189535
C    -3.626535  1.404892  5.476069
N    -2.244837  1.911966  5.645298
C    -1.929209  3.205225  6.043323
N    -2.839305  3.936446  6.696534
N    -0.729641  3.664255  5.706552
H    -4.416936  1.285087  2.225933
H    -3.499041  2.456788  3.146476
H    -3.159871  -0.323549  4.231353
H    -4.820830  0.195118  4.192833
H    -3.923489  0.805403  6.348207
H    -4.296091  2.273031  5.425066
H    -1.585160  1.229913  6.019932
H    -2.700440  4.930125  6.851040
H    -3.602416  3.499679  7.203270
H    -0.422619  4.510633  6.184495
N    -2.255301  2.616677  0.164339
C    -1.971998  3.837967  -0.592982
H    -2.867759  1.931860  -0.272888
H    -2.892722  4.420853  -0.717623
H    -1.579947  3.571156  -1.580932
H    -1.232922  4.431016  -0.050232
Cd    0.104139  2.884103  3.922289
