36
Energy: -175311.353167 eV PBE+vdW (tier 2 basis)
C    1.187950  -0.682496  1.599435
C    0.242321  -0.757751  2.758371
O    0.632806  -1.370725  3.794885
H    0.781872  -0.151701  0.732180
H    1.463075  -1.703154  1.301643
H    2.111467  -0.187119  1.928090
N    -0.958867  -0.165016  2.604984
C    -2.140932  -0.084802  3.494228
C    -1.809094  0.703036  4.782697
O    -1.208408  0.170355  5.755695
H    -1.082533  0.282283  1.701319
H    -2.864420  0.513563  2.923248
C    -2.790415  -1.457240  3.766250
C    -4.089670  -1.389659  4.596935
C    -4.349344  -2.632594  5.472308
N    -3.308697  -2.760227  6.505295
C    -2.152800  -3.442231  6.400615
N    -2.032103  -4.463644  5.534512
N    -1.025262  -3.105520  7.100656
H    -2.056878  -2.113364  4.256069
H    -2.981416  -1.931301  2.793933
H    -4.955379  -1.249004  3.934651
H    -4.079072  -0.511982  5.263246
H    -4.396281  -3.549011  4.871373
H    -5.321400  -2.545171  5.972809
H    -3.268251  -1.976622  7.152561
H    -1.236393  -5.080091  5.667648
H    -2.832448  -4.850872  5.048728
H    -1.255405  -2.575013  7.946278
N    -2.203649  1.972024  4.818023
C    -1.957940  2.898286  5.924529
H    -2.711341  2.336361  4.016225
H    -2.910503  3.200531  6.376503
H    -1.443534  3.789450  5.546355
H    -1.335884  2.403300  6.673242
Cd    -0.047272  -1.749137  5.769973
