36
Energy: -175310.93931 eV PBE+vdW (tier 2 basis)
C    -0.381605  -0.422352  -1.093769
C    -0.024866  -0.331690  0.346988
O    1.237902  -0.369231  0.646883
H    -0.017723  -1.374191  -1.504042
H    0.152303  0.373542  -1.632536
H    -1.455372  -0.328080  -1.276737
N    -0.918561  -0.206227  1.312229
C    -2.380354  -0.250608  1.355468
C    -2.682448  0.461807  2.700031
O    -1.787738  0.427019  3.578507
H    -0.612404  0.048928  2.273133
H    -2.790558  0.302653  0.502175
C    -2.963176  -1.695283  1.366782
C    -3.092210  -2.438219  2.715812
C    -1.903296  -3.203975  3.311357
N    -0.776358  -2.347377  3.722745
C    0.344100  -2.810572  4.336157
N    0.356671  -4.022277  4.899103
N    1.446211  -2.033039  4.309155
H    -2.401283  -2.298315  0.637880
H    -3.979188  -1.611944  0.956751
H    -3.862141  -3.208481  2.566729
H    -3.514076  -1.771731  3.483349
H    -2.303303  -3.756532  4.177595
H    -1.524449  -3.947242  2.593868
H    -1.000059  -1.352318  3.871872
H    1.224079  -4.458367  5.193403
H    -0.503673  -4.499803  5.146840
H    2.185619  -2.259228  4.972021
N    -3.871229  1.023231  2.902910
C    -5.009281  1.130693  1.990060
H    -3.989246  1.413610  3.837857
H    -4.680204  1.114328  0.946545
H    -5.511755  2.087104  2.166974
H    -5.728986  0.318713  2.157436
Cd    1.700289  -0.986949  2.560675
