36
Energy: -175309.401003 eV PBE+vdW (tier 2 basis)
C    -0.401990  -0.069051  -0.127194
C    -0.297474  0.038565  1.361312
O    0.786010  0.461565  1.860158
H    -0.236298  0.925418  -0.563895
H    -1.369289  -0.454990  -0.466303
H    0.402329  -0.717577  -0.498146
N    -1.368791  -0.312417  2.098900
C    -1.521716  -0.122452  3.544599
C    -0.766573  -1.213308  4.339936
O    0.357512  -0.924375  4.873085
H    -2.189449  -0.625986  1.587017
H    -0.990779  0.808135  3.806197
C    -2.997443  0.068714  3.931052
C    -3.543419  1.449715  3.547937
C    -5.067414  1.573300  3.735536
N    -5.523498  1.537832  5.118417
C    -6.099875  0.435801  5.698886
N    -6.820261  0.650375  6.831997
N    -5.887087  -0.735255  5.135513
H    -3.091669  -0.081960  5.015526
H    -3.619744  -0.711888  3.473044
H    -3.341705  1.663917  2.486171
H    -3.031328  2.234579  4.126078
H    -5.580022  0.769097  3.193894
H    -5.395344  2.528842  3.304050
H    -5.607441  2.426248  5.601486
H    -7.200381  -0.136373  7.342478
H    -7.151944  1.569093  7.103059
H    -6.419530  -1.471768  5.608826
N    -1.235744  -2.441144  4.510994
C    -2.490182  -3.053235  4.062783
H    -0.616402  -3.033681  5.065513
H    -2.378470  -4.137069  4.158047
H    -2.685542  -2.826935  3.009488
H    -3.339466  -2.730047  4.677223
Cd    1.706174  0.472597  3.856313
