36
Energy: -175310.120817 eV PBE+vdW (tier 2 basis)
C    0.031065  -3.242198  1.912921
C    -0.272251  -1.907421  2.536416
O    0.495427  -0.947771  2.006090
H    -0.106479  -3.186645  0.824910
H    1.080723  -3.510358  2.089084
H    -0.626864  -4.007165  2.335080
N    -1.201879  -1.841645  3.445068
C    -1.670832  -0.588165  3.994800
C    -0.807972  -0.135206  5.191094
O    -0.013138  0.873528  5.054065
H    -7.020555  -3.787611  1.279926
H    -1.579252  0.269320  3.277575
C    -3.188335  -0.661007  4.284645
C    -3.985541  -0.758118  2.978047
C    -5.510739  -0.739118  3.154674
N    -6.088105  -1.940191  3.776913
C    -6.646702  -2.972198  3.127576
N    -7.417914  -3.840516  3.798991
N    -6.440811  -3.153622  1.817043
H    -3.491136  0.236724  4.846595
H    -3.390157  -1.538266  4.912507
H    -3.670135  -1.660551  2.432118
H    -3.737932  0.099643  2.332320
H    -6.004547  -0.591932  2.184516
H    -5.815438  0.113082  3.777661
H    -6.161432  -1.954431  4.788375
H    -7.692519  -4.725779  3.389621
H    -7.826616  -3.602358  4.694677
H    -5.719980  -2.649996  1.317601
N    -0.810091  -0.752438  6.359368
C    -1.522209  -1.966768  6.759543
H    -0.174080  -0.343432  7.045046
H    -0.886783  -2.507847  7.468279
H    -1.690025  -2.604084  5.886626
H    -2.468958  -1.722509  7.257735
Cd    0.674644  0.836334  3.028203
