36
Energy: -175308.930167 eV PBE+vdW (tier 2 basis)
C    -0.047384  0.495703  -0.250613
C    -0.098806  0.039213  1.167101
O    0.944605  -0.437693  1.712562
H    0.502487  1.446496  -0.319550
H    -1.036742  0.601255  -0.705639
H    0.540257  -0.237394  -0.819846
N    -1.249569  0.104844  1.883768
C    -2.130765  1.269194  1.936737
C    -1.506835  2.255228  2.960124
O    -0.572839  1.888079  3.745927
H    -1.206687  -0.413068  2.762023
H    -2.114970  1.746090  0.946454
C    -3.586155  0.871153  2.264245
C    -3.848667  0.394851  3.697193
C    -5.356722  0.135936  3.896642
N    -5.730855  -0.157189  5.269594
C    -5.971200  0.823584  6.194439
N    -6.511933  0.446603  7.381916
N    -5.640485  2.055048  5.856256
H    -3.867606  0.097392  1.534770
H    -4.233271  1.732877  2.052363
H    -3.546132  1.164441  4.422797
H    -3.288777  -0.524490  3.931635
H    -5.684162  -0.712251  3.280737
H    -5.916959  1.023232  3.573824
H    -5.905296  -1.123533  5.522962
H    -6.678584  1.141601  8.098742
H    -6.932120  -0.464433  7.528838
H    -5.870970  2.721804  6.599877
N    -1.957539  3.499737  3.046408
C    -3.037609  4.154527  2.306131
H    -1.495492  4.056546  3.766211
H    -3.994832  4.047769  2.833066
H    -3.124846  3.747887  1.293695
H    -2.797442  5.219349  2.224481
Cd    1.231548  0.531649  3.703892
