36
Energy: -175309.758074 eV PBE+vdW (tier 2 basis)
C    0.428161  -1.492168  1.888378
C    0.528599  -0.012994  1.777099
O    1.589583  0.516624  1.293106
H    0.496956  -1.960120  0.896639
H    -0.472027  -1.825737  2.411746
H    1.312882  -1.835753  2.447006
N    -0.479983  0.795198  2.185216
C    -1.907957  0.612072  1.853519
C    -2.258795  1.638648  0.741371
O    -1.379627  1.872154  -0.240992
H    -0.194353  1.758862  2.366380
H    -1.984249  -0.376410  1.374590
C    -2.830439  0.619221  3.073508
C    -2.922720  1.953444  3.846439
C    -4.356074  2.310339  4.248040
N    -5.179126  2.437877  3.041664
C    -6.495547  2.644889  3.028176
N    -7.161140  2.928162  4.156968
N    -7.168253  2.567872  1.865709
H    -2.500161  -0.184234  3.745483
H    -3.821810  0.313098  2.713297
H    -2.525194  2.787682  3.248167
H    -2.318118  1.913414  4.760884
H    -4.345110  3.258189  4.809096
H    -4.776280  1.529397  4.902824
H    -4.676622  2.306684  2.140472
H    -8.171759  2.988889  4.172907
H    -6.673929  3.153801  5.014286
H    -8.140122  2.841688  1.795609
N    -3.430058  2.159793  0.716838
C    -3.808246  3.103354  -0.328193
H    -6.739102  2.161894  1.044732
H    -4.085617  2.563073  -1.245779
H    -3.000253  3.801974  -0.582194
H    -4.682467  3.676699  0.004300
Cd    0.711759  1.885092  -0.181412
