36
Energy: -175309.295131 eV PBE+vdW (tier 2 basis)
C    0.038941  -0.086262  0.738152
C    -0.247170  -0.347725  2.176235
O    0.746850  -0.430324  2.978944
H    0.334317  -1.021235  0.237836
H    0.916550  0.572479  0.694355
H    -0.794983  0.371663  0.203306
N    -1.498306  -0.448973  2.696007
C    -2.658748  -1.272815  2.290158
C    -2.506266  -2.695390  2.920204
O    -1.292621  -3.192940  3.141718
H    -1.485085  -0.302370  3.707015
H    -3.518878  -0.809382  2.790037
C    -2.941432  -1.350268  0.781426
C    -3.576240  -0.097515  0.152215
C    -5.054592  0.169211  0.495736
N    -5.961250  -0.914098  0.086910
C    -6.178368  -2.038371  0.786980
N    -6.536924  -3.168756  0.164201
N    -6.048114  -2.066314  2.127724
H    -3.596048  -2.219280  0.635609
H    -2.025059  -1.614850  0.239458
H    -3.482969  -0.178585  -0.940599
H    -3.020060  0.809683  0.434874
H    -5.390950  1.076020  -0.020424
H    -5.191985  0.377274  1.564558
H    -6.320890  -0.876638  -0.863225
H    -7.017897  -3.895424  0.683666
H    -6.496670  -3.261569  -0.844493
H    -6.045354  -1.176714  2.612938
N    -3.580707  -3.373942  3.098099
C    -3.565825  -4.672719  3.749864
H    -5.432247  -2.782789  2.549367
H    -3.464297  -5.464913  2.991441
H    -4.526811  -4.829898  4.254834
H    -2.746378  -4.783309  4.471250
Cd    0.409273  -2.331115  4.030506
