36
Energy: -175308.587352 eV PBE+vdW (tier 2 basis)
C    -0.238139  0.396746  2.437654
C    -0.998873  -0.200869  3.572563
O    -0.490737  -0.191446  4.737649
H    -0.875640  1.006383  1.789393
H    0.207753  -0.406806  1.828201
H    0.582507  0.999316  2.839096
N    -2.221625  -0.767612  3.397548
C    -2.610611  -1.693601  2.320549
C    -1.677308  -2.933504  2.416122
O    -1.094387  -3.235569  3.511653
H    -2.713380  -0.924697  4.276575
H    -3.601611  -2.060221  2.633925
C    -2.777188  -1.053663  0.924274
C    -3.949005  -1.665616  0.137990
C    -3.976087  -1.290920  -1.357531
N    -2.721743  -1.499356  -2.079083
C    -1.986053  -2.649777  -2.177180
N    -2.529637  -3.804273  -1.608891
N    -0.781502  -2.744525  -2.659413
H    -1.840235  -1.132546  0.354983
H    -2.966551  0.018183  1.068086
H    -4.901671  -1.319986  0.565372
H    -3.962081  -2.758671  0.249742
H    -4.217465  -0.227285  -1.472787
H    -4.796030  -1.842756  -1.848064
H    -2.341920  -0.703113  -2.580675
H    -2.004811  -4.619313  -1.927673
H    -3.531100  -3.938942  -1.744049
H    -0.430312  -1.876070  -3.075508
N    -1.512607  -3.713538  1.363112
C    -0.690494  -4.927166  1.388247
H    -1.998997  -3.520457  0.477881
H    0.297930  -4.707708  1.805655
H    -0.576546  -5.281324  0.360689
H    -1.168268  -5.706933  1.994449
Cd    -0.502547  -2.300661  5.439909
