36
Energy: -175310.639595 eV PBE+vdW (tier 2 basis)
C    -0.658661  -0.633628  1.444801
C    -1.310207  -0.587014  2.796283
O    -0.611254  -0.896630  3.827274
H    -0.107567  0.306820  1.291551
H    -1.382108  -0.757684  0.632602
H    0.085723  -1.436893  1.419343
N    -2.595001  -0.263831  3.006286
C    -3.421945  0.658184  2.265406
C    -3.673041  1.901244  3.187851
O    -3.396836  1.903958  4.431375
H    -1.914639  -3.708541  3.628807
H    -2.892249  1.040715  1.376790
C    -4.747150  0.006856  1.793159
C    -5.588628  -0.695986  2.886288
C    -5.568053  -2.226966  2.843988
N    -4.222303  -2.751859  3.102242
C    -3.898372  -4.046982  3.179170
N    -4.829285  -4.995739  3.024214
N    -2.624494  -4.400528  3.424599
H    -4.481881  -0.705829  0.998026
H    -5.361600  0.768942  1.300280
H    -6.640114  -0.406035  2.767487
H    -5.308157  -0.353650  3.894061
H    -5.920255  -2.566765  1.855164
H    -6.263035  -2.613991  3.604853
H    -3.468265  -2.054459  3.103643
H    -4.612846  -5.977204  3.150900
H    -5.781198  -4.766425  2.769454
H    -2.335593  -5.370942  3.432496
N    -4.195965  3.005792  2.669376
C    -4.560383  3.314184  1.286201
H    -4.341451  3.750577  3.351733
H    -3.980295  2.714458  0.578672
H    -4.334344  4.369643  1.101497
H    -5.632145  3.151244  1.113672
Cd    -2.158349  0.200052  5.128711
