36
Energy: -175310.441195 eV PBE+vdW (tier 2 basis)
C    -0.371889  -0.701330  -0.058700
C    -0.189431  -0.482882  1.404219
O    0.986796  -0.625222  1.894432
H    -0.443334  0.274703  -0.564438
H    -1.284728  -1.268249  -0.279231
H    0.498741  -1.228694  -0.458440
N    -1.226480  -0.150943  2.183792
C    -2.569184  0.274202  1.791551
C    -2.520139  1.658375  1.095208
O    -1.602453  2.468344  1.326136
H    -1.045121  -0.120295  3.185207
H    -2.962008  -0.454670  1.069314
C    -3.536029  0.246522  3.022302
C    -3.015576  0.531512  4.448464
C    -2.723699  1.974379  4.898901
N    -1.602464  2.632229  4.208279
C    -0.333746  2.244226  4.225986
N    0.504404  2.650922  3.144754
N    0.253071  1.388390  5.049693
H    -3.969738  -0.761343  3.055347
H    -4.373223  0.923613  2.803887
H    -2.171771  -0.130899  4.707705
H    -3.812112  0.183601  5.123361
H    -2.541173  1.989451  5.982381
H    -3.597862  2.614818  4.731503
H    -1.843308  3.293778  3.472985
H    -0.052167  2.807382  2.284579
H    1.104179  3.448426  3.374150
H    -0.219944  1.114344  5.910664
N    -3.517669  1.942793  0.244573
C    -4.625507  1.091261  -0.196524
H    -3.454286  2.873772  -0.163823
H    -5.192024  1.641185  -0.953005
H    -5.312097  0.846657  0.623602
H    -4.263792  0.164471  -0.661234
Cd    1.591311  0.509274  3.593603
