36
Energy: -175309.950107 eV PBE+vdW (tier 2 basis)
C    -0.355025  0.061152  -0.172888
C    -0.109467  0.671484  1.163855
O    1.000513  1.178147  1.463294
H    0.180788  0.600579  -0.959879
H    -1.418700  -0.039409  -0.412356
H    0.061547  -0.959569  -0.137621
N    -1.116144  0.612745  2.123264
C    -2.329333  1.440196  1.935117
C    -1.609211  2.841446  1.920645
O    -1.046156  3.139874  3.036068
H    -0.715746  0.839288  3.039463
H    -2.776828  1.227875  0.957196
C    -3.327749  1.219059  3.065091
C    -4.556991  2.134385  2.989554
C    -5.573503  1.772974  4.084356
N    -6.811373  2.557810  4.029476
C    -7.153145  3.577830  4.829696
N    -8.426831  3.994775  4.862459
N    -6.242132  4.190769  5.597303
H    -2.812041  1.363009  4.026569
H    -3.637567  0.163938  3.023229
H    -5.044374  2.037847  2.006717
H    -4.256068  3.189433  3.088659
H    -5.138355  1.880664  5.087687
H    -5.863215  0.716577  3.994886
H    -7.506919  2.268934  3.348473
H    -8.680236  4.882724  5.279606
H    -9.182306  3.419607  4.509188
H    -5.250328  4.054105  5.456827
N    -1.193965  3.381151  0.795302
C    -1.777211  3.293266  -0.528956
H    -6.524109  4.801826  6.354550
H    -1.064214  2.863945  -1.243330
H    -2.039969  4.300133  -0.879117
H    -2.696398  2.688963  -0.538363
Cd    0.833857  3.502622  1.803500
