36
Energy: -175309.402246 eV PBE+vdW (tier 2 basis)
C    -0.940559  0.947888  0.273967
C    -0.803642  0.552454  1.710262
O    -0.359776  -0.615863  1.960761
H    -1.362532  1.948407  0.132841
H    -1.583447  0.211394  -0.228779
H    0.041962  0.890344  -0.213177
N    -1.173830  1.442939  2.644784
C    -1.426753  1.309711  4.097179
C    -0.166507  1.375232  4.977559
O    0.920290  0.736885  4.720810
H    -1.456089  2.342085  2.263911
H    -1.980913  2.230026  4.321845
C    -2.319952  0.108950  4.495576
C    -3.769219  0.121125  3.981728
C    -4.624983  1.373837  4.315391
N    -4.436272  1.872072  5.675924
C    -3.566644  2.886491  5.996652
N    -3.426524  3.897114  5.069711
N    -2.778972  2.911847  7.044995
H    -2.321090  0.082861  5.594933
H    -1.863973  -0.841396  4.175973
H    -4.257893  -0.768439  4.404210
H    -3.803793  -0.015211  2.890614
H    -5.682916  1.120531  4.162727
H    -4.399375  2.188925  3.619568
H    -4.614901  1.209211  6.426282
H    -2.920149  4.698657  5.439151
H    -4.256964  4.162995  4.547140
H    -2.950700  2.128665  7.683217
N    -0.235402  2.119034  6.060583
C    0.838546  2.212725  7.051902
H    -1.140882  2.594475  6.317246
H    0.431788  2.701190  7.941493
H    1.218480  1.217442  7.309385
H    1.666989  2.814806  6.657943
Cd    0.985767  -1.059415  3.571326
