36
Energy: -175308.590337 eV PBE+vdW (tier 2 basis)
C    -0.884842  0.291522  -2.396575
C    -0.034218  -0.220998  -1.288812
O    1.157582  -0.588532  -1.573808
H    -1.263443  -0.543780  -3.004834
H    -0.232066  0.874051  -3.062362
H    -1.710808  0.915850  -2.052665
N    -0.418241  -0.245922  0.015775
C    -1.606949  -0.817894  0.671445
C    -1.255496  -2.274020  1.054399
O    -0.382349  -2.972076  0.421953
H    0.390531  -0.245714  0.640643
H    -1.737969  -0.257562  1.616918
C    -2.932817  -0.721341  -0.113622
C    -3.562387  0.689588  -0.066701
C    -4.872130  0.810684  0.761927
N    -4.940987  -0.025411  1.956918
C    -3.989960  -0.065380  2.932810
N    -3.980391  -1.217484  3.729996
N    -3.005460  0.772389  3.098396
H    -3.619140  -1.450236  0.337228
H    -2.792959  -1.070185  -1.143869
H    -3.818150  1.025426  -1.080289
H    -2.820712  1.410417  0.303665
H    -5.728059  0.512037  0.145991
H    -5.033872  1.868555  1.020864
H    -5.719251  -0.674995  2.010296
H    -3.548459  -1.035952  4.636133
H    -4.868072  -1.706559  3.835350
H    -3.138419  1.636298  2.566165
N    -1.911884  -2.811394  2.063927
C    -1.713630  -4.188928  2.521464
H    -2.610050  -2.245540  2.577600
H    -2.287048  -4.328035  3.441537
H    -0.652637  -4.375508  2.723585
H    -2.061379  -4.902559  1.764375
Cd    1.499067  -2.499476  -0.559357
