36
Energy: -175309.181959 eV PBE+vdW (tier 2 basis)
C    1.254765  0.092833  -0.211517
C    0.836143  0.580752  1.142018
O    1.716032  0.690352  2.044872
H    0.423264  -0.030895  -0.913319
H    1.772661  -0.868354  -0.092262
H    1.986563  0.794509  -0.633978
N    -0.469869  0.858481  1.320345
C    -1.227247  1.172464  2.551574
C    -1.055303  2.640050  2.983617
O    0.034931  3.128695  3.407848
H    -1.042443  0.740122  0.489817
H    -2.276198  1.058591  2.243721
C    -1.009163  0.190463  3.723393
C    -1.417293  -1.249375  3.382900
C    -1.376477  -2.175373  4.618901
N    -1.835562  -3.525349  4.330522
C    -1.135182  -4.514243  3.683650
N    0.219460  -4.371474  3.556134
N    -1.682134  -5.561202  3.117318
H    -1.618270  0.565258  4.560921
H    0.034832  0.213011  4.067268
H    -0.762455  -1.664778  2.603394
H    -2.441356  -1.259983  2.978253
H    -2.024917  -1.779193  5.412111
H    -0.362751  -2.206940  5.044745
H    -2.827297  -3.709062  4.443659
H    0.675508  -5.183621  3.148555
H    0.749433  -3.890676  4.274229
H    -2.691449  -5.640088  3.280549
N    -2.133509  3.411245  2.931107
C    -2.148196  4.818345  3.344650
H    -2.997842  3.014406  2.575028
H    -3.181878  5.172363  3.325413
H    -1.542325  5.423549  2.659230
H    -1.744984  4.915840  4.358746
Cd    2.046278  2.262912  3.542871
