36
Energy: -175308.838347 eV PBE+vdW (tier 2 basis)
C    -0.039312  0.085433  0.550368
C    -0.244736  0.050883  2.020592
O    0.742535  -0.184728  2.789659
H    0.824466  0.716165  0.305349
H    -0.926653  0.386048  -0.026542
H    0.236977  -0.936896  0.241120
N    -1.477561  0.225569  2.570467
C    -2.393579  1.318287  2.236245
C    -1.791141  2.623643  2.804405
O    -0.943422  2.608490  3.759723
H    -1.523819  -0.056077  3.551845
H    -2.454788  1.393071  1.142478
C    -3.786156  1.069150  2.866988
C    -4.508709  -0.232490  2.476569
C    -5.136248  -0.268252  1.073669
N    -4.123209  -0.250367  0.034359
C    -3.980130  0.645068  -0.997930
N    -5.103321  1.280284  -1.439968
N    -2.747224  0.835367  -1.405743
H    -4.428268  1.931101  2.637366
H    -3.662052  1.082653  3.962151
H    -5.323743  -0.384367  3.198351
H    -3.843627  -1.101567  2.601408
H    -5.801558  0.593346  0.925169
H    -5.758215  -1.174457  0.988677
H    -3.313516  -0.853225  0.149622
H    -5.006998  1.918585  -2.221944
H    -6.002416  0.810975  -1.386948
H    -2.690980  1.442260  -2.229437
N    -2.185186  3.796131  2.328055
C    -3.174291  4.083528  1.288822
H    -1.766926  4.601487  2.796521
H    -2.836267  4.959022  0.724544
H    -4.152725  4.308181  1.733141
H    -3.268203  3.242038  0.595649
Cd    0.738633  1.313729  4.416159
