36
Energy: -175309.049403 eV PBE+vdW (tier 2 basis)
C    -1.157266  -0.739150  -0.540534
C    -0.936126  -0.908113  0.932341
O    0.081959  -1.550196  1.317281
H    -2.097737  -0.237784  -0.792538
H    -1.135587  -1.730099  -1.013441
H    -0.318106  -0.170415  -0.963595
N    -1.859585  -0.373017  1.757600
C    -2.046034  -0.494142  3.218170
C    -1.104592  0.439508  3.997688
O    0.159586  0.351192  3.928651
H    -2.595127  0.139138  1.280398
H    -3.066917  -0.128991  3.379725
C    -1.973219  -1.933550  3.780471
C    -2.939452  -2.953089  3.161179
C    -4.419759  -2.762301  3.559086
N    -5.273503  -3.861158  3.149095
C    -5.402060  -5.040316  3.842874
N    -6.200611  -5.998386  3.307835
N    -4.802938  -5.345407  4.974989
H    -2.152985  -1.856310  4.864833
H    -0.950902  -2.327344  3.678829
H    -2.621505  -3.950520  3.496842
H    -2.847357  -2.964443  2.065057
H    -4.841854  -1.851305  3.111539
H    -4.504692  -2.633280  4.649690
H    -5.719714  -3.789002  2.240564
H    -6.318710  -6.846360  3.852458
H    -6.829765  -5.837678  2.530875
H    -4.270888  -4.564946  5.368921
N    -1.628142  1.365029  4.794238
C    -3.037394  1.698192  5.028651
H    -0.932926  1.915799  5.299234
H    -3.068320  2.541392  5.724218
H    -3.576377  0.861028  5.489288
H    -3.535629  2.010162  4.102451
Cd    1.438635  -1.171854  2.997225
