36
Energy: -175310.348675 eV PBE+vdW (tier 2 basis)
C    -0.740850  -1.392338  0.268649
C    -0.435775  -1.032991  1.678738
O    0.718411  -1.217033  2.160180
H    -0.229113  -0.691998  -0.409423
H    -1.811884  -1.415728  0.048351
H    -0.300027  -2.378569  0.065176
N    -1.402856  -0.482522  2.483797
C    -2.223574  0.669878  2.095853
C    -1.291605  1.710418  1.430026
O    -0.094351  1.858257  1.840326
H    -1.182300  -0.586172  3.474205
H    -3.016960  0.348572  1.407968
C    -2.848419  1.405492  3.312536
C    -3.693050  0.660070  4.367732
C    -2.961570  -0.124674  5.490289
N    -1.705805  0.528189  5.909847
C    -0.475011  0.061892  5.619376
N    -0.327355  -1.277709  5.416156
N    0.610200  0.837201  5.410700
H    -3.497309  2.178321  2.878138
H    -2.041801  1.965171  3.812124
H    -4.408029  -0.028069  3.894766
H    -4.307378  1.434146  4.848987
H    -2.725998  -1.139742  5.154157
H    -3.630904  -0.227602  6.353327
H    -1.766605  1.525011  6.101404
H    0.629273  -1.621884  5.428977
H    -0.994604  -1.913702  5.842264
H    0.446870  1.815517  5.659025
N    -1.744822  2.488040  0.457344
C    -3.078833  2.515413  -0.151332
H    -1.074980  3.186380  0.132157
H    -3.456798  1.501905  -0.322818
H    -2.997452  3.013722  -1.121587
H    -3.789079  3.076712  0.469236
Cd    1.095265  0.679862  3.304229
