36
Energy: -175309.628779 eV PBE+vdW (tier 2 basis)
C    -0.072494  3.319687  0.018083
C    0.310040  2.502243  1.200357
O    1.415132  2.735764  1.802469
H    -0.181666  4.376435  0.298707
H    -0.975333  2.958907  -0.482181
H    0.769008  3.279715  -0.690802
N    -0.487384  1.503590  1.651747
C    -1.942730  1.624958  1.885396
C    -2.138054  1.769219  3.418260
O    -1.336685  2.610061  4.086205
H    -0.008132  0.830285  2.251870
H    -2.239147  2.596565  1.461271
C    -2.774603  0.538507  1.200369
C    -2.536852  -0.889658  1.697905
C    -3.539544  -1.917964  1.157643
N    -4.969945  -1.540484  1.201243
C    -5.741234  -1.352556  2.288925
N    -7.043946  -1.668914  2.220196
N    -5.235340  -0.849115  3.420792
H    -2.580416  0.601688  0.119130
H    -3.828602  0.820206  1.331611
H    -2.538713  -0.916564  2.795488
H    -1.543039  -1.248331  1.388204
H    -3.402878  -2.872105  1.686591
H    -3.340663  -2.107145  0.095950
H    -5.482218  -1.713959  0.342692
H    -7.712853  -1.300669  2.886661
H    -7.396321  -2.311814  1.520488
H    -5.809243  -0.868904  4.256187
N    -3.126735  1.186008  3.988375
C    -3.344082  1.323666  5.421916
H    -4.434910  -0.192209  3.430100
H    -3.958729  2.214974  5.619389
H    -2.411315  1.421958  5.991324
H    -3.899351  0.451963  5.789672
Cd    0.726895  2.896557  3.884725
