36
Energy: -175308.6103 eV PBE+vdW (tier 2 basis)
C    -0.246359  -0.495802  0.858989
C    -0.370816  -0.309120  2.334025
O    0.617638  -0.544057  3.086959
H    0.299229  0.355212  0.422409
H    -1.212164  -0.611472  0.357947
H    0.373172  -1.383164  0.676430
N    -1.544437  0.108634  2.883181
C    -2.323424  1.245866  2.383745
C    -1.430881  2.500125  2.563920
O    -0.614022  2.553511  3.534068
H    -1.551976  0.038280  3.902237
H    -2.551987  1.078345  1.323778
C    -3.617356  1.329358  3.230898
C    -4.695203  2.339471  2.816135
C    -5.580490  1.885415  1.650125
N    -6.560149  2.903775  1.341644
C    -7.594174  2.833200  0.445992
N    -7.790037  1.685069  -0.248456
N    -8.294537  3.944599  0.345370
H    -3.315840  1.554900  4.265410
H    -4.044866  0.315292  3.249021
H    -4.252205  3.321779  2.593395
H    -5.343478  2.499288  3.689591
H    -6.089234  0.944701  1.930272
H    -4.981667  1.661932  0.745659
H    -6.535033  3.798862  1.824912
H    -7.313361  0.818016  -0.031550
H    -8.587040  1.617690  -0.870297
H    -9.060536  3.875480  -0.333643
N    -1.513266  3.535057  1.731103
C    -2.347278  3.737262  0.548222
H    -0.884882  4.303226  1.973877
H    -2.850640  2.811287  0.260261
H    -1.713050  4.062349  -0.284935
H    -3.100923  4.512777  0.735149
Cd    0.996898  1.207865  4.463190
