36
Energy: -175310.963022 eV PBE+vdW (tier 2 basis)
C    0.593683  -0.356407  0.743806
C    0.148692  0.012037  2.112183
O    0.977151  0.264638  3.028479
H    -0.233171  -0.563003  0.058382
H    1.207550  -1.267221  0.833580
H    1.258799  0.417951  0.339075
N    -1.193162  0.081066  2.413852
C    -2.185895  0.861042  1.668263
C    -1.527407  2.181747  1.233795
O    -0.707711  2.764695  2.013224
H    -1.395892  -0.052094  3.401775
H    -2.552144  0.286312  0.808424
C    -3.379371  1.267351  2.594436
C    -3.738601  0.350253  3.779851
C    -3.009665  0.598632  5.118932
N    -3.079731  1.993448  5.578554
C    -2.081408  2.679437  6.200397
N    -2.441672  3.561127  7.150392
N    -0.795729  2.508118  5.874700
H    -4.257830  1.362592  1.945102
H    -3.189158  2.276814  2.990826
H    -3.635215  -0.715387  3.524846
H    -4.813962  0.482700  3.967499
H    -1.946923  0.316504  5.117187
H    -3.466530  -0.054096  5.878877
H    -4.017289  2.327655  5.787909
H    -1.798184  4.274820  7.473621
H    -3.327494  3.489533  7.639305
H    -0.156595  2.890412  6.569070
N    -1.851507  2.738731  0.076906
C    -2.769808  2.225797  -0.947894
H    -1.413916  3.643717  -0.096614
H    -3.801767  2.188400  -0.578891
H    -2.459795  1.234138  -1.298563
H    -2.736615  2.910566  -1.799374
Cd    0.003710  2.044703  3.984488
