36
Energy: -175311.553633 eV PBE+vdW (tier 2 basis)
C    -0.357853  0.193575  -0.015643
C    -0.408889  -0.132344  1.445992
O    0.542827  -0.766688  1.972750
H    -1.280905  0.636765  -0.403785
H    -0.122155  -0.716110  -0.582291
H    0.472510  0.893550  -0.186652
N    -1.500741  0.272723  2.128741
C    -1.822370  0.175213  3.569137
C    -0.771670  0.927165  4.427682
O    0.352379  0.431442  4.755253
H    -2.182359  0.786642  1.578566
H    -2.760513  0.739267  3.650859
C    -2.111309  -1.222856  4.171743
C    -2.915835  -2.271688  3.386428
C    -2.181181  -3.100846  2.301775
N    -0.765432  -3.380034  2.570993
C    -0.205753  -4.036531  3.620362
N    -0.835283  -5.103820  4.136535
N    0.946932  -3.556174  4.104809
H    -2.658154  -1.013620  5.102989
H    -1.183451  -1.696583  4.528403
H    -3.802924  -1.820066  2.918806
H    -3.309112  -2.965565  4.141753
H    -2.185707  -2.581674  1.336868
H    -2.739743  -4.031734  2.132808
H    -0.104605  -2.830766  2.030774
H    -0.504363  -5.540012  4.989825
H    -1.488390  -5.639221  3.574005
H    1.489007  -4.182078  4.697549
N    -1.087519  2.144066  4.842235
C    -0.203610  2.983584  5.658810
H    -2.001181  2.515608  4.599229
H    -0.059785  2.533157  6.648455
H    -0.668338  3.966266  5.769933
H    0.770834  3.090380  5.169369
Cd    1.085991  -1.452350  4.039216
