36
Energy: -175309.275713 eV PBE+vdW (tier 2 basis)
C    -2.385891  -0.488740  0.185038
C    -1.708638  -0.493431  1.517568
O    -0.788046  -1.343869  1.722997
H    -3.055008  0.366346  0.038798
H    -2.976689  -1.417217  0.112675
H    -1.635774  -0.519257  -0.613533
N    -2.148274  0.377375  2.447443
C    -1.972176  0.372143  3.918899
C    -0.676459  1.072723  4.357634
O    0.486215  0.664557  4.045772
H    -2.863445  1.017028  2.113218
H    -2.806382  0.989486  4.281167
C    -2.131334  -1.020031  4.572271
C    -3.480981  -1.670419  4.242198
C    -3.495872  -3.194850  4.482758
N    -4.606176  -3.857837  3.819694
C    -4.704623  -3.961333  2.457671
N    -5.879645  -4.388907  1.934474
N    -3.747844  -3.633854  1.604493
H    -2.012024  -0.886836  5.657323
H    -1.316077  -1.688427  4.256715
H    -3.720483  -1.507159  3.181619
H    -4.285607  -1.193506  4.820199
H    -3.566691  -3.429805  5.551604
H    -2.548919  -3.641490  4.135973
H    -5.408285  -4.108805  4.388697
H    -5.893150  -4.594000  0.941469
H    -6.638773  -4.748947  2.500188
H    -2.852954  -3.506956  2.086358
N    -0.799630  2.139895  5.132971
C    0.335179  2.888959  5.682861
H    -1.734125  2.475913  5.347569
H    -0.035596  3.545133  6.474451
H    0.808781  3.493993  4.899546
H    1.074467  2.194413  6.095182
Cd    1.066141  -1.052731  2.838557
