36
Energy: -175308.745622 eV PBE+vdW (tier 2 basis)
C    0.240188  0.939204  -0.091160
C    -0.061706  0.123692  1.114432
O    0.793279  -0.729778  1.511392
H    1.132536  1.555599  0.088758
H    -0.594874  1.558915  -0.446030
H    0.518208  0.242914  -0.897243
N    -1.236967  0.243758  1.786373
C    -1.838975  1.507935  2.207639
C    -0.998247  2.047094  3.400466
O    -0.184737  1.312986  4.042762
H    -1.400625  -0.518843  2.446852
H    -1.770681  2.218583  1.373000
C    -3.311173  1.292913  2.632233
C    -4.241883  0.694370  1.563127
C    -4.903772  1.695996  0.595818
N    -3.975655  2.468049  -0.224911
C    -3.165187  1.982834  -1.220615
N    -3.325113  0.684753  -1.605249
N    -2.166734  2.655805  -1.750718
H    -3.714562  2.249476  2.996328
H    -3.308186  0.628385  3.511333
H    -5.066261  0.183824  2.080242
H    -3.713099  -0.088069  1.000427
H    -5.501461  2.423074  1.159867
H    -5.621225  1.153678  -0.042720
H    -3.982886  3.477025  -0.126891
H    -2.789113  0.423562  -2.427960
H    -4.227471  0.230884  -1.512236
H    -2.152700  3.638932  -1.459288
N    -1.176869  3.308135  3.764359
C    -0.491188  3.943074  4.896435
H    -1.858744  3.864319  3.256889
H    -0.724304  5.010668  4.885491
H    0.591772  3.806439  4.803978
H    -0.829243  3.505248  5.843428
Cd    1.081357  -0.513787  3.703390
