36
Energy: -175310.562923 eV PBE+vdW (tier 2 basis)
C    0.796666  3.435462  2.048909
C    -0.000956  2.904590  3.201574
O    -0.002271  3.426459  4.322495
H    0.415647  4.434891  1.797142
H    0.757315  2.805163  1.153628
H    1.839413  3.563582  2.363396
N    -0.768456  1.780078  2.971337
C    -1.729771  1.315375  3.959445
C    -1.036516  0.505308  5.109709
O    -1.218017  -0.756142  5.372077
H    -0.691913  1.301703  2.079805
H    -2.139514  2.214856  4.448444
C    -2.859380  0.508176  3.330739
C    -3.822364  1.121379  2.307790
C    -4.805366  0.051548  1.783380
N    -5.708200  -0.508429  2.809669
C    -5.444520  -1.490674  3.691399
N    -6.181307  -1.574340  4.815346
N    -4.449773  -2.406984  3.540414
H    -3.497188  0.196181  4.178180
H    -2.413918  -0.384769  2.848006
H    -3.281802  1.522781  1.438734
H    -4.370687  1.963658  2.753930
H    -4.259673  -0.766135  1.292299
H    -5.451361  0.485803  1.011875
H    -6.613883  -0.051487  2.892473
H    -6.267583  -2.480461  5.265804
H    -6.880068  -0.877024  5.051902
H    -4.195447  -2.543720  2.560428
N    -0.197993  1.198569  5.835489
C    0.601264  0.686251  6.946211
H    -0.063158  2.186035  5.499408
H    0.824818  1.519357  7.618766
H    1.545046  0.266804  6.572842
H    0.051706  -0.091503  7.484209
Cd    -2.734842  -1.974095  4.667914
