36
Energy: -175309.22411 eV PBE+vdW (tier 2 basis)
C    2.265791  -0.900846  0.884826
C    1.125647  -1.406569  1.713411
O    1.320441  -2.488480  2.363499
H    2.017866  0.015830  0.338813
H    2.573129  -1.686039  0.181167
H    3.125848  -0.709772  1.540798
N    -0.001205  -0.690454  1.711639
C    -1.340068  -0.996228  2.258389
C    -1.386624  -0.866553  3.797736
O    -1.004897  -1.782765  4.596783
H    -0.025832  0.094332  1.033676
H    -1.950725  -0.165372  1.881784
C    -1.996984  -2.303826  1.726301
C    -3.379990  -2.057403  1.083675
C    -3.372261  -1.816318  -0.451464
N    -2.282445  -0.999690  -0.973852
C    -1.952165  0.278145  -0.610228
N    -2.911456  1.006626  0.063511
N    -0.756451  0.801081  -0.734278
H    -2.142078  -3.020089  2.556180
H    -1.320150  -2.785532  1.007308
H    -3.873337  -1.224111  1.604447
H    -4.028201  -2.928267  1.248563
H    -4.349748  -1.399261  -0.742449
H    -3.294460  -2.779163  -0.969716
H    -1.592814  -1.473576  -1.545974
H    -2.691284  2.000165  0.087639
H    -3.883644  0.823215  -0.170835
H    -0.146426  0.231067  -1.328965
N    -1.885209  0.260546  4.277705
C    -2.017850  0.596888  5.697646
H    -2.190054  0.960077  3.605023
H    -1.794989  -0.284989  6.301618
H    -1.321190  1.405676  5.951443
H    -3.043092  0.930630  5.893019
Cd    0.168683  -3.448670  3.884950
