36
Energy: -175310.776374 eV PBE+vdW (tier 2 basis)
C    -0.851693  -0.051832  -0.839318
C    -0.620323  0.241171  0.604697
O    0.596552  0.509558  0.963906
H    -0.528760  0.802601  -1.448275
H    -1.897847  -0.288437  -1.057326
H    -0.222399  -0.905911  -1.127906
N    -1.631751  0.170267  1.445802
C    -1.630558  0.239854  2.906644
C    -2.987394  -0.449109  3.272379
O    -3.894513  -0.335447  2.445706
H    -2.591093  -0.029488  1.108248
H    -0.756696  -0.307056  3.289863
C    -1.626257  1.707256  3.402612
C    -1.250727  1.906177  4.882746
C    -0.264303  3.055487  5.111434
N    1.086796  2.653446  4.603067
C    2.014873  3.688488  4.234851
N    2.284764  4.677422  5.080235
N    2.499637  3.529489  3.026206
H    -2.605791  2.154093  3.182683
H    -0.929181  2.284138  2.759886
H    -0.810835  0.990346  5.304389
H    -2.150368  2.104466  5.478928
H    -0.222178  3.312342  6.180189
H    -0.573371  3.954437  4.560666
H    1.533878  2.009525  5.265120
H    1.907353  4.685511  6.022291
H    2.903574  5.445452  4.832173
H    3.208208  4.177817  2.677474
N    -3.137253  -1.083154  4.449221
C    -2.154399  -1.462590  5.456473
H    -4.084893  -1.435111  4.581470
H    -2.361696  -2.486499  5.787608
H    -2.194687  -0.803734  6.334780
H    -1.141071  -1.456393  5.041007
Cd    1.429094  1.899450  2.203341
