36
Energy: -175311.64639 eV PBE+vdW (tier 2 basis)
C    -0.421680  1.382425  1.533940
C    -0.399465  0.297647  2.561423
O    0.359430  0.410785  3.563926
H    -0.614976  2.342152  2.030694
H    -1.166455  1.222389  0.747316
H    0.575636  1.457353  1.078705
N    -1.212062  -0.768248  2.374412
C    -1.341683  -1.886460  3.307951
C    -0.189303  -2.891606  3.113656
O    0.877215  -2.721054  3.782317
H    -1.774219  -0.781903  1.527033
H    -1.152002  -1.467991  4.303525
C    -2.779967  -2.420961  3.418834
C    -3.673175  -1.523095  4.302361
C    -3.407643  -1.559410  5.821154
N    -2.126339  -0.933688  6.199009
C    -1.281923  -1.330078  7.197973
N    -1.764111  -2.083213  8.198845
N    0.005794  -0.984190  7.103240
H    -2.742498  -3.433638  3.847727
H    -3.238815  -2.526362  2.423012
H    -4.715894  -1.841158  4.166780
H    -3.643435  -0.481090  3.944048
H    -3.381167  -2.600467  6.172034
H    -4.243796  -1.059068  6.332558
H    -1.960388  0.010035  5.858314
H    -1.137723  -2.541261  8.852034
H    -2.745527  -2.051994  8.454676
H    0.541846  -1.073268  7.965027
N    -0.322811  -3.883957  2.247911
C    0.709492  -4.876956  1.936196
H    -1.212029  -3.973009  1.762558
H    0.938207  -4.842686  0.864544
H    0.347607  -5.878912  2.195522
H    1.608636  -4.648780  2.512343
Cd    0.888063  -0.995863  5.168423
