36
Energy: -175310.338551 eV PBE+vdW (tier 2 basis)
C    0.273862  0.098473  0.640613
C    0.410087  0.546099  2.071614
O    1.487494  1.107718  2.397808
H    0.386344  0.972696  -0.013609
H    -0.680483  -0.392160  0.418068
H    1.096823  -0.587784  0.404145
N    -0.674080  0.292329  2.856470
C    -1.030875  0.585770  4.266829
C    0.240412  1.126364  4.920258
O    1.162170  0.263692  5.152354
H    -1.438374  -0.135028  2.340275
H    -1.782021  1.388439  4.247699
C    -1.686982  -0.631095  4.948238
C    -0.869627  -1.926242  5.034358
C    -1.699496  -3.143821  5.466015
N    -2.213193  -3.095751  6.844305
C    -1.656680  -3.681044  7.914640
N    -2.375616  -3.836510  9.036240
N    -0.388458  -4.110291  7.882103
H    -2.626022  -0.827622  4.401672
H    -1.992844  -0.296275  5.951515
H    -0.009386  -1.783905  5.702178
H    -0.446045  -2.168263  4.047983
H    -1.112323  -4.065620  5.356217
H    -2.575446  -3.266132  4.813629
H    -3.116396  -2.657941  6.991595
H    -1.935002  -4.085747  9.913916
H    -3.387059  -3.781316  9.028982
H    0.244993  -3.838013  7.142317
N    0.492332  2.420264  4.939278
C    -0.433364  3.507998  4.682843
H    -0.031150  -4.738054  8.592441
H    -0.512037  3.730821  3.607791
H    -0.064482  4.408264  5.187652
H    -1.432833  3.301068  5.090768
Cd    2.531769  1.837478  4.275155
