21
Energy: -169052.9778003  eV PBE+vdW (tier 2 basis)
N    -0.462099  -2.120389  4.646389
C    -0.094917  -1.631304  3.372399
C    1.497955  -1.749858  3.141733
O    2.251529  -0.909260  3.697648
H    -3.026361  -1.355670  4.353865
H    -0.051753  -1.667308  5.461488
H    -0.533104  -2.271365  2.597207
C    -0.489818  -0.142568  3.147861
C    -1.962043  0.071075  3.117780
N    -2.613596  0.660050  2.141247
C    -3.005483  -0.272909  4.126960
C    -4.019148  0.713533  2.461446
N    -4.267201  0.181656  3.591859
H    -0.029998  0.228768  2.222385
H    -0.070228  0.457380  3.973301
H    -2.806073  0.201804  5.106261
H    -4.723604  1.170093  1.768067
H    -2.197487  1.036765  1.285558
O    1.889041  -2.730617  2.453066
H    -0.524335  -3.131038  4.748461
Cd    4.036722  -2.139842  2.895020
