21
Energy: -169052.9558364  eV PBE+vdW (tier 2 basis)
N    0.406032  -0.365521  0.040034
C    -0.026570  -0.254471  1.355299
C    1.060011  -0.516283  2.388585
O    0.922397  -0.132554  3.564643
H    0.963628  -1.153326  -0.272474
H    -0.000020  0.215747  -0.684055
H    -0.425685  0.750644  1.545933
C    -1.278365  -1.307863  1.740311
C    -2.039751  -1.036339  2.961813
N    -2.998417  -0.094614  3.083399
C    -2.046684  -1.695570  4.264054
C    -3.579554  -0.184058  4.351038
N    -3.045742  -1.128149  5.067686
H    -0.855848  -2.319632  1.757080
H    -1.927031  -1.220097  0.860887
H    -1.833633  -2.765552  4.368984
H    -4.389493  0.475121  4.656816
H    -3.310401  0.540509  2.348152
O    2.086411  -1.192435  1.934555
H    2.782775  -1.315277  2.615915
Cd    -0.115062  -1.017278  5.341346
