21
Energy: -169053.1924219  eV PBE+vdW (tier 2 basis)
N    0.125663  0.443740  0.208206
C    -0.041126  0.054635  1.656543
C    0.682893  -1.303609  1.781210
O    1.349829  -1.742927  0.869093
H    -0.740642  0.142689  -0.316255
H    0.299385  1.445586  0.071853
H    0.518625  0.773917  2.271235
C    -1.515781  0.063492  2.105735
C    -2.450545  -0.740862  1.271487
N    -2.342700  -0.731701  -0.111605
C    -3.467553  -1.624834  1.646999
C    -3.251823  -1.566817  -0.556109
N    -3.933778  -2.192035  0.499672
H    -1.872954  1.111259  2.089314
H    -1.557909  -0.245041  3.157607
H    -3.794883  -1.934318  2.633943
H    -3.415287  -1.822553  -1.599756
H    0.925981  -0.121674  -0.150450
O    0.496279  -1.849871  2.978496
H    1.037006  -2.665131  3.053803
Cd    -5.929680  -2.878945  0.105979
