21
Energy: -169052.6773348  eV PBE+vdW (tier 2 basis)
N    0.594533  0.981483  0.444053
C    0.427322  -0.243457  1.103023
C    1.840547  -0.670746  1.828623
O    2.076806  -0.115009  2.929567
H    0.616035  1.839582  0.987499
H    1.097810  1.017290  -0.438766
H    -0.256193  -0.104190  1.951664
C    -0.044609  -1.335192  0.123781
C    -0.498866  -2.670081  0.755826
N    -1.822955  -2.651508  1.387203
C    -0.742282  -3.769365  -0.237449
C    -2.580557  -3.563883  0.824599
N    -1.945860  -4.263532  -0.178352
H    0.770335  -1.566966  -0.575646
H    -0.875366  -0.919609  -0.462688
H    0.002889  -4.137368  -0.945363
H    -3.611965  -3.756830  1.122750
H    -2.112158  -2.053705  2.161183
O    2.614393  -1.451342  1.220687
H    0.244446  -3.029445  1.494700
Cd    4.188694  -1.008126  2.902105
