21
Energy: -169052.8639771  eV PBE+vdW (tier 2 basis)
N    -0.219770  -0.830861  3.055930
C    0.583151  -1.450905  2.070333
C    2.008034  -0.704908  1.916099
O    2.044358  0.413378  1.341089
H    -0.026088  -1.061474  4.027519
H    -0.459772  0.150120  2.922952
H    0.848649  -2.459963  2.407070
C    -0.089039  -1.474202  0.682755
C    -1.419584  -2.272973  0.724065
N    -2.232201  -2.128925  -0.481328
C    -1.342481  -3.767391  0.767838
C    -2.524375  -3.318605  -0.951383
N    -1.988588  -4.346395  -0.205738
H    0.586590  -1.906979  -0.066636
H    -0.308546  -0.442530  0.372387
H    -0.829626  -4.348356  1.535889
H    -3.136114  -3.482314  -1.839080
H    -2.556523  -1.244087  -0.873350
O    2.998054  -1.286682  2.435559
H    -2.002717  -1.920238  1.601565
Cd    4.293588  0.495291  1.882466
