21
Energy: -169052.9560155  eV PBE+vdW (tier 2 basis)
N    0.383588  -0.417852  -0.040156
C    -0.061771  -0.267569  1.267184
C    1.026285  -0.453263  2.314993
O    0.870659  -0.027438  3.474355
H    -0.045613  0.110811  -0.790787
H    0.966228  -1.201235  -0.316305
H    -0.492501  0.731774  1.414962
C    -1.283302  -1.341951  1.687479
C    -2.061847  -1.043904  2.891905
N    -3.049381  -0.127840  2.968568
C    -2.057809  -1.648559  4.220378
C    -3.636449  -0.182236  4.235596
N    -3.079281  -1.078946  4.994012
H    -0.830598  -2.338826  1.748699
H    -1.927955  -1.310549  0.801298
H    -1.813810  -2.706442  4.370486
H    -4.467978  0.464272  4.508926
H    -3.375344  0.466553  2.205799
O    2.076366  -1.113594  1.893011
H    2.771975  -1.187133  2.582262
Cd    -0.155464  -0.867072  5.278335
