21
Energy: -169052.7935470  eV PBE+vdW (tier 2 basis)
N    -0.549612  -1.200169  -0.087067
C    0.128087  -0.411701  0.923978
C    1.608649  -0.174774  0.500712
O    1.817559  0.095694  -0.721873
H    -0.381465  -0.849208  -1.032360
H    -1.559491  -1.234744  0.072099
H    -0.226805  0.639761  0.979720
C    -0.033382  -1.017883  2.331735
C    0.321426  -2.453267  2.491110
N    0.276784  -3.355821  1.541622
C    0.741307  -3.183663  3.721383
C    0.648609  -4.637748  2.089042
N    0.919538  -4.564888  3.331681
H    -1.097107  -0.920974  2.622044
H    0.515656  -0.423354  3.073345
H    -0.006444  -3.099460  4.533495
H    0.668815  -5.522693  1.455572
H    -0.005611  -3.107937  0.576697
O    2.521902  -0.181742  1.379931
H    1.669866  -2.770907  4.157979
Cd    3.961719  0.525478  -0.228846
