21
Energy: -169053.0657030  eV PBE+vdW (tier 2 basis)
N    -0.472461  -1.565978  1.927595
C    0.782246  -1.740907  1.095535
C    1.950522  -0.955263  1.697488
O    1.691342  -0.090875  2.593340
H    -0.509078  -2.211895  2.731715
H    -0.513030  -0.601608  2.296481
H    1.038167  -2.808498  1.098451
C    0.357930  -1.259302  -0.301647
C    -1.120697  -1.707340  -0.445689
N    -1.309950  -3.052833  -0.970352
C    -1.656060  -1.915566  1.005865
C    -1.756500  -3.875348  0.010560
N    -1.931857  -3.321572  1.179806
H    1.011133  -1.669873  -1.079023
H    0.405168  -0.163316  -0.366383
H    -2.504697  -1.287223  1.307840
H    -1.943882  -4.932118  -0.182343
H    -1.199810  -3.310820  -1.947647
O    3.113041  -1.193112  1.259060
H    -1.692442  -0.977852  -1.031930
Cd    3.949915  0.371302  2.652278
