21
Energy: -169053.9363473  eV PBE+vdW (tier 2 basis)
N    0.449431  -1.053595  0.005708
C    0.162050  -0.333337  1.271342
C    1.506602  -0.016075  1.940444
O    2.497678  -0.757549  1.842026
H    -0.419854  -1.373031  -0.435061
H    0.902525  -0.431632  -0.673630
H    -0.366070  0.613067  1.086727
C    -0.750635  -1.184801  2.221659
C    -0.149080  -2.453478  2.751082
N    0.203577  -2.648251  4.039128
C    0.201319  -3.694917  2.107878
C    0.720338  -3.936235  4.181592
N    0.733248  -4.578282  3.049030
H    -1.670036  -1.421486  1.663232
H    -1.061004  -0.536513  3.051802
H    -0.315312  -4.101911  1.232133
H    1.059331  -4.315848  5.142844
H    0.078825  -1.981757  4.802137
O    1.482867  1.084273  2.646084
H    2.352646  1.265865  3.070310
Cd    1.882098  -2.717306  0.835168
