21
Energy: -169053.6129824  eV PBE+vdW (tier 2 basis)
N    -0.463856  1.317365  0.658493
C    -0.057720  0.226087  1.636576
C    0.994468  -0.643547  0.917999
O    0.831713  -0.803623  -0.330933
H    -1.358304  1.763911  0.907616
H    -0.522535  0.903723  -0.290388
H    0.248529  2.062987  0.616142
H    0.363346  0.721063  2.517944
C    -1.289714  -0.683963  2.066532
C    -1.286998  -2.021498  1.386983
N    -1.810085  -2.298361  0.126347
C    -0.398947  -3.042019  1.626223
C    -1.182415  -3.373613  -0.387893
N    -0.274835  -3.846220  0.489866
H    -2.229127  -0.131833  1.914961
H    -1.203823  -0.839250  3.148971
H    -2.595263  -1.825744  -0.317706
H    0.189528  -3.225709  2.519868
H    -1.406318  -3.806102  -1.358328
O    1.819850  -1.291106  1.620478
Cd    1.765019  -2.947472  0.039325
