21
Energy: -169052.7324699  eV PBE+vdW (tier 2 basis)
N    0.548464  0.614940  -0.855195
C    -0.258496  0.326021  0.370084
C    0.568647  -0.269073  1.549588
O    1.848236  -0.025987  1.664189
H    0.596406  -0.201453  -1.476345
H    0.142352  1.377792  -1.406780
H    -0.619095  1.301397  0.733893
C    -1.462178  -0.609250  0.086268
C    -2.279083  -0.916067  1.300000
N    -2.706609  -2.114656  1.624869
C    -2.979718  0.018344  2.242827
C    -3.583118  -2.018806  2.764236
N    -3.752881  -0.814812  3.138950
H    -1.107600  -1.544985  -0.371133
H    -2.131665  -0.124545  -0.643786
H    -3.654316  0.702876  1.693439
H    -4.016719  -2.918035  3.198542
H    -2.435451  -2.991048  1.174719
O    -0.047361  -0.917669  2.384021
H    -2.293638  0.661849  2.815903
Cd    2.673823  0.987166  0.029715
