21
Energy: -169052.8642717  eV PBE+vdW (tier 2 basis)
N    -1.001155  0.719691  0.202390
C    -0.196335  0.268927  1.313359
C    1.102462  -0.354718  0.828890
O    1.193937  -0.829635  -0.323644
H    -1.728008  1.370057  0.504135
H    -0.467665  1.163126  -0.544588
H    0.019806  1.041563  2.075476
C    -0.972194  -0.910728  2.071381
C    -1.026848  -2.117373  1.204037
N    -1.760481  -2.191551  0.038017
C    -0.143814  -3.178774  1.135880
C    -1.306024  -3.202851  -0.732075
N    -0.306081  -3.844761  -0.107804
H    -1.965444  -0.505307  2.307141
H    -0.483359  -1.151880  3.023575
H    0.516051  -3.571804  1.905884
H    -1.713627  -3.463375  -1.704477
H    -2.501787  -1.541134  -0.223960
O    2.097108  -0.542365  1.667039
H    1.993355  -0.065911  2.517670
Cd    1.636381  -2.959131  -0.700377
