21
Energy: -169052.3245275  eV PBE+vdW (tier 2 basis)
N    0.892923  0.656145  1.070793
C    0.550872  -0.377310  2.109054
C    1.763801  -1.292683  2.461230
O    2.979548  -0.799167  2.425002
H    0.239741  1.445923  1.111854
H    0.833579  0.282619  0.117169
H    0.384136  0.197859  3.034213
C    -0.774277  -1.142916  1.848103
C    -0.674838  -2.536932  1.171490
N    -1.945392  -3.247312  1.116944
C    -0.273198  -2.674961  -0.253060
C    -2.139250  -3.696118  -0.101967
N    -1.126903  -3.354101  -0.970638
H    -1.467724  -0.502145  1.286049
H    -1.234761  -1.313326  2.830328
H    0.664217  -2.319188  -0.684067
H    -3.003345  -4.292328  -0.395904
H    -2.555349  -3.427557  1.915980
O    1.564000  -2.440695  2.829449
H    0.056305  -3.116493  1.792345
Cd    3.123914  1.113685  1.594634
