21
Energy: -169053.0591496  eV PBE+vdW (tier 2 basis)
N    -0.603397  1.538200  0.510691
C    -0.115429  1.204062  1.911793
C    1.236485  0.462865  1.780874
O    1.726955  -0.046855  2.827055
H    0.213785  1.582027  -0.126004
H    -1.113756  2.431655  0.476739
H    0.127666  2.160881  2.397176
C    -1.188459  0.488643  2.740062
C    -1.732997  -0.758495  2.122327
N    -2.887748  -1.358464  2.550911
C    -1.265469  -1.603110  1.090930
C    -3.073333  -2.492160  1.800358
N    -2.094986  -2.655805  0.916591
H    -2.005776  1.201980  2.939437
H    -0.740319  0.276965  3.724946
H    -0.349574  -1.518254  0.509605
H    -3.931854  -3.145945  1.927833
H    -3.504440  -1.033053  3.292579
O    1.803959  0.460548  0.647415
H    -1.231527  0.791557  0.163228
Cd    3.611218  -0.628244  1.699454
