21
Energy: -169053.1815460  eV PBE+vdW (tier 2 basis)
N    0.175925  -1.064283  -0.010422
C    0.088425  -0.329436  1.320460
C    1.521996  -0.186379  1.886322
O    1.636463  0.187599  3.085263
H    -0.631385  -0.852571  -0.614478
H    0.216109  -2.086131  0.117234
H    -0.230272  0.694618  1.071903
C    -0.895473  -0.975374  2.305622
C    -2.287525  -0.987026  1.780468
N    -3.144918  -2.054725  1.866646
C    -3.050127  0.023469  1.143493
C    -4.341302  -1.668914  1.315273
N    -4.293523  -0.417049  0.865821
H    -0.817629  -0.378378  3.232721
H    -0.558209  -1.987291  2.578764
H    -2.752871  1.047629  0.927331
H    -5.203853  -2.328403  1.266926
H    -2.965979  -2.947861  2.320281
O    2.481475  -0.406637  1.092527
H    1.055369  -0.785926  -0.482570
Cd    3.924304  0.213065  2.874418
