21
Energy: -169053.0653249  eV PBE+vdW (tier 2 basis)
N    1.194631  1.890692  2.923456
C    1.508569  0.729152  3.849895
C    2.182701  -0.374295  2.997622
O    2.834068  0.032167  1.983600
H    1.122980  2.782715  3.433780
H    1.939327  1.966110  2.207950
H    2.290316  1.086734  4.539238
C    0.271492  0.295010  4.662364
C    -0.934765  -0.053077  3.865974
N    -1.342470  -1.327625  3.566758
C    -1.931793  0.775413  3.296531
C    -2.510364  -1.231024  2.851893
N    -2.875961  0.035697  2.678281
H    0.017243  1.127432  5.339502
H    0.590548  -0.538062  5.303258
H    -2.033302  1.855684  3.393510
H    -3.045961  -2.101423  2.482178
H    -0.887375  -2.189864  3.856543
O    2.119784  -1.574786  3.369591
H    0.291518  1.724969  2.439699
Cd    3.597815  -2.121622  1.651375
