21
Energy: -169053.1708293  eV PBE+vdW (tier 2 basis)
N    -0.149299  -0.017152  -0.035557
C    0.014687  -0.503936  1.382480
C    1.536061  -0.683660  1.567905
O    2.272410  -0.733916  0.606622
H    0.659220  -0.396940  -0.573225
H    -1.080913  -0.333070  -0.409243
H    -0.376736  0.261523  2.063687
C    -0.714955  -1.851543  1.596273
C    -2.167250  -1.845306  1.267776
N    -2.625674  -1.238090  0.108089
C    -3.259711  -2.333244  1.991771
C    -3.931965  -1.356805  0.120637
N    -4.377690  -1.973742  1.300189
H    -0.549376  -2.167611  2.633869
H    -0.231064  -2.620184  0.962254
H    -3.296532  -2.810008  2.965618
H    -4.608428  -0.959739  -0.631663
H    -0.090884  1.007312  -0.094649
O    1.858120  -0.800345  2.850388
H    2.826110  -0.937337  2.938371
Cd    -6.245130  -3.024208  1.232408
