21
Energy: -169052.8140171  eV PBE+vdW (tier 2 basis)
N    0.701373  -0.388596  0.322452
C    0.198763  -0.256953  1.623817
C    1.367000  -0.614122  2.721687
O    1.356390  -1.747812  3.261892
H    0.831418  -1.312949  -0.080800
H    1.332365  0.324450  -0.033055
H    -0.021732  0.800546  1.822956
C    -1.040519  -1.153490  1.825914
C    -1.802747  -0.956786  3.084020
N    -2.462312  -1.901799  3.710066
C    -2.101029  0.294604  3.846504
C    -3.167660  -1.336317  4.835119
N    -2.967457  -0.083355  4.939618
H    -0.777390  -2.212588  1.695815
H    -1.736673  -0.897825  1.004095
H    -2.598036  1.048716  3.205149
H    -3.779206  -1.970603  5.474972
H    -2.489818  -2.888899  3.440105
O    2.238007  0.273208  2.896254
H    -1.195331  0.802424  4.224705
Cd    3.439594  -1.166854  4.199716
