21
Energy: -169053.0241555  eV PBE+vdW (tier 2 basis)
N    -0.265796  0.324018  0.794903
C    0.631394  0.049234  1.867238
C    2.061969  -0.558429  1.445792
O    2.486785  -0.332701  0.284252
H    0.055829  1.041348  0.144944
H    -0.580470  -0.495037  0.272637
H    0.941078  1.006716  2.321814
C    -0.011043  -0.843992  2.951508
C    -1.233539  -0.276745  3.585977
N    -2.066644  0.569000  3.033713
C    -1.789032  -0.555486  4.943548
C    -3.138062  0.854632  3.956816
N    -3.002709  0.220818  5.053472
H    0.723272  -1.074908  3.734329
H    -0.294718  -1.823889  2.523829
H    -1.991757  -1.631334  5.104608
H    -3.935463  1.541607  3.679158
H    -1.935507  0.923520  2.074725
O    2.712623  -1.183308  2.333377
H    -1.076783  -0.283456  5.745730
Cd    4.412573  -1.405609  0.846630
