21
Energy: -169052.9634998  eV PBE+vdW (tier 2 basis)
N    -0.702127  -2.683922  2.705887
C    0.010113  -1.463067  2.779965
C    1.579238  -1.713148  3.075326
O    1.953624  -1.857308  4.268587
H    -2.197094  0.795549  1.662407
H    -0.759092  -3.249957  3.550792
H    0.004470  -0.979721  1.794905
C    -0.551200  -0.523322  3.868408
C    -1.959979  -0.102182  3.624884
N    -2.803480  0.244669  4.567278
C    -2.706662  0.089778  2.345145
C    -4.051725  0.660393  3.970106
N    -4.018648  0.579317  2.700565
H    0.057678  0.398211  3.903508
H    -0.450359  -0.985189  4.861925
H    -2.789775  -0.855363  1.776592
H    -4.878168  0.988172  4.598733
H    -2.615666  0.232450  5.573457
O    2.327409  -1.802515  2.065712
H    -0.568590  -3.245014  1.867297
Cd    4.068034  -2.299834  3.438523
