21
Energy: -169053.1126894  eV PBE+vdW (tier 2 basis)
N    -0.255661  0.655066  0.100619
C    -0.066355  0.194120  1.536737
C    0.837900  -1.060216  1.529017
O    0.578112  -2.069469  2.133558
H    0.635753  0.603924  -0.414905
H    -0.605958  1.620877  0.049581
H    0.471343  0.992501  2.067557
C    -1.416503  -0.082350  2.203675
C    -2.184529  -1.178718  1.550461
N    -2.194294  -1.292246  0.168717
C    -2.866735  -2.266034  2.109978
C    -2.854592  -2.397745  -0.096716
N    -3.235404  -3.065394  1.075474
H    -2.024371  0.841709  2.187651
H    -1.241634  -0.306285  3.262916
H    -2.990047  -2.547623  3.150239
H    -3.029498  -2.802014  -1.090197
H    -0.969922  0.000300  -0.330757
O    1.923724  -0.830718  0.770614
H    2.522657  -1.607062  0.796962
Cd    -4.948986  -4.368623  0.971820
