21
Energy: -169052.5324404  eV PBE+vdW (tier 2 basis)
N    1.184994  0.775919  0.653212
C    0.453473  -0.422134  1.206594
C    1.173693  -1.154596  2.374213
O    2.436217  -0.954097  2.649590
H    0.717038  1.644331  0.933292
H    1.195287  0.779580  -0.372656
H    -0.472980  -0.045724  1.663939
C    0.090350  -1.383565  0.041790
C    -0.428253  -2.797852  0.416055
N    -1.534486  -2.860829  1.368085
C    -1.063229  -3.540804  -0.726534
C    -2.519963  -3.537865  0.836830
N    -2.269062  -3.950933  -0.459542
H    0.976410  -1.551620  -0.590391
H    -0.664097  -0.883101  -0.581706
H    -0.585585  -3.737507  -1.688237
H    -3.445356  -3.772146  1.364087
H    -1.419860  -2.556545  2.341664
O    0.495638  -1.955495  3.005806
H    0.396366  -3.410212  0.829442
Cd    3.286404  0.654200  1.617464
