21
Energy: -169053.5586692  eV PBE+vdW (tier 2 basis)
N    0.461263  1.088966  0.825941
C    0.058829  0.707550  2.202962
C    1.214150  -0.108101  2.826809
O    1.950950  -0.814717  2.127893
H    -0.307590  1.555257  0.333684
H    1.238559  1.758953  0.846011
H    -0.113644  1.605405  2.816943
C    -1.282732  -0.109297  2.219295
C    -1.450317  -1.179685  1.174629
N    -2.514207  -1.232442  0.342238
C    -0.672106  -2.333308  0.807409
C    -2.405517  -2.362684  -0.465753
N    -1.316112  -3.030655  -0.214289
H    -2.106861  0.612092  2.130972
H    -1.392719  -0.563844  3.216965
H    -0.002050  -2.875665  1.482737
H    -3.161320  -2.614549  -1.206314
H    -3.296829  -0.577110  0.325387
O    1.394832  -0.100740  4.122125
H    0.833890  0.533173  4.613733
Cd    1.104533  -1.030595  0.033622
