21
Energy: -169052.6538336  eV PBE+vdW (tier 2 basis)
N    -0.240978  1.411548  1.433709
C    -0.018758  0.042911  1.653602
C    1.586847  -0.257464  1.499360
O    2.023885  -0.625608  0.380387
H    -0.197619  1.785462  0.489064
H    -0.003687  2.072237  2.168460
H    -0.226509  -0.191187  2.706129
C    -0.855839  -0.817267  0.683882
C    -1.123341  -2.270499  1.158901
N    -1.991105  -3.003282  0.234037
C    0.021456  -3.234537  1.198707
C    -1.397898  -4.112554  -0.130831
N    -0.155426  -4.283615  0.447220
H    -0.390539  -0.837440  -0.310384
H    -1.831968  -0.321145  0.596810
H    0.912364  -3.121083  1.816463
H    -1.840901  -4.837301  -0.814893
H    -2.922097  -2.704340  -0.061555
O    2.287782  -0.016374  2.514040
H    -1.611722  -2.253496  2.153967
Cd    4.179054  -0.335970  1.260926
