21
Energy: -169053.7090005  eV PBE+vdW (tier 2 basis)
N    -0.009747  2.365995  1.023603
C    -0.329950  1.242573  1.992021
C    0.622936  0.070546  1.684272
O    0.860513  -0.734281  2.631904
H    0.168194  1.955433  0.087933
H    0.846622  2.871039  1.299805
H    -0.159518  1.620718  3.005507
C    -1.836088  0.764447  1.804163
C    -1.947626  -0.730424  1.795355
N    -2.029381  -1.530866  2.926504
C    -1.551330  -1.581578  0.790409
C    -1.606454  -2.772004  2.622751
N    -1.271574  -2.845202  1.317727
H    -2.214382  1.135024  0.840098
H    -2.449028  1.227116  2.587753
H    -1.423041  -1.369665  -0.266534
H    -1.568040  -3.594103  3.330950
H    -2.361138  -1.241313  3.845497
O    0.945514  -0.120821  0.476351
H    -0.768393  3.060924  0.955518
Cd    0.963910  -2.437558  1.147414
