21
Energy: -169053.9357797  eV PBE+vdW (tier 2 basis)
 N    0.39932   -2.29149    1.58039
 C    0.06181   -0.86434    1.35193
 C    0.86722   -0.03015    2.35754
 O    1.15490   -0.44082    3.49354
 H    1.37135   -2.48417    1.31271
 H   -0.18403   -2.90009    0.99622
 H    0.33372   -0.54216    0.33657
 C   -1.47719   -0.60560    1.51343
 C   -2.03923   -0.80936    2.88964
 N   -2.48097    0.18668    3.68606
 C   -2.23808   -1.99646    3.68265
 C   -2.94039   -0.35717    4.88577
 N   -2.80458   -1.65186    4.91119
 H   -1.99476   -1.27126    0.80479
 H   -1.67932    0.41705    1.16831
 H   -2.44021   -2.98873    3.26549
 H   -3.35432    0.26422    5.67670
 H   -2.51553    1.17762    3.44341
 O    1.17965    1.15693    1.90755
 H    1.69094    1.67655    2.56945
Cd    0.04069   -2.39740    3.89770
