21
Energy: -169052.4680834  eV PBE+vdW (tier 2 basis)
N    0.765451  0.951416  1.483451
C    0.505954  -0.503093  1.761928
C    1.809979  -1.347105  1.843935
O    2.944518  -0.794647  2.208078
H    0.005697  1.542765  1.835866
H    0.826011  1.127850  0.473431
H    0.080557  -0.543625  2.778456
C    -0.522713  -1.072811  0.750832
C    -1.034493  -2.523566  1.024356
N    -2.459055  -2.710409  0.713458
C    -0.477801  -3.633119  0.170628
C    -2.593189  -3.724286  -0.107331
N    -1.396107  -4.302248  -0.467219
H    -0.109404  -1.026855  -0.266858
H    -1.398700  -0.410269  0.764687
H    0.582108  -3.874384  0.104759
H    -3.559010  -4.083473  -0.465329
H    -3.231678  -2.186943  1.125739
O    1.735555  -2.546192  1.633940
H    -0.876620  -2.802197  2.083555
Cd    2.887941  1.282190  2.393637
