21
Energy: -169053.2061086  eV PBE+vdW (tier 2 basis)
N    0.247453  0.430592  2.280634
C    0.298208  -0.222316  3.652367
C    1.722153  -0.777168  3.872811
O    2.504611  -0.790921  2.874796
H    0.641180  1.382162  2.287955
H    -0.737275  0.489134  1.959148
H    0.112830  0.567104  4.392645
C    -0.775092  -1.342291  3.773113
C    -2.142401  -0.810534  3.545554
N    -2.947463  -0.239239  4.503631
C    -2.899911  -0.722668  2.354469
C    -4.110432  0.141057  3.887526
N    -4.094215  -0.139082  2.585675
H    -0.656426  -1.783010  4.773497
H    -0.561701  -2.137275  3.043352
H    -2.642646  -1.125496  1.375667
H    -4.931944  0.608707  4.424041
H    -2.764927  -0.182604  5.502914
O    2.014533  -1.200101  5.023603
H    0.810521  -0.121346  1.611060
Cd    4.084942  -1.816706  4.268542
