21
Energy: -169052.6771921  eV PBE+vdW (tier 2 basis)
N    -0.356413  1.330232  0.625528
C    -0.197778  0.064255  1.204227
C    1.232914  0.009583  2.013050
O    2.236024  -0.466764  1.425905
H    0.165425  1.573862  -0.212346
H    -0.621715  2.115788  1.212524
H    -0.941240  -0.060597  2.003284
C    -0.273544  -1.042584  0.135265
C    -0.343010  -2.495132  0.658619
N    -1.641383  -2.909754  1.201159
C    -0.205058  -3.540426  -0.410146
C    -2.069400  -3.958680  0.538021
N    -1.210892  -4.366527  -0.459380
H    0.608283  -0.973630  -0.516447
H    -1.158999  -0.845944  -0.484542
H    0.647493  -3.621715  -1.087203
H    -3.010698  -4.465051  0.755968
H    -2.129184  -2.481344  1.987654
O    1.231153  0.525617  3.157809
H    0.438480  -2.675658  1.422983
Cd    3.509542  0.285469  3.246069
