30
Energy: -579908.9497407  eV PBE+vdW (tier 2 basis)
C    0.319884  -0.032740  -0.005070
C    0.135501  0.068020  1.477782
O    1.131894  0.285548  2.209385
H    0.487601  0.976986  -0.408233
H    -0.546323  -0.479402  -0.506493
H    1.219590  -0.620699  -0.220213
N    -1.121021  -0.081494  1.981240
C    -1.433050  0.136716  3.378288
C    -0.766266  -0.904932  4.330462
O    -0.066875  -0.464744  5.291675
H    -1.894758  -0.204094  1.325725
H    -0.916860  1.071219  3.683882
C    -2.910730  0.453521  3.675777
C    -4.006114  -0.611270  3.465852
S    -4.311349  -1.121553  1.748940
C    -5.445244  0.139111  1.150940
H    -3.165290  1.357418  3.103159
H    -2.954318  0.751884  4.734252
H    -4.949764  -0.214909  3.865130
H    -3.791426  -1.533066  4.019596
H    -5.622095  -0.073775  0.090633
H    -5.023908  1.147307  1.266126
H    -6.393118  0.069525  1.703581
N    -0.894409  -2.223127  4.204856
C    -1.639049  -3.052709  3.261879
H    -0.383961  -2.734221  4.930199
H    -1.956381  -2.475945  2.391650
H    -2.508364  -3.513606  3.749132
H    -0.974859  -3.858253  2.923644
Hg    1.394935  1.170882  4.459406
