30
Energy: -579909.7979461  eV PBE+vdW (tier 2 basis)
C    -0.606226  1.951729  0.368143
C    -0.904657  1.085563  1.531554
O    -0.112357  1.084786  2.533447
H    -0.515436  2.998757  0.687727
H    -1.328937  1.839084  -0.444778
H    0.389492  1.663060  -0.009969
N    -1.999073  0.261257  1.543565
C    -3.387242  0.716659  1.347452
C    -3.507029  2.175401  1.838406
O    -2.934114  2.526860  2.899766
H    -1.887672  -0.544687  2.156680
H    -3.663487  0.648010  0.284921
C    -4.394716  -0.181503  2.141368
C    -4.013846  -0.935286  3.430406
S    -3.524694  -0.153202  5.047212
C    -4.721179  1.177255  5.319684
H    -4.716068  -0.992887  1.469584
H    -5.296418  0.419550  2.318695
H    -3.223109  -1.687388  3.283928
H    -4.898191  -1.515956  3.738853
H    -4.478548  1.606114  6.299461
H    -5.706160  0.693281  5.369000
H    -4.673656  1.937042  4.535443
N    -4.262097  2.991173  1.106361
C    -4.553684  4.386291  1.445874
H    -4.654584  2.632716  0.239020
H    -4.217565  5.040284  0.632741
H    -4.024475  4.646082  2.365722
H    -5.633303  4.518653  1.585674
Hg    -1.493908  0.918066  4.239265
