30
Energy: -579909.2548702  eV PBE+vdW (tier 2 basis)
C    1.520584  -0.069595  0.650227
C    0.863463  -0.378051  1.963359
O    1.496973  -0.088077  3.014271
H    2.441696  -0.662053  0.566646
H    1.819022  0.987190  0.644589
H    0.870819  -0.268952  -0.209040
N    -0.367790  -0.935021  1.930861
C    -1.302562  -1.100658  3.050089
C    -1.122430  -2.501798  3.686403
O    -0.246985  -2.700682  4.584229
H    -0.719701  -1.164564  1.004474
H    -1.000631  -0.389203  3.834359
C    -2.749165  -0.768090  2.637211
C    -3.073766  0.722353  2.454353
S    -2.398019  1.450935  0.932594
C    -3.184732  3.062915  0.908651
H    -3.411517  -1.127684  3.438739
H    -3.033366  -1.321197  1.726254
H    -2.726194  1.321737  3.311270
H    -4.166843  0.842388  2.406438
H    -2.808985  3.579692  0.018502
H    -2.926440  3.633611  1.811469
H    -4.276042  2.947752  0.839043
N    -1.870437  -3.511953  3.272551
C    -1.749567  -4.882917  3.787535
H    -2.610634  -3.325630  2.602027
H    -2.276131  -5.554546  3.104656
H    -2.194217  -4.954901  4.788054
H    -0.692864  -5.163861  3.844057
Hg    1.307462  -1.078140  5.112129
