30
Energy: -579909.0586489  eV PBE+vdW (tier 2 basis)
C    1.427978  1.400182  0.747293
C    0.336480  1.517317  1.774181
O    0.674476  1.424838  2.983978
H    2.220673  2.120707  0.984259
H    1.074925  1.565772  -0.276853
H    1.870996  0.397427  0.820339
N    -0.920202  1.703847  1.314672
C    -2.201231  1.727744  2.046874
C    -2.293339  2.946323  2.994928
O    -2.117725  2.863659  4.248702
H    -0.994221  1.751069  0.303059
H    -2.953337  1.908291  1.265984
C    -2.575939  0.402064  2.742223
C    -3.110792  -0.695806  1.815103
S    -1.852336  -1.416282  0.721568
C    -2.751552  -2.762830  -0.048936
H    -3.373400  0.618996  3.467779
H    -1.729803  0.008096  3.322987
H    -3.941717  -0.330170  1.189166
H    -3.514979  -1.519129  2.424437
H    -3.073284  -3.485959  0.714624
H    -3.628168  -2.382590  -0.591940
H    -2.057630  -3.244233  -0.746906
N    -2.641383  4.126213  2.487309
C    -3.068556  4.453151  1.124773
H    -2.682640  4.877039  3.179206
H    -2.280784  4.220955  0.397827
H    -3.262413  5.528609  1.083927
H    -3.998085  3.932113  0.858413
Hg    -0.302989  1.727501  5.088867
