30
Energy: -579909.0842210  eV PBE+vdW (tier 2 basis)
C    0.171386  1.758211  1.467904
C    0.081264  0.442889  2.184802
O    0.507728  -0.584961  1.579387
H    1.227466  2.063597  1.431724
H    -0.420679  2.551627  1.937044
H    -0.152249  1.621884  0.428366
N    -0.463159  0.445834  3.417458
C    -0.888702  -0.657963  4.297516
C    0.262765  -1.210958  5.152257
O    1.418887  -1.447793  4.684499
H    -0.716545  1.369930  3.756256
H    -1.593258  -0.177572  4.989810
C    -1.655129  -1.811124  3.601998
C    -2.858734  -1.390671  2.752086
S    -4.107772  -0.504077  3.725360
C    -5.519851  -0.481514  2.620092
H    -1.983690  -2.499790  4.394011
H    -0.986700  -2.391081  2.950513
H    -3.336018  -2.286953  2.328349
H    -2.563427  -0.754955  1.902602
H    -5.259821  0.007261  1.670981
H    -6.306420  0.083788  3.132342
H    -5.864060  -1.508288  2.428804
N    0.050923  -1.441437  6.445432
C    -1.110212  -1.085821  7.268415
H    0.855777  -1.843682  6.929356
H    -1.214081  0.003198  7.364750
H    -2.032871  -1.520831  6.866319
H    -0.949126  -1.500214  8.267568
Hg    1.846364  -2.189043  2.546885
