30
Energy: -579908.6977369  eV PBE+vdW (tier 2 basis)
C    -0.357182  -0.328057  -0.417417
C    -0.050450  -0.150412  1.032980
O    1.147974  -0.246889  1.423227
H    -0.145852  0.609267  -0.954938
H    -1.394364  -0.634403  -0.588462
H    0.323494  -1.083443  -0.830013
N    -1.028021  0.089264  1.943823
C    -2.128803  1.041897  1.781815
C    -1.495350  2.435096  2.043637
O    -0.561017  2.536385  2.887753
H    -0.681001  0.068201  2.904840
H    -2.518215  0.965127  0.758922
C    -3.213835  0.668094  2.818075
C    -4.508884  1.503094  2.830291
S    -5.610224  1.284064  1.405803
C    -6.570286  -0.161736  1.846047
H    -2.773575  0.755153  3.824636
H    -3.451393  -0.394752  2.672237
H    -4.300240  2.580777  2.875541
H    -5.083309  1.248346  3.731578
H    -7.213089  -0.387773  0.987765
H    -7.191695  0.060806  2.727084
H    -5.918922  -1.019709  2.066159
N    -1.921864  3.529223  1.406351
C    -3.024432  3.712587  0.467940
H    -1.400747  4.371762  1.661764
H    -2.679561  4.344095  -0.359745
H    -3.871724  4.219077  0.951004
H    -3.360329  2.754088  0.061842
Hg    1.717603  1.410327  3.018029
