30
Energy: -579909.6834968  eV PBE+vdW (tier 2 basis)
C    0.548660  2.571787  1.473060
C    0.385248  1.181994  2.002892
O    1.270325  0.321235  1.761088
H    0.644433  2.525268  0.380096
H    1.486973  2.993296  1.857941
H    -0.284417  3.231091  1.741063
N    -0.740435  0.904133  2.732473
C    -0.885642  -0.413712  3.303608
C    -1.472291  -1.470052  2.337363
O    -0.703572  -2.404147  1.957973
H    -1.424230  1.642329  2.874472
H    0.157450  -0.711916  3.300962
C    -1.234504  -0.595745  4.793318
C    0.052452  -0.802864  5.623840
S    1.217128  -2.189184  5.245269
C    0.184738  -3.671408  5.376427
H    -1.916411  -1.445687  4.925308
H    -1.752047  0.279704  5.212269
H    -0.192431  -0.989830  6.681820
H    0.705093  0.081485  5.592648
H    0.849596  -4.527716  5.213140
H    -0.633749  -3.677200  4.649978
H    -0.199419  -3.701529  6.405075
N    -2.727395  -1.411380  1.920146
C    -3.752016  -0.430791  2.278510
H    -2.993161  -2.134960  1.249860
H    -3.503644  0.067775  3.220556
H    -4.706905  -0.949577  2.415813
H    -3.867166  0.315760  1.482026
Hg    1.562341  -1.988158  2.633002
