30
Energy: -579908.6206843  eV PBE+vdW (tier 2 basis)
C    -0.023184  -0.395269  -0.196020
C    0.097617  -0.220267  1.281780
O    1.232242  0.015743  1.778825
H    -0.974669  -0.025145  -0.587828
H    0.105015  -1.456236  -0.456650
H    0.802430  0.151225  -0.667553
N    -0.983575  -0.210336  2.130779
C    -2.027508  -1.223215  2.220172
C    -1.291552  -2.511611  2.745870
O    -0.154098  -2.757641  2.292225
H    -0.721807  0.167554  3.044248
H    -2.712183  -0.864868  3.003369
C    -2.844516  -1.462525  0.928816
C    -4.151910  -2.229330  1.212310
S    -5.307292  -2.220489  -0.182758
C    -4.579771  -3.344280  -1.368922
H    -2.246374  -2.007110  0.188560
H    -3.086423  -0.475763  0.509595
H    -4.726781  -1.749150  2.017659
H    -3.966171  -3.277681  1.493882
H    -3.618150  -2.963687  -1.743939
H    -5.290029  -3.410610  -2.201583
H    -4.435696  -4.337469  -0.918790
N    -1.904911  -3.245792  3.676306
C    -1.298635  -4.407820  4.327418
H    -2.813207  -2.939293  4.017259
H    -2.088710  -5.121755  4.583064
H    -0.785697  -4.108957  5.252995
H    -0.581664  -4.871257  3.644080
Hg    2.057917  -1.727020  3.198224
