30
Energy: -579909.7846659  eV PBE+vdW (tier 2 basis)
C    0.524382  2.021052  0.007012
C    0.368986  1.106035  1.158866
O    1.305144  1.031873  2.033633
H    0.729736  3.041560  0.355382
H    -0.328131  1.992155  -0.677889
H    1.421503  1.697084  -0.548816
N    -0.722937  0.296484  1.293448
C    -2.130395  0.748055  1.292282
C    -2.162533  2.216684  1.765137
O    -1.354016  2.573980  2.655802
H    -0.545135  -0.544424  1.841443
H    -2.565846  0.621092  0.293152
C    -2.952985  -0.126026  2.291884
C    -3.094574  0.313227  3.762107
S    -1.790623  0.107135  5.074937
C    -1.593033  -1.692751  5.236292
H    -2.624517  -1.173335  2.209569
H    -3.989814  -0.137332  1.922130
H    -3.920177  -0.253117  4.221763
H    -3.346561  1.376950  3.860673
H    -2.538871  -2.058104  5.658476
H    -0.786227  -1.857044  5.960363
H    -1.372119  -2.186773  4.285930
N    -3.081498  3.039691  1.262299
C    -4.045543  2.784604  0.183571
H    -3.068266  3.976045  1.667149
H    -4.745306  1.981956  0.446777
H    -3.539244  2.546768  -0.760255
H    -4.627618  3.697675  0.032100
Hg    0.169870  0.846542  3.878162
