30
Energy: -579908.7431703  eV PBE+vdW (tier 2 basis)
C    -0.605591  -0.060872  -0.285557
C    -0.132890  0.183373  1.109315
O    1.093014  0.065177  1.379650
H    -0.448539  0.845226  -0.891081
H    -1.659736  -0.356110  -0.320455
H    0.012964  -0.847944  -0.734343
N    -0.996995  0.513762  2.107126
C    -2.078483  1.490856  2.006473
C    -1.380553  2.869015  2.174898
O    -0.368453  2.945967  2.922004
H    -0.535248  0.558789  3.018030
H    -2.553171  1.397726  1.022188
C    -3.090048  1.175934  3.140666
C    -4.336434  2.083873  3.176648
S    -5.377794  1.748927  4.621716
C    -6.425717  0.400472  4.091672
H    -2.559713  1.247674  4.102400
H    -3.392620  0.127557  3.014399
H    -4.056155  3.139614  3.299469
H    -4.951277  1.981663  2.271987
H    -5.826739  -0.475946  3.802826
H    -7.061088  0.146012  4.947963
H    -7.051224  0.715236  3.242632
N    -1.831908  3.961262  1.549503
C    -3.003052  4.159200  0.700661
H    -1.256171  4.788853  1.723369
H    -3.736509  4.805138  1.201384
H    -3.476047  3.206410  0.450225
H    -2.690421  4.652995  -0.228120
Hg    1.954419  1.805242  2.785086
