30
Energy: -579908.8973137  eV PBE+vdW (tier 2 basis)
C    0.139088  0.733820  0.267033
C    0.197665  0.915188  1.748413
O    1.114765  1.623310  2.246308
H    -0.352095  1.607051  -0.189887
H    -0.386354  -0.181834  -0.023703
H    1.163291  0.712425  -0.125601
N    -0.702806  0.313956  2.574152
C    -2.143088  0.270111  2.344390
C    -2.707445  1.565625  3.009179
O    -2.026615  2.175225  3.868712
H    -0.489935  0.485240  3.560046
H    -2.329853  0.301113  1.262053
C    -2.786065  -0.998764  2.956539
C    -2.236883  -2.285594  2.307491
S    -3.098209  -3.787909  2.828115
C    -2.450954  -4.126947  4.460415
H    -3.874470  -0.947701  2.816129
H    -2.607551  -1.005393  4.042001
H    -1.162468  -2.409552  2.510562
H    -2.382593  -2.266561  1.217793
H    -2.923861  -5.059145  4.790873
H    -2.702718  -3.321415  5.165789
H    -1.359078  -4.255101  4.417776
N    -3.930588  1.963146  2.649400
C    -4.597243  3.157992  3.162777
H    -4.465203  1.372899  2.014989
H    -3.851293  3.827750  3.597766
H    -5.324755  2.881452  3.939259
H    -5.126338  3.653741  2.341415
Hg    0.390441  3.147589  3.939402
