30
Energy: -579910.2201289  eV PBE+vdW (tier 2 basis)
C    0.621628  -1.342579  0.299382
C    0.430426  -0.858981  1.695396
O    1.534496  -0.619813  2.349880
H    1.181962  -0.593316  -0.276222
H    -0.330869  -1.559144  -0.195528
H    1.236328  -2.254083  0.321482
N    -0.793732  -0.720014  2.174811
C    -1.312214  -0.476753  3.521897
C    -2.712045  -1.209588  3.462625
O    -3.229274  -1.320086  2.354073
H    -1.604744  -0.981669  1.572733
H    -0.672645  -0.976337  4.271193
C    -1.544966  1.042525  3.848462
C    -1.269328  1.465499  5.298951
S    0.487371  1.863640  5.792556
C    0.701730  3.580699  5.224829
H    -2.601307  1.275761  3.645900
H    -0.991234  1.679075  3.140335
H    -1.569228  0.703617  6.031051
H    -1.808738  2.388676  5.553294
H    0.368807  3.724815  4.192597
H    1.764558  3.823976  5.340597
H    0.110236  4.190065  5.921372
N    -3.251786  -1.583685  4.629153
C    -4.572992  -2.220487  4.716990
H    -2.672942  -1.592251  5.462444
H    -5.047031  -1.929972  5.659601
H    -4.480028  -3.312963  4.674511
H    -5.184880  -1.880939  3.876966
Hg    1.446644  0.530560  4.058970
