30
Energy: -579909.1833646  eV PBE+vdW (tier 2 basis)
C    -0.900239  1.073491  0.393466
C    -0.558007  0.361535  1.673143
O    0.595320  0.570259  2.141145
H    -1.946920  0.941734  0.096294
H    -0.249592  0.687255  -0.403778
H    -0.677559  2.141379  0.505892
N    -1.507361  -0.435132  2.204092
C    -1.459290  -1.421009  3.305218
C    -1.367837  -0.744716  4.697148
O    -0.276762  -0.503718  5.290122
H    -2.374504  -0.443076  1.674811
H    -2.453245  -1.891739  3.272708
C    -0.427560  -2.542000  3.078625
C    -0.572831  -3.744944  4.018587
S    -2.068746  -4.705632  3.641956
C    -1.859330  -6.166952  4.659058
H    0.601045  -2.162044  3.183343
H    -0.515265  -2.868565  2.032399
H    -0.594360  -3.454196  5.081698
H    0.288257  -4.417811  3.890321
H    -2.754732  -6.780441  4.508540
H    -1.762611  -5.892111  5.718600
H    -0.968740  -6.725607  4.336257
N    -2.521183  -0.455426  5.291485
C    -2.641312  0.208584  6.591115
H    -3.381941  -0.762192  4.844346
H    -3.558177  0.806357  6.593987
H    -1.770523  0.849974  6.753424
H    -2.693288  -0.534354  7.398156
Hg    1.644930  0.099482  4.133749
