30
Energy: -579908.7170947  eV PBE+vdW (tier 2 basis)
C    -0.677453  1.078148  -1.341333
C    0.162282  1.243977  -0.117155
O    1.380064  1.554981  -0.243873
H    -1.012428  2.064677  -1.696838
H    -1.540810  0.427033  -1.167494
H    -0.053651  0.655166  -2.138806
N    -0.343087  1.041848  1.126448
C    -1.630868  1.535962  1.609641
C    -1.353841  3.013986  1.999858
O    -0.227819  3.315673  2.454623
H    0.374882  1.098506  1.852019
H    -2.367871  1.462418  0.801091
C    -2.053236  0.662523  2.819048
C    -3.363771  0.995807  3.535584
S    -3.252537  2.440799  4.627153
C    -4.903296  2.524609  5.315974
H    -1.229075  0.658210  3.549297
H    -2.137821  -0.367075  2.443970
H    -3.629502  0.143623  4.183353
H    -4.216861  1.133743  2.851653
H    -5.656152  2.639964  4.522783
H    -4.922512  3.391022  5.986486
H    -5.114551  1.607509  5.886747
N    -2.318622  3.946800  1.891826
C    -3.650291  3.860978  1.299840
H    -1.997064  4.883530  2.149765
H    -4.354864  4.438828  1.908125
H    -3.997142  2.826904  1.240821
H    -3.638133  4.291249  0.287501
Hg    2.177136  3.221460  1.269464
