30
Energy: -579909.1073495  eV PBE+vdW (tier 2 basis)
C    -0.409857  0.574662  -0.231771
C    -0.312161  0.407385  1.255506
O    0.808365  0.524968  1.806852
H    0.399850  0.012528  -0.711467
H    -0.257544  1.635773  -0.476688
H    -1.375944  0.249017  -0.634781
N    -1.453140  0.128973  1.939697
C    -1.549181  0.100585  3.389618
C    -0.878084  -1.160455  4.016692
O    0.134715  -1.001461  4.755748
H    -2.304576  0.043379  1.391676
H    -0.917363  0.918909  3.776227
C    -2.974440  0.349357  3.914526
C    -3.410084  1.826093  3.720139
S    -4.936609  2.258408  4.586346
C    -6.234708  1.645549  3.512731
H    -2.980620  0.112977  4.987163
H    -3.696536  -0.325239  3.435227
H    -3.526389  2.084014  2.657413
H    -2.659727  2.502150  4.154392
H    -6.168968  2.117908  2.522301
H    -7.181153  1.923213  3.991541
H    -6.190117  0.551701  3.413413
N    -1.343847  -2.391125  3.826147
C    -2.555401  -2.849761  3.148331
H    -0.805865  -3.107312  4.318063
H    -2.377318  -3.874061  2.803951
H    -2.776468  -2.236673  2.270723
H    -3.414278  -2.860811  3.832516
Hg    1.652463  0.654928  4.053671
