30
Energy: -579910.3453258  eV PBE+vdW (tier 2 basis)
C    -0.316531  0.550882  0.806300
C    -0.153068  0.215365  2.257974
O    0.977741  -0.018123  2.735807
H    -1.358796  0.556799  0.469209
H    0.262845  -0.155646  0.200383
H    0.117214  1.546492  0.631866
N    -1.284569  0.192608  3.017733
C    -1.366559  -0.016220  4.465256
C    -0.536740  1.059697  5.223699
O    0.649717  0.909442  5.683536
H    -2.159365  0.379733  2.536870
H    -2.401779  0.252401  4.706982
C    -1.263023  -1.514489  4.965090
C    -0.590389  -2.596566  4.091421
S    1.116712  -3.121573  4.619736
C    1.859071  -3.719912  3.076020
H    -2.305279  -1.846232  5.063314
H    -0.886976  -1.534893  6.000193
H    -0.538590  -2.318552  3.032553
H    -1.160413  -3.532405  4.168841
H    2.895011  -3.988513  3.314532
H    1.815325  -2.961980  2.288186
H    1.303288  -4.625148  2.797890
N    -1.110783  2.233291  5.440457
C    -2.466597  2.683978  5.106626
H    -0.509365  2.904148  5.922048
H    -2.580093  3.703131  5.486206
H    -3.227457  2.058876  5.591430
H    -2.621457  2.705243  4.021080
Hg    1.696904  -0.802834  4.913761
