30
Energy: -579908.6459655  eV PBE+vdW (tier 2 basis)
C    0.319498  1.556788  2.281228
C    0.057594  0.087198  2.300485
O    1.036739  -0.687379  2.515944
H    -0.394035  2.105531  2.905532
H    0.245471  1.923356  1.243783
H    1.341444  1.744991  2.625452
N    -1.180983  -0.441426  2.113461
C    -2.189049  -0.055436  1.114194
C    -1.617769  -0.386053  -0.292769
O    -0.546604  -1.049826  -0.461021
H    -1.228641  -1.424391  2.380362
H    -3.007517  -0.776599  1.269280
C    -2.781728  1.366110  1.322419
C    -4.314312  1.478609  1.167505
S    -5.005091  1.459713  -0.515900
C    -4.802342  3.164235  -1.052897
H    -2.270216  2.114638  0.702626
H    -2.581556  1.639192  2.366873
H    -4.653736  2.414754  1.632154
H    -4.821567  0.652716  1.686524
H    -5.133003  3.209043  -2.096825
H    -3.759340  3.497508  -0.970220
H    -5.446353  3.810410  -0.438458
N    -2.281438  0.028476  -1.357871
C    -1.938783  -0.317084  -2.741510
H    -3.147696  0.584833  -1.203793
H    -2.785635  -0.047403  -3.378640
H    -1.740375  -1.390855  -2.827714
H    -1.050559  0.239101  -3.066542
Hg    0.893663  -2.388581  0.921231
