30
Energy: -579909.1933426  eV PBE+vdW (tier 2 basis)
C    0.246037  -0.181192  0.333005
C    0.121182  -0.202927  1.830052
O    1.167423  -0.442363  2.490409
H    -0.637780  0.234393  -0.164685
H    0.408497  -1.210042  -0.019039
H    1.132893  0.400637  0.055397
N    -1.100977  0.054613  2.347140
C    -1.599635  0.008846  3.732917
C    -0.844653  0.996183  4.666720
O    0.099910  0.653462  5.433941
H    -1.815140  0.233282  1.646306
H    -2.624274  0.400592  3.655802
C    -1.718431  -1.426084  4.289649
C    -2.512905  -1.544054  5.606988
S    -4.291863  -1.277958  5.369769
C    -4.938901  -2.942636  5.187603
H    -0.719613  -1.871229  4.480810
H    -2.165484  -2.049822  3.502461
H    -2.182730  -0.799543  6.345722
H    -2.363429  -2.536437  6.049815
H    -6.010389  -2.838273  4.982326
H    -4.790745  -3.503407  6.121600
H    -4.451387  -3.468195  4.355043
N    -1.278662  2.252165  4.667917
C    -0.691203  3.329889  5.466601
H    -2.114392  2.473090  4.130980
H    -0.828870  4.274501  4.931246
H    0.373440  3.130770  5.618836
H    -1.186146  3.394852  6.444937
Hg    1.571977  -0.985271  4.696900
