30
Energy: -579908.7335079  eV PBE+vdW (tier 2 basis)
C    0.000459  0.755973  1.733961
C    -1.095642  0.671953  2.745803
O    -0.793994  0.786432  3.966654
H    -0.304753  1.266591  0.816187
H    0.354666  -0.257660  1.492160
H    0.843753  1.289559  2.187324
N    -2.422401  0.561304  2.413312
C    -3.017207  -0.418408  1.500495
C    -2.764228  -1.823733  2.144279
O    -1.748898  -1.972915  2.866957
H    -3.006278  0.721287  3.236664
H    -4.099773  -0.213831  1.528973
C    -2.554834  -0.358773  0.032617
C    -2.879158  0.966733  -0.669444
S    -4.635029  1.071120  -1.104815
C    -4.759538  2.664455  -1.907055
H    -3.027000  -1.192239  -0.508200
H    -1.476793  -0.544461  -0.042660
H    -2.302288  1.065318  -1.602524
H    -2.632363  1.837519  -0.038985
H    -5.806840  2.784016  -2.206461
H    -4.109340  2.690544  -2.794702
H    -4.468895  3.468998  -1.215478
N    -3.636671  -2.796064  1.882605
C    -3.559443  -4.152879  2.422346
H    -4.422143  -2.589149  1.268428
H    -4.368830  -4.318053  3.146258
H    -2.589484  -4.291434  2.905041
H    -3.670908  -4.872339  1.601832
Hg    -1.313835  -1.160362  5.220441
