30
Energy: -579908.7991358  eV PBE+vdW (tier 2 basis)
C    -0.481063  1.888780  0.909295
C    -0.088744  0.832656  1.887281
O    0.649813  1.156969  2.865372
H    -1.323113  2.469610  1.317878
H    -0.741292  1.479401  -0.072259
H    0.354512  2.593604  0.804766
N    -0.482445  -0.456456  1.741252
C    -1.805335  -0.910670  1.330737
C    -2.658278  -1.090765  2.625052
O    -2.246411  -0.786773  3.786343
H    0.035766  -1.115313  2.324148
H    -2.271139  -0.084338  0.772578
C    -1.718829  -2.171901  0.425708
C    -2.629418  -2.176517  -0.816832
S    -4.412624  -2.441143  -0.555838
C    -4.531504  -4.226315  -0.380431
H    -1.868917  -3.086850  1.015558
H    -0.688007  -2.217723  0.046320
H    -2.295100  -2.962427  -1.508490
H    -2.568457  -1.220483  -1.356280
H    -5.577753  -4.453258  -0.146163
H    -3.873272  -4.600845  0.414744
H    -4.261835  -4.698505  -1.336314
N    -3.888120  -1.554354  2.484279
C    -4.834855  -1.758478  3.586611
H    -4.220851  -1.751907  1.518594
H    -4.392393  -2.401190  4.355713
H    -5.730221  -2.236287  3.179969
H    -5.113342  -0.797827  4.036718
Hg    -0.174799  0.017364  4.728206
