30
Energy: -579909.7439181  eV PBE+vdW (tier 2 basis)
C    2.191722  -0.172112  2.229798
C    0.871983  -0.473491  2.867017
O    0.833309  -0.970025  4.020277
H    2.093540  0.239735  1.219259
H    2.786409  -1.094498  2.194173
H    2.741292  0.537497  2.862805
N    -0.265398  -0.198339  2.149180
C    -1.537657  -0.417831  2.790457
C    -2.041527  -1.882542  2.740714
O    -2.186133  -2.493667  3.839611
H    -0.176097  0.220553  1.227275
H    -1.220427  -0.354665  3.827877
C    -2.636631  0.659061  2.742392
C    -2.582321  1.537502  4.012579
S    -2.768988  0.788112  5.692264
C    -4.383139  -0.029852  5.623256
H    -3.624981  0.192517  2.642480
H    -2.528092  1.329343  1.876921
H    -3.390989  2.286131  4.002972
H    -1.632323  2.085468  4.090879
H    -4.420917  -0.816661  4.863471
H    -5.127810  0.751706  5.420044
H    -4.561380  -0.448843  6.620580
N    -2.306461  -2.449982  1.575770
C    -2.769097  -3.832843  1.407155
H    -2.211916  -1.882440  0.736865
H    -2.469861  -4.419908  2.279607
H    -2.312827  -4.247637  0.502829
H    -3.861501  -3.860211  1.306675
Hg    -1.112780  -1.277078  5.612819
