30
Energy: -579909.2550892  eV PBE+vdW (tier 2 basis)
C    -0.210689  0.355883  0.195710
C    -0.012538  -0.185727  1.580343
O    1.169166  -0.425630  1.951694
H    -1.243399  0.666198  0.002261
H    0.089004  -0.412595  -0.530330
H    0.462271  1.211031  0.050191
N    -1.111825  -0.368239  2.344407
C    -1.162617  -0.652887  3.783736
C    -1.288274  -2.179637  4.006430
O    -0.283554  -2.938924  3.843056
H    -2.000900  -0.187161  1.884272
H    -0.178060  -0.384518  4.199444
C    -2.227783  0.202795  4.493874
C    -1.887050  1.689686  4.678116
S    -2.026059  2.678529  3.159806
C    -1.841667  4.349918  3.784063
H    -2.355373  -0.204450  5.508204
H    -3.205084  0.108026  3.991626
H    -0.874373  1.826077  5.090836
H    -2.587245  2.126433  5.406478
H    -1.895497  5.014904  2.914858
H    -0.873576  4.470088  4.289961
H    -2.658886  4.583222  4.481874
N    -2.455881  -2.706973  4.338001
C    -2.677208  -4.144359  4.543190
H    -3.259996  -2.091610  4.422400
H    -2.790468  -4.655100  3.578512
H    -3.588284  -4.272338  5.133610
H    -1.823490  -4.573348  5.077386
Hg    1.827857  -2.094267  3.431433
