30
Energy: -579909.2904038  eV PBE+vdW (tier 2 basis)
C    0.469565  -0.040118  0.174437
C    0.066130  0.651704  1.443774
O    0.756336  1.637390  1.818171
H    1.453745  -0.504830  0.325550
H    0.590605  0.710635  -0.617329
H    -0.251015  -0.799770  -0.148463
N    -1.018317  0.177306  2.097624
C    -1.724061  0.796352  3.225504
C    -1.179198  0.233037  4.560419
O    -0.061560  0.624215  5.014965
H    -1.436039  -0.663182  1.705353
H    -1.447798  1.862982  3.232956
C    -3.249821  0.695407  3.043811
C    -3.775576  1.562032  1.889576
S    -5.574454  1.354663  1.741815
C    -5.994040  2.516257  0.444870
H    -3.727779  1.020001  3.979536
H    -3.544814  -0.354460  2.876491
H    -3.323788  1.289189  0.922751
H    -3.570043  2.630086  2.063849
H    -7.076927  2.431998  0.297723
H    -5.470550  2.261688  -0.487786
H    -5.738950  3.541722  0.748846
N    -1.866774  -0.686194  5.220057
C    -1.414254  -1.298655  6.475995
H    -2.742745  -1.015399  4.825040
H    -2.274576  -1.766824  6.961202
H    -0.993105  -0.527485  7.129112
H    -0.647262  -2.057638  6.276753
Hg    1.151194  2.330841  4.012598
