30
Energy: -579908.6551531  eV PBE+vdW (tier 2 basis)
C    -2.309859  1.301366  0.030263
C    -0.941650  1.150215  0.609696
O    -0.009667  1.853588  0.121408
H    -3.100080  1.239917  0.784205
H    -2.468968  0.529077  -0.737866
H    -2.362976  2.272028  -0.476320
N    -0.663675  0.355293  1.687424
C    -1.051030  -1.048151  1.867491
C    -0.343498  -1.846300  0.720326
O    -0.041425  -1.247093  -0.339581
H    0.273820  0.546640  2.045078
H    -0.597148  -1.346708  2.824953
C    -2.562059  -1.343020  1.938151
C    -3.304008  -0.599126  3.071164
S    -2.939397  -1.193400  4.747988
C    -4.238327  -2.387407  5.050473
H    -2.693778  -2.427892  2.056571
H    -3.052109  -1.091463  0.988401
H    -4.388268  -0.669496  2.915639
H    -3.027723  0.464948  3.087015
H    -4.022174  -2.854374  6.018072
H    -4.270788  -3.148727  4.257704
H    -5.210327  -1.871673  5.097411
N    -0.098177  -3.141210  0.926275
C    0.587687  -4.021287  -0.017826
H    -0.397887  -3.556231  1.806417
H    -0.032302  -4.907856  -0.202359
H    1.548338  -4.347045  0.403208
H    0.749238  -3.484287  -0.954864
Hg    1.716143  0.535369  -0.781237
