30
Energy: -579910.4442193  eV PBE+vdW (tier 2 basis)
C    -1.507806  0.777715  -0.751675
C    -0.867423  0.263408  0.499265
O    0.355785  -0.083976  0.390105
H    -1.447724  0.004655  -1.529604
H    -0.928821  1.639245  -1.112357
H    -2.552449  1.076736  -0.614195
N    -1.630931  0.222051  1.609421
C    -1.385246  -0.150018  3.027287
C    -0.318483  0.774819  3.648684
O    0.900579  0.623575  3.387976
H    -2.579234  0.545947  1.439135
H    -2.339871  0.092211  3.503786
C    -1.179152  -1.700735  3.261119
C    -0.147060  -2.169706  4.308240
S    1.555401  -2.663331  3.736064
C    1.305390  -4.337071  3.072532
H    -1.017430  -2.206169  2.297329
H    -2.153366  -2.084907  3.593395
H    -0.503908  -3.074550  4.818811
H    0.055116  -1.419856  5.083237
H    0.466164  -4.391254  2.373019
H    1.140278  -4.985719  3.942649
H    2.243364  -4.621043  2.580976
N    -0.720892  1.741889  4.474456
C    -2.077935  2.120629  4.885819
H    0.044433  2.321287  4.821645
H    -1.990332  2.919108  5.627990
H    -2.605218  1.284845  5.361898
H    -2.661866  2.509462  4.041853
Hg    1.444639  -1.149245  1.870137
