30
Energy: -579910.5694476  eV PBE+vdW (tier 2 basis)
C    -1.311985  0.607847  -0.573844
C    -0.721839  0.134894  0.717532
O    0.502650  -0.222855  0.664677
H    -2.365040  0.897132  -0.490381
H    -1.208259  -0.184217  -1.327476
H    -0.727682  1.467375  -0.931108
N    -1.525360  0.138314  1.799099
C    -1.337806  -0.181388  3.239613
C    -0.296087  0.761605  3.879296
O    0.928529  0.639805  3.636558
H    -2.461930  0.469143  1.583050
H    -2.312671  0.077733  3.668414
C    -1.145546  -1.723764  3.533435
C    -0.159842  -2.148896  4.641422
S    1.568936  -2.650554  4.162712
C    1.357055  -4.349505  3.551514
H    -0.940928  -2.262907  2.596540
H    -2.133518  -2.097422  3.835687
H    -0.534210  -3.036588  5.169203
H    0.002503  -1.369463  5.396660
H    2.317096  -4.645307  3.112345
H    0.549585  -4.434824  2.818522
H    1.156926  -4.966432  4.437205
N    -0.774255  1.699316  4.697043
C    0.053244  2.702290  5.372211
H    -1.778519  1.755455  4.842341
H    -0.153074  2.682396  6.448373
H    -0.179562  3.699975  4.980072
H    1.106186  2.475256  5.190000
Hg    1.532195  -1.210975  2.235642
