30
Energy: -579908.8544135  eV PBE+vdW (tier 2 basis)
C    -2.673167  -1.315776  0.056395
C    -1.288601  -1.034105  0.539998
O    -0.311761  -1.534269  -0.087696
H    -2.895627  -0.675895  -0.811287
H    -3.429092  -1.168126  0.834949
H    -2.713953  -2.351688  -0.304537
N    -1.062772  -0.281715  1.646977
C    -1.733675  0.979753  1.956507
C    -0.908810  2.091114  1.244005
O    0.278922  1.882163  0.881705
H    -0.077387  -0.268627  1.918720
H    -2.746353  0.950578  1.529548
C    -1.796206  1.218942  3.480962
C    -2.523148  0.114860  4.276348
S    -4.318065  0.032505  4.022393
C    -4.972200  1.035864  5.353596
H    -2.256409  2.196677  3.679606
H    -0.769180  1.282266  3.875615
H    -2.337322  0.248363  5.349833
H    -2.147134  -0.877780  3.989115
H    -6.056123  1.096312  5.204338
H    -4.529069  2.041998  5.345149
H    -4.757025  0.552182  6.319103
N    -1.487794  3.280136  1.072238
C    -0.840858  4.431240  0.442899
H    -2.413789  3.428071  1.467690
H    -0.072968  4.079105  -0.251400
H    -0.366269  5.067305  1.203222
H    -1.598507  5.014314  -0.090421
Hg    1.471100  -0.003440  -0.335842
