30
Energy: -579908.7336861  eV PBE+vdW (tier 2 basis)
C    0.112272  0.026716  0.090130
C    0.031988  0.026215  1.581347
O    1.081377  -0.193939  2.252149
H    0.475803  1.005595  -0.259060
H    -0.849721  -0.206196  -0.378508
H    0.861599  -0.712214  -0.220362
N    -1.141309  0.230711  2.230620
C    -2.118921  1.270730  1.900327
C    -1.529413  2.576380  2.498956
O    -0.854200  2.509325  3.562801
H    -1.062640  0.087096  3.239143
H    -2.207942  1.335043  0.808916
C    -3.469247  0.864323  2.538532
C    -4.662912  1.771961  2.223144
S    -6.148598  1.082773  3.010074
C    -7.446525  2.174423  2.446051
H    -3.329703  0.809347  3.629629
H    -3.681210  -0.156797  2.190599
H    -4.534383  2.795246  2.611273
H    -4.864834  1.841225  1.142355
H    -7.529859  2.139871  1.349412
H    -8.374830  1.809894  2.900945
H    -7.251788  3.207439  2.770591
N    -1.733391  3.763025  1.918505
C    -2.525625  4.122631  0.746713
H    -1.270717  4.534037  2.405803
H    -3.414725  4.695724  1.041808
H    -2.837421  3.234476  0.191580
H    -1.917129  4.752552  0.085883
Hg    1.307215  1.254993  4.114529
