30
Energy: -579909.0775168  eV PBE+vdW (tier 2 basis)
C    0.293986  0.357381  0.166637
C    0.044329  0.216505  1.642114
O    1.029886  -0.103719  2.360141
H    -0.556032  0.791586  -0.372265
H    0.511657  -0.637880  -0.246042
H    1.185699  0.975880  0.009751
N    -1.211244  0.447554  2.078860
C    -1.797557  0.262769  3.418679
C    -1.130556  1.182110  4.469461
O    -0.313122  0.752570  5.337329
H    -1.875002  0.681189  1.346057
H    -2.825898  0.640392  3.314878
C    -1.896401  -1.216875  3.836172
C    -2.778246  -1.492468  5.060518
S    -4.539089  -1.256770  4.683799
C    -5.340464  -1.871320  6.163895
H    -0.899377  -1.636527  4.042287
H    -2.274802  -1.776794  2.968776
H    -2.513422  -0.864351  5.926562
H    -2.652036  -2.538924  5.377502
H    -6.416991  -1.729322  6.016707
H    -5.001796  -1.312994  7.048044
H    -5.121130  -2.941295  6.293975
N    -1.483051  2.465357  4.504983
C    -2.492770  3.164179  3.706143
H    -0.995214  3.009695  5.218659
H    -2.558969  4.192319  4.072109
H    -3.482976  2.702622  3.815014
H    -2.205720  3.192350  2.647517
Hg    1.485045  -0.531329  4.603651
