30
Energy: -579909.6567333  eV PBE+vdW (tier 2 basis)
C    0.619694  0.249832  0.298677
C    -0.032947  0.411696  1.636226
O    0.470578  1.186746  2.485906
H    1.611902  -0.199112  0.445860
H    0.780342  1.239492  -0.147153
H    0.036741  -0.373707  -0.388178
N    -1.170313  -0.314896  1.882179
C    -1.829754  -0.140044  3.154893
C    -1.279169  -1.046261  4.279688
O    -0.593502  -0.495303  5.197023
H    -1.519369  -0.940055  1.161276
H    -1.380536  0.809441  3.429173
C    -3.333824  0.206462  3.218127
C    -3.515835  1.732000  3.315122
S    -2.854503  2.512785  4.868072
C    -2.971506  4.275191  4.464060
H    -3.808219  -0.293433  4.073692
H    -3.875448  -0.131646  2.322963
H    -4.585076  1.992133  3.363882
H    -3.070075  2.258104  2.459754
H    -2.548475  4.820796  5.315317
H    -4.041355  4.508590  4.377956
H    -2.442897  4.517378  3.536765
N    -1.497414  -2.350584  4.300396
C    -2.263297  -3.154991  3.349171
H    -1.052549  -2.849378  5.073291
H    -1.587366  -3.739385  2.711776
H    -2.899978  -2.520837  2.725314
H    -2.910993  -3.843791  3.902951
Hg    -0.316510  1.815424  4.839464
