30
Energy: -579908.9533762  eV PBE+vdW (tier 2 basis)
C    0.149131  1.746363  0.938163
C    -0.159096  0.709199  1.967943
O    0.674946  0.490808  2.888920
H    -0.091073  2.743470  1.338673
H    -0.393025  1.582960  0.000843
H    1.229343  1.740410  0.746251
N    -1.307419  -0.019347  1.918852
C    -2.633801  0.536514  1.653089
C    -3.168041  1.038360  3.026686
O    -2.683426  0.588864  4.096500
H    -1.338679  -0.739662  2.644072
H    -2.527417  1.386381  0.964637
C    -3.572265  -0.532441  1.049376
C    -3.070935  -1.058914  -0.300166
S    -4.127730  -2.412768  -0.873699
C    -3.550016  -2.696370  -2.541322
H    -4.576692  -0.102245  0.932986
H    -3.672221  -1.359328  1.770104
H    -3.068128  -0.276720  -1.076249
H    -2.041196  -1.449916  -0.223369
H    -3.716417  -1.803636  -3.162856
H    -2.479485  -2.950131  -2.539900
H    -4.134461  -3.537007  -2.932591
N    -4.173031  1.915947  3.020593
C    -4.795093  2.469179  4.222613
H    -4.588546  2.169646  2.126550
H    -5.068270  3.512542  4.033338
H    -4.090242  2.404222  5.055662
H    -5.701049  1.902037  4.478819
Hg    -0.317692  0.323967  5.051268
