30
Energy: -579909.8568321  eV PBE+vdW (tier 2 basis)
C    0.860117  -0.126565  1.275510
C    0.000199  0.144378  2.450271
O    0.513203  0.687810  3.489469
H    1.281082  0.815129  0.895422
H    0.342837  -0.679995  0.486950
H    1.720484  -0.723116  1.621682
N    -1.322761  -0.197986  2.458846
C    -2.307728  0.217356  1.442835
C    -1.894896  1.595783  0.878744
O    -1.416487  2.461972  1.650240
H    -1.697466  -0.318329  3.398921
H    -2.363664  -0.528299  0.636305
C    -3.732344  0.323593  2.073898
C    -3.948313  0.776705  3.530269
S    -3.460239  2.504731  4.047393
C    -4.145305  2.564490  5.727535
H    -4.188036  -0.678653  2.048202
H    -4.339357  0.943688  1.400895
H    -3.535905  0.079559  4.273444
H    -5.035421  0.793740  3.704531
H    -3.791873  3.501072  6.174649
H    -3.843897  1.700955  6.328450
H    -5.236944  2.605150  5.611617
N    -2.115738  1.802086  -0.416806
C    -1.878168  3.071744  -1.108584
H    -2.468522  1.027808  -0.974171
H    -1.492080  3.799098  -0.390747
H    -2.816103  3.439256  -1.541455
H    -1.147198  2.923070  -1.912043
Hg    -1.062725  2.082729  4.129013
