30
Energy: -579909.5828151  eV PBE+vdW (tier 2 basis)
C    -1.041788  -1.433471  -1.662015
C    -0.956991  -0.234909  -0.786183
O    0.000260  0.596291  -0.925497
H    -1.745370  -2.179909  -1.277825
H    -0.054635  -1.865336  -1.856943
H    -1.440741  -1.089660  -2.632376
N    -1.925315  0.068402  0.116814
C    -2.514890  -0.675509  1.235578
C    -2.669040  0.407693  2.345521
O    -1.811520  1.322025  2.455276
H    -1.914093  1.069275  0.330241
H    -3.510140  -1.058728  0.964929
C    -1.696130  -1.883617  1.786158
C    -0.162075  -1.877519  1.864668
S    0.671881  -0.607284  2.933057
C    2.379441  -1.219519  2.937513
H    -1.924792  -2.760561  1.161626
H    -2.115055  -2.120444  2.774132
H    0.322012  -1.856461  0.880020
H    0.143453  -2.821838  2.342041
H    2.987459  -0.447031  3.422719
H    2.744107  -1.432605  1.927729
H    2.381822  -2.126887  3.557181
N    -3.714658  0.290374  3.152872
C    -4.000725  1.184585  4.279394
H    -4.406682  -0.424256  2.939518
H    -4.286067  0.585350  5.150695
H    -4.825487  1.859983  4.019835
H    -3.108390  1.772712  4.505806
Hg    0.454224  1.221578  1.246633
