30
Energy: -579910.0549310  eV PBE+vdW (tier 2 basis)
C    0.006039  0.274508  -0.007290
C    -0.128760  -0.685376  1.123899
O    0.844739  -1.543046  1.243126
H    0.947586  0.831662  0.086784
H    -0.840750  0.966094  -0.067289
H    0.070146  -0.299299  -0.944254
N    -1.194329  -0.617447  1.915574
C    -1.845316  -1.640020  2.752287
C    -3.334376  -1.599102  2.186228
O    -3.705370  -0.527343  1.713579
H    -1.946809  0.041144  1.620407
H    -1.407022  -2.631050  2.549454
C    -1.965732  -1.328819  4.270070
C    -0.764586  -0.992174  5.165764
S    0.597038  -2.218074  5.488440
C    -0.232819  -3.755537  5.976282
H    -2.538694  -2.153206  4.717473
H    -2.617583  -0.444592  4.368469
H    -1.129528  -0.773396  6.181261
H    -0.212506  -0.100257  4.832818
H    0.554729  -4.508640  6.098962
H    -0.983616  -4.083353  5.252866
H    -0.689719  -3.543633  6.953009
N    -4.065140  -2.710269  2.315624
C    -5.466224  -2.801277  1.885430
H    -3.622288  -3.559466  2.651120
H    -6.070785  -3.229605  2.692351
H    -5.548215  -3.432148  0.992153
H    -5.824218  -1.795227  1.652646
Hg    1.095312  -2.317004  3.156124
