30
Energy: -579909.7983342  eV PBE+vdW (tier 2 basis)
C    1.469669  -2.064377  1.138408
C    0.731809  -1.272084  2.170679
O    1.239054  -1.102398  3.308592
H    2.406178  -1.544006  0.894036
H    0.888177  -2.212865  0.221561
H    1.744633  -3.038070  1.563234
N    -0.491129  -0.753571  1.832281
C    -1.140374  0.096471  2.801743
C    -1.939012  -0.689960  3.868237
O    -1.549883  -0.658469  5.075199
H    -0.846851  -0.894393  0.890719
H    -0.262345  0.435733  3.348892
C    -1.760788  1.437293  2.379924
C    -1.798401  2.397592  3.585750
S    -0.144192  2.769422  4.359088
C    -0.634962  3.798957  5.766196
H    -2.789855  1.346372  2.002608
H    -1.155745  1.863964  1.567721
H    -2.468278  2.053566  4.384839
H    -2.136442  3.394894  3.264952
H    -1.374534  3.297505  6.398394
H    -1.041709  4.730705  5.350001
H    0.280734  4.020083  6.326368
N    -3.008932  -1.376955  3.502330
C    -3.825115  -2.195337  4.406777
H    -3.299778  -1.324448  2.528887
H    -3.221217  -2.486563  5.270499
H    -4.160679  -3.086390  3.866953
H    -4.700336  -1.628844  4.749334
Hg    0.551300  0.385169  5.250798
