30
Energy: -579909.1392589  eV PBE+vdW (tier 2 basis)
C    0.170991  -1.203142  0.222299
C    0.028867  -0.769674  1.651770
O    1.043512  -0.340018  2.253367
H    0.349656  -0.313158  -0.398068
H    -0.714100  -1.730031  -0.152724
H    1.053602  -1.846462  0.127099
N    -1.197483  -0.867209  2.224489
C    -1.538498  -0.341544  3.538500
C    -0.963383  -1.205031  4.699872
O    -0.088049  -0.693005  5.455963
H    -1.943107  -1.241312  1.643631
H    -1.001600  0.613592  3.660260
C    -3.043363  -0.049456  3.687108
C    -3.462023  1.226371  2.910534
S    -5.253147  1.472037  2.856362
C    -5.611641  2.309986  4.399290
H    -3.264194  0.085286  4.754766
H    -3.640583  -0.905849  3.346029
H    -3.167198  1.156966  1.853407
H    -2.992866  2.123009  3.339072
H    -6.694525  2.480100  4.411910
H    -5.083424  3.273427  4.442043
H    -5.329808  1.691111  5.263286
N    -1.370947  -2.447071  4.943244
C    -2.447481  -3.226862  4.332597
H    -0.906757  -2.873903  5.747286
H    -2.510017  -3.044456  3.256412
H    -3.413601  -3.017089  4.810424
H    -2.214831  -4.286742  4.479254
Hg    1.533792  0.636544  4.385274
