30
Energy: -579909.1296184  eV PBE+vdW (tier 2 basis)
C    -0.078433  1.708795  0.249856
C    -0.710092  1.037025  1.434359
O    -1.363782  1.744702  2.240614
H    0.513837  2.564214  0.597372
H    -0.873845  2.107631  -0.394918
H    0.556809  1.033590  -0.334931
N    -0.536602  -0.300827  1.567468
C    -1.187602  -1.135362  2.570547
C    -0.576423  -0.956463  3.987780
O    -1.289740  -0.441587  4.900700
H    0.017917  -0.758088  0.849040
H    -2.216574  -0.761446  2.695541
C    -1.285630  -2.611857  2.133170
C    -2.377654  -2.846853  1.078629
S    -2.385753  -4.596392  0.589965
C    -3.805860  -4.690736  -0.496875
H    -1.507382  -3.214912  3.025408
H    -0.314855  -2.963507  1.755252
H    -2.218486  -2.244741  0.169301
H    -3.377060  -2.599256  1.469858
H    -3.856711  -5.729147  -0.844083
H    -3.682507  -4.015566  -1.355785
H    -4.725851  -4.436110  0.049147
N    0.657119  -1.345398  4.298268
C    1.641920  -2.097855  3.521635
H    0.900779  -1.161702  5.273902
H    2.633344  -1.859248  3.920523
H    1.623901  -1.805635  2.468154
H    1.482923  -3.180169  3.617538
Hg    -2.591117  1.390926  4.257549
