30
Energy: -579910.3551962  eV PBE+vdW (tier 2 basis)
C    -2.342044  0.319726  0.432015
C    -1.746976  -0.026766  1.761971
O    -0.540790  -0.338989  1.860283
H    -2.108886  -0.476077  -0.286356
H    -1.853308  1.231683  0.060466
H    -3.424745  0.482617  0.461546
N    -2.568996  0.028688  2.848013
C    -2.176441  -0.189963  4.240256
C    -0.980795  0.725039  4.634037
O    0.238235  0.349748  4.752110
H    -3.537768  0.283702  2.680071
H    -3.011246  0.226965  4.817813
C    -2.115244  -1.695327  4.721881
C    -1.969877  -2.841721  3.699567
S    -0.308872  -3.600802  3.358572
C    0.061267  -4.522082  4.880082
H    -3.085573  -1.874947  5.205397
H    -1.389892  -1.788703  5.544641
H    -2.333188  -2.564521  2.701465
H    -2.564370  -3.707485  4.023993
H    -0.066354  -3.916947  5.782345
H    1.096218  -4.871866  4.787940
H    -0.616704  -5.385805  4.882164
N    -1.246974  1.989585  4.921935
C    -2.541552  2.676773  4.983273
H    -0.420448  2.542564  5.155930
H    -3.205453  2.213732  5.724815
H    -3.024081  2.699316  3.998900
H    -2.356259  3.707740  5.296704
Hg    0.706116  -1.420877  3.601169
