30
Energy: -579909.2239242  eV PBE+vdW (tier 2 basis)
C    0.163543  -1.616041  0.206934
C    -0.040281  -0.851665  1.480457
O    0.970256  -0.259138  1.961691
H    0.538114  -0.923596  -0.560273
H    -0.755012  -2.090532  -0.156232
H    0.942306  -2.373894  0.362236
N    -1.277232  -0.833778  2.018537
C    -1.788212  0.078562  3.051773
C    -1.706699  -0.576397  4.447641
O    -0.612088  -0.559554  5.114529
H    -1.963544  -1.406488  1.535050
H    -1.071185  0.911139  3.105229
C    -3.122452  0.749182  2.627083
C    -4.272494  -0.083515  2.034348
S    -5.302054  -1.081045  3.165077
C    -6.341744  0.163531  3.951887
H    -2.846604  1.482137  1.853909
H    -3.483268  1.347058  3.476019
H    -3.938040  -0.796466  1.266479
H    -4.958397  0.600962  1.515372
H    -6.965691  -0.368926  4.678859
H    -6.985443  0.626884  3.191690
H    -5.748708  0.933224  4.461972
N    -2.749267  -1.166288  4.987570
C    -2.743270  -1.832179  6.296266
H    -3.644679  -1.180237  4.442636
H    -3.731810  -2.271409  6.454278
H    -2.531522  -1.107921  7.091932
H    -1.983464  -2.621910  6.320169
Hg    1.283791  0.205705  4.174151
