30
Energy: -579909.8207360  eV PBE+vdW (tier 2 basis)
C    0.834739  -1.046775  1.394418
C    -0.076174  0.132796  1.258023
O    0.244184  1.160878  0.640733
H    1.720030  -0.735833  1.967276
H    1.190351  -1.337921  0.398148
H    0.376542  -1.909694  1.889399
N    -1.316340  0.038427  1.850765
C    -2.254823  1.148815  2.016329
C    -2.879313  1.629884  0.677741
O    -4.178440  1.711099  0.540879
H    -1.571028  -0.845538  2.279723
H    -3.100114  0.697248  2.558545
C    -1.602030  2.251171  2.918740
C    -2.302617  3.568637  3.261144
S    -3.932394  3.637300  4.167684
C    -3.760450  2.482626  5.553702
H    -0.663565  2.562670  2.433821
H    -1.302308  1.736953  3.842240
H    -2.489337  4.210646  2.387047
H    -1.650717  4.147841  3.934853
H    -3.454598  1.480259  5.242262
H    -4.730138  2.461065  6.065072
H    -3.008759  2.933711  6.217664
N    -2.094808  1.904746  -0.327012
C    -2.523540  2.320181  -1.661283
H    -1.068148  1.727537  -0.120652
H    -3.510380  2.789293  -1.620165
H    -2.570030  1.443722  -2.322096
H    -1.779578  3.018298  -2.058525
Hg    -5.041376  2.465889  2.340496
