30
Energy: -579909.1496123  eV PBE+vdW (tier 2 basis)
C    -0.544256  -0.179830  -0.108179
C    -0.362424  -0.320084  1.371909
O    0.759718  -0.634590  1.835065
H    -0.034869  -1.006407  -0.616759
H    -0.057358  0.751596  -0.433346
H    -1.599464  -0.153025  -0.404478
N    -1.448750  -0.111517  2.167632
C    -1.371524  0.019158  3.608146
C    -1.050705  -1.339390  4.323821
O    0.032813  -1.447051  4.959585
H    -2.310201  0.175424  1.706885
H    -0.471004  0.616840  3.846517
C    -2.569792  0.749754  4.221023
C    -2.568097  2.282529  3.969201
S    -2.966590  2.816351  2.285229
C    -4.764101  2.869442  2.294576
H    -2.524016  0.612033  5.311779
H    -3.522796  0.312793  3.894205
H    -1.579461  2.709501  4.187740
H    -3.289265  2.753406  4.650836
H    -5.076122  3.123492  1.275213
H    -5.101657  3.652816  2.988305
H    -5.199758  1.904871  2.588360
N    -1.898752  -2.362146  4.310464
C    -3.257234  -2.458492  3.777805
H    -1.570726  -3.166665  4.848872
H    -3.437896  -3.506865  3.516287
H    -3.370173  -1.863065  2.868557
H    -3.999479  -2.157482  4.529086
Hg    1.867353  -0.372245  3.943395
