30
Energy: -579909.9549525  eV PBE+vdW (tier 2 basis)
C    -0.083498  -0.938795  0.193423
C    -0.076285  -0.553039  1.632341
O    0.671140  -1.293872  2.400191
H    0.940003  -0.912712  -0.203862
H    -0.739414  -0.297451  -0.404413
H    -0.427204  -1.981209  0.114140
N    -0.805264  0.483362  2.034199
C    -1.372559  0.815252  3.352253
C    -2.913192  0.978944  2.998276
O    -3.171534  1.315252  1.845330
H    -1.447182  0.896203  1.324565
H    -1.245938  -0.030548  4.046460
C    -0.945984  2.173880  3.971928
C    0.514275  2.549180  4.263957
S    1.547388  1.589756  5.477637
C    0.521450  1.423612  6.964943
H    -1.544423  2.310453  4.883161
H    -1.287884  2.966141  3.285139
H    0.542379  3.567409  4.681855
H    1.147353  2.563219  3.363896
H    1.086261  0.795406  7.664041
H    -0.463646  0.997600  6.756657
H    0.435655  2.439153  7.375976
N    -3.822257  0.784014  3.963891
C    -3.622987  0.332486  5.336842
H    -4.779412  0.964342  3.662759
H    -3.270120  1.141215  5.993973
H    -2.935705  -0.522288  5.385970
H    -4.585519  -0.011359  5.727356
Hg    1.294960  -0.386473  4.162580
