30
Energy: -579908.8445187  eV PBE+vdW (tier 2 basis)
C    -0.831033  -0.031934  -0.411269
C    -0.210297  -0.196735  0.936979
O    1.033488  -0.414655  1.014080
H    -0.676919  0.999770  -0.763375
H    -1.899127  -0.273850  -0.409664
H    -0.306901  -0.684806  -1.120528
N    -0.949590  -0.146052  2.072064
C    -1.991108  0.838175  2.364231
C    -1.235041  2.103385  2.858079
O    -0.125374  1.990129  3.435163
H    -0.409683  -0.389270  2.904825
H    -2.541911  1.058541  1.439128
C    -2.939759  0.237145  3.430714
C    -4.193131  1.065621  3.734028
S    -5.197640  0.204516  4.977311
C    -6.722053  1.137937  4.981621
H    -2.366162  0.076669  4.357093
H    -3.236608  -0.754593  3.061329
H    -3.952454  2.058471  4.151159
H    -4.822043  1.215686  2.841656
H    -7.212010  1.079429  3.997982
H    -7.362351  0.678216  5.743393
H    -6.531008  2.190540  5.238005
N    -1.818101  3.292802  2.672465
C    -1.233532  4.571261  3.075792
H    -2.735304  3.316915  2.233174
H    -0.154996  4.446656  3.203583
H    -1.664957  4.908748  4.028220
H    -1.442749  5.319544  2.303880
Hg    2.083318  0.802514  2.751574
