30
Energy: -579909.1418729  eV PBE+vdW (tier 2 basis)
C    -1.240354  -0.689556  0.312757
C    -0.722013  -0.907010  1.703156
O    0.492190  -1.245320  1.818378
H    -0.532447  -0.052280  -0.233185
H    -2.234480  -0.231155  0.297221
H    -1.267723  -1.656665  -0.208809
N    -1.575780  -0.726481  2.731573
C    -1.245652  -0.562472  4.154467
C    -1.425487  -1.898437  4.913560
O    -0.701608  -2.902022  4.621145
H    -2.520812  -0.445384  2.458801
H    -0.159170  -0.375296  4.212160
C    -1.909831  0.699489  4.749137
C    -3.428092  0.904427  4.596031
S    -3.864395  1.561962  2.953191
C    -5.643970  1.772568  3.080500
H    -1.393121  1.570615  4.319745
H    -1.659791  0.729316  5.820740
H    -3.760363  1.648099  5.336225
H    -4.030536  -0.003437  4.763973
H    -5.976449  2.172086  2.115614
H    -5.877335  2.493077  3.876749
H    -6.141810  0.814150  3.279739
N    -2.321715  -2.012803  5.880711
C    -2.526037  -3.228288  6.677311
H    -2.935454  -1.224161  6.063077
H    -3.202186  -3.918454  6.156286
H    -2.964530  -2.942897  7.637707
H    -1.564091  -3.725118  6.836263
Hg    1.270041  -2.613550  3.475780
