30
Energy: -579909.1528862  eV PBE+vdW (tier 2 basis)
C    0.227439  -0.034268  0.604930
C    -0.458610  0.936189  1.532273
O    -0.108012  2.124568  1.537719
H    -0.475196  -0.417145  -0.149816
H    0.657872  -0.886372  1.147972
H    1.031116  0.493520  0.084925
N    -1.463566  0.492884  2.353089
C    -1.959688  -0.880989  2.459627
C    -3.488839  -0.810217  2.568988
O    -4.054238  -0.544385  3.682904
H    -1.874795  1.205670  2.951841
H    -1.713562  -1.398041  1.523129
C    -1.307021  -1.698416  3.596145
C    -1.600071  -1.232202  5.029510
S    -3.303385  -1.645309  5.456523
C    -3.817819  -0.396533  6.617160
H    -0.218337  -1.651983  3.454440
H    -1.580823  -2.758332  3.477748
H    -1.433958  -0.158813  5.190258
H    -0.968544  -1.785366  5.743193
H    -4.876154  -0.579417  6.837066
H    -3.665255  0.608197  6.204324
H    -3.222851  -0.524583  7.536097
N    -4.217099  -0.962671  1.472630
C    -5.676639  -0.875445  1.409321
H    -3.720513  -1.069620  0.589469
H    -6.037694  -1.607730  0.679590
H    -5.982912  0.130191  1.090437
H    -6.095826  -1.084169  2.397098
Hg    -0.563680  4.547997  2.568388
