30
Energy: -579908.6828793  eV PBE+vdW (tier 2 basis)
C    0.384094  -0.050105  0.572462
C    -0.392595  0.127088  1.833566
O    -0.065285  -0.545604  2.847768
H    0.426784  0.861317  -0.029752
H    -0.047748  -0.871630  -0.018725
H    1.401450  -0.358223  0.843700
N    -1.401331  1.053205  1.978819
C    -2.586226  1.206268  1.139569
C    -3.493463  -0.008309  1.540387
O    -2.936722  -1.128196  1.627370
H    -1.623545  1.170429  2.970597
H    -3.074742  2.141878  1.468434
C    -2.345292  1.294644  -0.377924
C    -3.540836  1.863211  -1.151748
S    -3.738081  3.631956  -0.802421
C    -5.164661  4.081915  -1.785887
H    -2.111026  0.305774  -0.792440
H    -1.470182  1.935368  -0.554442
H    -4.488204  1.346151  -0.923408
H    -3.377668  1.751976  -2.234950
H    -5.348000  5.146904  -1.604324
H    -6.045710  3.490460  -1.498892
H    -4.945885  3.917173  -2.851982
N    -4.783328  0.210932  1.790127
C    -5.717422  -0.822445  2.241440
H    -5.128827  1.166512  1.737184
H    -5.376101  -1.797208  1.882290
H    -6.710684  -0.603546  1.835843
H    -5.781594  -0.833312  3.338749
Hg    -1.768617  -2.015342  3.675869
