30
Energy: -579909.2778155  eV PBE+vdW (tier 2 basis)
C    -0.460087  -2.322193  0.450489
C    -0.296927  -1.386973  1.612991
O    0.126042  -0.223881  1.369301
H    -0.973368  -3.252708  0.717373
H    0.535049  -2.552557  0.044701
H    -1.016848  -1.810148  -0.344821
N    -0.618900  -1.851327  2.840563
C    -0.750703  -1.084244  4.084649
C    0.580701  -1.113383  4.872227
O    1.555651  -0.378894  4.521733
H    -0.893786  -2.830170  2.880264
H    -0.890543  -0.028154  3.799919
C    -1.991072  -1.538658  4.875913
C    -3.337317  -1.210355  4.214861
S    -3.670540  0.576006  4.227745
C    -5.334410  0.659763  3.564030
H    -1.958894  -1.076471  5.873513
H    -1.962885  -2.630217  5.032662
H    -4.149041  -1.704388  4.769429
H    -3.393416  -1.568493  3.174669
H    -5.601430  1.721917  3.529874
H    -6.030479  0.122399  4.224051
H    -5.372202  0.229859  2.553446
N    0.719667  -1.928562  5.905048
C    1.952877  -2.044596  6.694984
H    -0.058070  -2.532204  6.155735
H    2.356570  -1.046506  6.894469
H    2.701923  -2.632205  6.149441
H    1.712541  -2.542993  7.637586
Hg    1.355898  1.139337  2.794156
