30
Energy: -579908.9183067  eV PBE+vdW (tier 2 basis)
C    -2.109421  0.798108  -0.278075
C    -1.264704  0.356684  0.871903
O    -0.338816  -0.477641  0.664252
H    -3.060323  1.236017  0.046708
H    -2.305079  -0.069997  -0.921188
H    -1.550412  1.519624  -0.892921
N    -1.495483  0.809949  2.130793
C    -1.744582  2.209220  2.476656
C    -0.345647  2.852858  2.700581
O    0.665858  2.133501  2.917205
H    -0.916667  0.340764  2.830879
H    -2.228807  2.696967  1.618811
C    -2.627811  2.321772  3.738348
C    -4.005404  1.660301  3.624320
S    -5.105797  2.541784  2.484519
C    -6.674480  1.716659  2.733678
H    -2.741301  3.380324  4.012272
H    -2.102005  1.849341  4.582934
H    -4.495477  1.641430  4.609908
H    -3.929630  0.614022  3.283116
H    -7.387054  2.179093  2.041669
H    -7.011852  1.860866  3.771238
H    -6.583686  0.640918  2.524495
N    -0.266331  4.183714  2.702369
C    0.966676  4.939163  2.921771
H    -1.128505  4.719481  2.625108
H    1.065215  5.210287  3.982311
H    0.932720  5.853325  2.320260
H    1.823430  4.324289  2.633289
Hg    1.653230  0.075342  1.820815
