30
Energy: -579909.9312993  eV PBE+vdW (tier 2 basis)
C    -0.219664  0.350978  -0.486911
C    -0.266096  0.090457  0.969230
O    0.827672  -0.112559  1.604192
H    0.465643  1.179360  -0.707129
H    -1.209175  0.516802  -0.922740
H    0.215308  -0.545643  -0.962391
N    -1.451694  0.017075  1.647293
C    -2.489816  1.068509  1.656435
C    -1.798449  2.421993  1.383763
O    -0.680980  2.644681  1.908767
H    -1.427780  -0.580851  2.473064
H    -3.262664  0.844597  0.907022
C    -3.180964  1.109746  3.055498
C    -2.583844  1.987370  4.174185
S    -1.210800  1.300296  5.223435
C    -0.722588  2.753631  6.195106
H    -3.362835  0.080658  3.402425
H    -4.185832  1.527328  2.894038
H    -3.358133  2.145484  4.941279
H    -2.251119  2.967331  3.813166
H    -0.466974  3.601612  5.552880
H    0.128660  2.445380  6.813301
H    -1.579978  2.984492  6.841827
N    -2.461826  3.302332  0.637315
C    -1.992329  4.656669  0.334297
H    -3.339522  3.008194  0.215374
H    -1.848048  4.764869  -0.747356
H    -1.042732  4.825395  0.847596
H    -2.734536  5.390548  0.669650
Hg    0.438929  0.885600  3.505339
