30
Energy: -579909.1693492  eV PBE+vdW (tier 2 basis)
C    -0.519094  0.610989  -0.018548
C    -0.704719  0.476353  1.465395
O    -0.241716  1.376273  2.211590
H    -0.925114  1.580406  -0.336512
H    -1.000743  -0.188853  -0.591788
H    0.555568  0.627383  -0.243908
N    -1.392029  -0.603918  1.907159
C    -1.767199  -0.970512  3.278888
C    -2.307789  0.231598  4.095328
O    -1.668609  0.781351  5.036127
H    -1.704082  -1.244655  1.182099
H    -2.639846  -1.627512  3.144588
C    -0.753409  -1.865875  4.058259
C    0.751154  -1.587358  3.895586
S    1.871426  -2.858296  4.433242
C    1.353410  -3.268671  6.101640
H    -0.921141  -2.896992  3.716848
H    -1.038250  -1.835267  5.117820
H    1.056358  -0.641257  4.466979
H    1.035216  -1.411629  2.848839
H    2.109230  -3.967019  6.480304
H    0.369517  -3.755704  6.111798
H    1.340021  -2.367751  6.732629
N    -3.552648  0.612053  3.815814
C    -4.260077  1.695830  4.494807
H    -4.085459  0.065139  3.142052
H    -4.875765  1.293834  5.311746
H    -4.912261  2.196808  3.771478
H    -3.533841  2.398948  4.911315
Hg    0.467781  1.478223  4.459995
