30
Energy: -579909.7097650  eV PBE+vdW (tier 2 basis)
C    0.664432  1.097880  1.421617
C    -0.055192  0.322977  2.479686
O    0.534249  0.043698  3.555229
H    1.046766  2.031246  1.854831
H    0.032521  1.327560  0.556408
H    1.537801  0.518088  1.092855
N    -1.344717  -0.063474  2.225076
C    -2.060352  -0.765636  3.265327
C    -1.805111  -2.289241  3.270612
O    -1.138308  -2.781397  4.235920
H    -1.762689  0.179048  1.331521
H    -1.476094  -0.432036  4.120935
C    -3.459225  -0.306011  3.703338
C    -3.719148  -0.689003  5.176726
S    -2.553558  -0.184398  6.528748
C    -2.408287  1.611250  6.336269
H    -4.279617  -0.746482  3.119335
H    -3.523476  0.782359  3.566169
H    -3.796938  -1.775745  5.322231
H    -4.669762  -0.252016  5.521299
H    -2.002228  1.904338  5.363312
H    -1.756607  1.959486  7.146052
H    -3.416658  2.024206  6.477661
N    -2.253348  -3.081828  2.309796
C    -3.037256  -2.738300  1.123840
H    -1.981516  -4.062324  2.408391
H    -3.440216  -1.724716  1.197070
H    -3.877990  -3.435475  1.032806
H    -2.413018  -2.817254  0.224511
Hg    -0.276457  -1.122798  5.641433
