30
Energy: -579908.9823563  eV PBE+vdW (tier 2 basis)
C    -1.004778  -0.763241  -0.206978
C    -0.288579  -0.730007  1.117219
O    0.417517  -1.730346  1.406079
H    -0.543945  -0.039255  -0.895936
H    -2.070772  -0.525655  -0.099028
H    -0.901438  -1.760345  -0.643439
N    -0.410780  0.332538  1.936826
C    -1.146000  1.573186  1.667800
C    -0.327482  2.717656  2.296097
O    -0.086382  2.645552  3.521680
H    0.110520  0.307365  2.813384
H    -1.224655  1.706066  0.582085
C    -2.577594  1.592071  2.263799
C    -2.606146  1.507067  3.793738
S    -3.973909  2.377218  4.509275
C    -4.033427  1.787261  6.196531
H    -3.146105  0.756613  1.831567
H    -3.065561  2.515508  1.916057
H    -1.664341  2.027561  4.167233
H    -2.546231  0.482349  4.190728
H    -3.082769  2.002050  6.707042
H    -4.234316  0.706569  6.217920
H    -4.848809  2.333717  6.684352
N    0.058875  3.733405  1.523429
C    0.829684  4.877198  2.011504
H    -0.112733  3.672281  0.522888
H    0.676322  4.976062  3.090150
H    0.488821  5.779784  1.493403
H    1.900433  4.733122  1.813890
Hg    2.090883  -2.301233  3.095767
