30
Energy: -579908.8107137  eV PBE+vdW (tier 2 basis)
C    -0.336902  -0.210835  -0.056328
C    -0.002014  0.077697  1.369627
O    1.206129  0.044817  1.737235
H    -0.129848  0.679246  -0.670229
H    -1.378601  -0.524171  -0.183715
H    0.331242  -1.001291  -0.421733
N    -0.967277  0.347172  2.287660
C    -2.088460  1.263469  2.075972
C    -1.603963  2.623381  2.648537
O    -0.653264  2.642995  3.479081
H    -0.572341  0.466648  3.223555
H    -2.258524  1.362559  0.996312
C    -3.399593  0.746511  2.715553
C    -3.304176  0.435332  4.214898
S    -4.931099  -0.073799  4.825116
C    -4.652224  -0.321272  6.572888
H    -3.690985  -0.160229  2.167227
H    -4.191931  1.487279  2.538867
H    -2.978132  1.303148  4.813702
H    -2.603603  -0.391551  4.421639
H    -5.611600  -0.639557  6.996831
H    -4.324887  0.615205  7.048984
H    -3.893336  -1.101662  6.733633
N    -2.203657  3.760358  2.288723
C    -3.370196  3.973826  1.436364
H    -1.800006  4.590782  2.727384
H    -3.204360  4.879038  0.840808
H    -4.276181  4.121688  2.040923
H    -3.522011  3.133254  0.753018
Hg    1.819746  1.795207  3.239700
