30
Energy: -579909.1448001  eV PBE+vdW (tier 2 basis)
C    -0.048239  -0.690555  0.155080
C    -0.047816  -0.457464  1.636931
O    1.051571  -0.258428  2.212807
H    0.761603  -1.382536  -0.102995
H    0.164566  0.263643  -0.348627
H    -1.003859  -1.083695  -0.211105
N    -1.240478  -0.478681  2.281227
C    -1.432056  -0.099287  3.674505
C    -0.827122  -1.131262  4.665484
O    0.091540  -0.752670  5.451475
H    -2.066425  -0.595918  1.699453
H    -0.838137  0.811533  3.863832
C    -2.907205  0.254606  3.954026
C    -3.123407  0.828454  5.360527
S    -4.884470  1.203176  5.591174
C    -4.912791  1.968054  7.209388
H    -3.552635  -0.621909  3.802474
H    -3.206684  1.004898  3.206492
H    -2.553827  1.758689  5.512439
H    -2.822515  0.125267  6.154895
H    -5.962074  2.206936  7.417415
H    -4.313615  2.890268  7.209417
H    -4.529312  1.275134  7.972342
N    -1.254919  -2.389122  4.744679
C    -2.362228  -3.066465  4.070806
H    -0.757093  -2.937074  5.449635
H    -2.087098  -4.120132  3.950068
H    -2.539143  -2.647151  3.078066
H    -3.280727  -3.018592  4.671271
Hg    1.770423  0.497215  4.358754
