30
Energy: -579909.5856085  eV PBE+vdW (tier 2 basis)
C    -1.123942  1.457961  -1.709008
C    -0.747887  1.273721  -0.283747
O    0.388219  1.764668  0.107081
H    -2.162637  1.183624  -1.914751
H    -0.444528  0.885528  -2.357023
H    -0.969455  2.516631  -1.965877
N    -1.502531  0.642358  0.616626
C    -2.613343  -0.295964  0.554112
C    -3.369629  0.019847  1.879297
O    -2.658011  0.345786  2.848128
H    -1.380397  0.871594  1.628623
H    -3.225972  -0.121524  -0.338103
C    -2.161472  -1.807161  0.622347
C    -0.686354  -2.212477  0.565895
S    0.512362  -1.998259  1.993336
C    -0.487442  -2.022119  3.502124
H    -2.602528  -2.326510  -0.242631
H    -2.629841  -2.273639  1.499134
H    -0.140884  -1.802167  -0.295242
H    -0.643507  -3.308663  0.458526
H    0.217798  -1.905946  4.334175
H    -0.928537  -3.028704  3.542321
H    -1.258671  -1.240900  3.504372
N    -4.691966  -0.126110  1.894054
C    -5.527381  0.093060  3.078509
H    -5.164768  -0.354560  1.023553
H    -6.231782  0.911155  2.887652
H    -4.882082  0.356654  3.919878
H    -6.089009  -0.819323  3.310969
Hg    1.112324  0.342451  1.584906
