30
Energy: -579909.3584570  eV PBE+vdW (tier 2 basis)
C    1.906103  -3.446758  2.530268
C    1.041188  -2.287163  2.919693
O    1.554480  -1.149780  3.052678
H    1.432936  -4.414689  2.733443
H    2.863918  -3.381191  3.058248
H    2.120968  -3.375155  1.453493
N    -0.283199  -2.516830  3.128545
C    -1.244855  -1.442620  3.308058
C    -0.997183  -0.647031  4.609175
O    -0.988118  0.627640  4.561204
H    -0.631292  -3.452285  2.929745
H    -1.112231  -0.699070  2.501978
C    -2.692731  -1.972286  3.231440
C    -3.761097  -0.876760  3.273874
S    -3.945568  -0.149694  4.928329
C    -5.109536  1.179575  4.637681
H    -2.874619  -2.716915  4.022424
H    -2.804743  -2.498581  2.271191
H    -4.741354  -1.297402  2.999404
H    -3.545817  -0.065738  2.561195
H    -4.697123  1.906668  3.924607
H    -5.290858  1.658267  5.606347
H    -6.050226  0.766349  4.243690
N    -0.827630  -1.311586  5.741060
C    -0.659534  -0.689421  7.052137
H    -0.878204  -2.329026  5.705136
H    -1.631535  -0.608577  7.559914
H    -0.241174  0.313091  6.926623
H    0.006914  -1.312572  7.657284
Hg    0.842120  1.182542  3.160133
