30
Energy: -579908.8914973  eV PBE+vdW (tier 2 basis)
C    0.546435  0.652385  0.124357
C    0.117382  -0.013488  1.397107
O    0.908151  -0.033178  2.372802
H    1.581392  0.371146  -0.101781
H    0.531499  1.741515  0.277177
H    -0.100823  0.400617  -0.723932
N    -1.117152  -0.579854  1.439810
C    -1.689850  -1.089193  2.675417
C    -0.967278  -2.355724  3.207123
O    -0.552244  -2.336330  4.405238
H    -1.717744  -0.433796  0.632877
H    -1.459930  -0.350706  3.462517
C    -3.238070  -1.142549  2.697699
C    -3.970447  -2.135422  1.776246
S    -5.764525  -1.840640  1.709155
C    -6.365917  -2.478977  3.270864
H    -3.580693  -0.119178  2.482320
H    -3.518038  -1.343131  3.741009
H    -3.813702  -3.178356  2.084460
H    -3.667722  -2.038415  0.724227
H    -6.103611  -3.541223  3.380299
H    -7.456419  -2.368245  3.242308
H    -5.967429  -1.905196  4.119976
N    -0.759474  -3.458231  2.489882
C    -1.148303  -3.828342  1.132737
H    -0.253078  -4.176023  3.014625
H    -1.497231  -2.961783  0.570836
H    -1.924785  -4.604080  1.150124
H    -0.266663  -4.239676  0.624595
Hg    0.767393  -0.411068  4.772293
