30
Energy: -579909.2195144  eV PBE+vdW (tier 2 basis)
C    -0.084941  0.325164  0.456849
C    0.010820  -0.165485  1.871419
O    1.060135  -0.792500  2.192848
H    -1.088871  0.687441  0.207281
H    0.203522  -0.480079  -0.228609
H    0.636354  1.144494  0.322581
N    -1.016298  0.102969  2.704859
C    -1.014688  -0.087265  4.158317
C    -1.312715  -1.560740  4.539423
O    -0.390172  -2.311881  4.992680
H    -1.795168  0.619135  2.298932
H    0.023067  0.071318  4.494375
C    -1.826329  1.003970  4.902160
C    -3.356083  0.931708  5.018955
S    -4.206511  0.582662  3.447947
C    -5.929343  0.936434  3.837912
H    -1.534518  1.961823  4.447463
H    -1.442144  1.034984  5.931856
H    -3.724057  1.896365  5.396752
H    -3.664576  0.167478  5.749568
H    -6.509020  0.679242  2.944422
H    -6.041156  2.006182  4.059134
H    -6.261834  0.332995  4.691862
N    -2.534639  -2.046771  4.404840
C    -2.905514  -3.438476  4.680301
H    -3.271736  -1.406833  4.063505
H    -3.043163  -3.591699  5.758651
H    -2.119258  -4.113282  4.325928
H    -3.844997  -3.650274  4.162224
Hg    1.683835  -1.855077  4.152564
