30
Energy: -579909.2820459  eV PBE+vdW (tier 2 basis)
C    0.151880  0.060666  0.086829
C    -0.063168  0.137726  1.571058
O    0.865329  0.615994  2.271461
H    1.047511  -0.542477  -0.110779
H    0.355380  1.071112  -0.293172
H    -0.705702  -0.361898  -0.448723
N    -1.246863  -0.307871  2.055468
C    -1.768149  -0.136108  3.412905
C    -1.315280  -1.312444  4.322408
O    -0.246548  -1.230080  4.992375
H    -1.873723  -0.723420  1.370736
H    -1.277557  0.750978  3.843454
C    -3.287096  0.109292  3.397740
C    -3.649719  1.491857  2.799351
S    -5.427085  1.733082  2.553376
C    -6.010158  2.252861  4.166768
H    -3.658145  0.050213  4.429892
H    -3.800312  -0.678842  2.823347
H    -3.221128  1.609291  1.794098
H    -3.267826  2.306399  3.430957
H    -5.832525  1.477205  4.925321
H    -7.088944  2.418207  4.063441
H    -5.518613  3.189410  4.466995
N    -2.047317  -2.414489  4.373065
C    -1.689452  -3.597949  5.167100
H    -2.933900  -2.430045  3.877083
H    -1.893735  -3.421178  6.230560
H    -0.624858  -3.819326  5.039022
H    -2.288070  -4.442367  4.815634
Hg    1.305185  0.472434  4.573309
