30
Energy: -579909.0756263  eV PBE+vdW (tier 2 basis)
C    -1.566034  1.783751  -0.304015
C    -1.753803  1.056452  0.996251
O    -1.028460  0.057627  1.233374
H    -2.213483  2.661373  -0.409474
H    -1.753075  1.088357  -1.132898
H    -0.516191  2.096207  -0.382800
N    -2.686760  1.546301  1.847865
C    -3.047278  1.088096  3.195112
C    -1.814936  0.766642  4.069804
O    -1.496287  -0.413800  4.403420
H    -3.202135  2.353519  1.507245
H    -3.493230  1.977004  3.665321
C    -4.180798  0.018686  3.279581
C    -4.210190  -1.109739  2.233819
S    -5.714764  -2.046400  2.096277
C    -6.116044  -2.545965  3.772397
H    -5.129784  0.564138  3.179567
H    -4.162742  -0.398089  4.294686
H    -3.383383  -1.878203  2.435682
H    -4.034701  -0.741957  1.213398
H    -6.390805  -1.685456  4.396488
H    -5.273765  -3.090979  4.223480
H    -6.977216  -3.218416  3.679938
N    -1.117887  1.780036  4.581106
C    -1.387407  3.217589  4.529449
H    -0.347526  1.479820  5.182515
H    -2.158182  3.501886  5.259995
H    -1.687855  3.527789  3.523807
H    -0.462576  3.742861  4.787547
Hg    -1.190856  -1.849901  2.618777
