30
Energy: -579909.2504355  eV PBE+vdW (tier 2 basis)
C    1.313736  -0.598480  0.915880
C    0.475680  -0.683573  2.154163
O    0.860037  -1.386293  3.119112
H    0.752038  -0.235372  0.046954
H    1.746436  -1.580846  0.697007
H    2.149694  0.090745  1.109092
N    -0.698285  0.007456  2.181583
C    -1.460723  0.188013  3.407810
C    -2.017944  -1.143748  3.942326
O    -1.922304  -1.388977  5.201224
H    -0.896156  0.620794  1.394222
H    -0.785864  0.545867  4.203980
C    -2.578349  1.236575  3.223939
C    -3.276314  1.620006  4.534013
S    -4.172081  0.301611  5.412705
C    -5.504224  -0.112530  4.289214
H    -3.308050  0.895215  2.474474
H    -2.122668  2.154624  2.821057
H    -4.003783  2.425986  4.350663
H    -2.559378  1.993014  5.278597
H    -5.130588  -0.505413  3.332797
H    -6.113386  0.783937  4.096629
H    -6.115861  -0.870183  4.792022
N    -2.569181  -1.994511  3.094143
C    -3.120078  -3.303662  3.442443
H    -2.567870  -1.732227  2.107755
H    -2.549717  -4.086953  2.925940
H    -4.165441  -3.364172  3.115389
H    -3.059103  -3.444014  4.523823
Hg    0.379729  -1.796885  5.502045
