30
Energy: -579909.2990210  eV PBE+vdW (tier 2 basis)
C    1.321034  -0.001947  0.819962
C    0.695092  -0.544492  2.068762
O    1.427689  -0.875944  3.031605
H    0.624329  0.018650  -0.026332
H    2.202081  -0.601710  0.564634
H    1.670316  1.021653  1.021300
N    -0.660558  -0.667411  2.092630
C    -1.440771  -0.929278  3.286836
C    -1.295401  -2.419126  3.760353
O    -0.675429  -2.690662  4.820585
H    -1.161799  -0.346367  1.265388
H    -1.000490  -0.358512  4.126188
C    -2.902607  -0.497846  3.140417
C    -3.116103  1.039372  3.111972
S    -2.637219  1.891671  1.585483
C    -4.092741  1.701899  0.545806
H    -3.452512  -0.877996  4.013812
H    -3.370602  -0.959259  2.256745
H    -2.540760  1.524637  3.912487
H    -4.177944  1.252625  3.294851
H    -3.843368  2.143555  -0.425708
H    -4.933964  2.250166  0.993539
H    -4.367980  0.646708  0.414882
N    -1.858720  -3.370458  3.031087
C    -1.826764  -4.797802  3.370743
H    -2.419735  -3.092357  2.229694
H    -1.908123  -5.375510  2.445138
H    -2.663280  -5.053279  4.034278
H    -0.884727  -5.027829  3.877582
Hg    1.093484  -1.229432  5.361091
