30
Energy: -579909.8886764  eV PBE+vdW (tier 2 basis)
C    0.206360  0.256378  0.775405
C    -0.571657  -0.172082  1.957914
O    0.040314  -0.698877  2.955675
H    0.675356  -0.648541  0.350213
H    1.028097  0.918456  1.076107
H    -0.415811  0.709294  -0.002110
N    -1.933724  -0.071720  1.999206
C    -2.708877  1.170225  1.788760
C    -1.798648  2.368111  2.137684
O    -1.018631  2.264328  3.113297
H    -2.375885  -0.749357  2.619381
H    -3.071503  1.217598  0.752103
C    -3.952135  1.163929  2.735357
C    -3.856798  1.803478  4.133453
S    -3.068295  1.010319  5.621911
C    -4.099723  -0.449307  5.954206
H    -4.368019  0.145664  2.781084
H    -4.733140  1.754089  2.232164
H    -4.876107  1.964388  4.519155
H    -3.365658  2.784643  4.113878
H    -4.210652  -1.102444  5.084106
H    -5.073144  -0.056555  6.277468
H    -3.629968  -0.983579  6.788520
N    -1.940192  3.471249  1.406006
C    -1.216752  4.723277  1.644859
H    -2.558341  3.436709  0.598740
H    -0.635524  4.626811  2.564998
H    -1.931068  5.549345  1.737890
H    -0.541368  4.928341  0.805366
Hg    -1.048503  0.138828  4.637206
