30
Energy: -579908.7799902  eV PBE+vdW (tier 2 basis)
C    -0.399030  -0.170979  -0.237481
C    -0.113940  0.024600  1.214519
O    1.076955  -0.055344  1.624865
H    -0.174089  0.759056  -0.782362
H    -1.435798  -0.473208  -0.420801
H    0.282222  -0.935167  -0.632649
N    -1.107996  0.265026  2.110282
C    -2.221983  1.187041  1.905259
C    -1.755617  2.525448  2.543786
O    -0.807341  2.521725  3.372400
H    -0.744425  0.335877  3.063725
H    -2.362858  1.331791  0.825770
C    -3.555053  0.638818  2.479303
C    -3.509615  0.318416  3.987726
S    -5.138843  -0.028048  4.694308
C    -5.568286  -1.640892  4.052479
H    -3.804018  -0.267841  1.911848
H    -4.350327  1.368929  2.277069
H    -3.151710  1.174237  4.578019
H    -2.860040  -0.544743  4.200498
H    -6.515826  -1.917567  4.529670
H    -4.789484  -2.375262  4.305464
H    -5.708817  -1.610864  2.961482
N    -2.369243  3.671171  2.233255
C    -3.541437  3.909874  1.395889
H    -1.973587  4.485436  2.708027
H    -4.451505  3.998135  2.005961
H    -3.671432  3.112917  0.657676
H    -3.396408  4.855106  0.860194
Hg    1.679743  1.582806  3.256415
