30
Energy: -579910.1082274  eV PBE+vdW (tier 2 basis)
C    -0.232777  1.263382  0.456105
C    -0.690404  0.625787  1.723278
O    0.264125  0.317684  2.557060
H    0.359960  2.159575  0.681041
H    -1.068779  1.515566  -0.204530
H    0.436968  0.561434  -0.063631
N    -1.986875  0.416001  1.915544
C    -2.712096  -0.556175  2.752182
C    -3.661311  -1.238748  1.671264
O    -3.942351  -0.557242  0.686322
H    -2.611783  0.601893  1.097177
H    -2.017998  -1.314813  3.149505
C    -3.658987  0.029275  3.838742
C    -3.172768  0.950319  4.967214
S    -2.018034  0.156573  6.204037
C    -1.647401  1.521538  7.346789
H    -4.199957  -0.821210  4.277682
H    -4.425714  0.623665  3.315261
H    -4.038066  1.227497  5.587987
H    -2.707131  1.878113  4.609198
H    -0.849316  1.169533  8.010848
H    -2.568508  1.672827  7.926142
H    -1.358808  2.434975  6.818237
N    -4.105300  -2.468088  1.944145
C    -5.029796  -3.200689  1.070212
H    -3.753880  -2.952401  2.764278
H    -5.907965  -3.518393  1.643558
H    -4.530011  -4.081157  0.649424
H    -5.341235  -2.536909  0.259854
Hg    -0.314279  0.079063  4.534187
