30
Energy: -579908.7574499  eV PBE+vdW (tier 2 basis)
C    -1.685538  1.597303  0.201115
C    -0.474705  1.161618  0.965127
O    0.641318  1.680182  0.703244
H    -1.491702  2.598907  -0.199081
H    -2.585091  1.624486  0.823426
H    -1.851561  0.928659  -0.655269
N    -0.542023  0.289032  2.030924
C    -1.204767  -1.000344  2.020254
C    -0.561857  -1.814103  0.809484
O    -0.098285  -1.165468  -0.140755
H    0.341715  0.282532  2.544476
H    -0.894998  -1.495912  2.951652
C    -2.744946  -1.015475  1.950596
C    -3.351148  -0.258923  3.162605
S    -5.140698  -0.404112  3.264818
C    -5.751936  0.758702  2.049471
H    -3.072264  -2.063399  1.975106
H    -3.103472  -0.596819  1.003090
H    -3.070423  0.805387  3.144888
H    -2.988638  -0.689452  4.106571
H    -5.403487  0.501457  1.038246
H    -5.433780  1.779188  2.308311
H    -6.845707  0.691058  2.081708
N    -0.535987  -3.142338  0.923858
C    0.122013  -4.030550  -0.034993
H    -0.938642  -3.570392  1.754653
H    -0.472401  -4.946216  -0.129933
H    1.128706  -4.299906  0.314260
H    0.189944  -3.525377  -1.002255
Hg    2.229041  0.213198  -0.349014
