30
Energy: -579909.7901189  eV PBE+vdW (tier 2 basis)
C    1.546725  -1.497963  1.141388
C    0.735921  -0.907113  2.251033
O    1.174166  -0.943142  3.429564
H    2.543493  -1.037846  1.138492
H    1.081206  -1.370058  0.157764
H    1.690370  -2.568520  1.341522
N    -0.474751  -0.348984  1.935076
C    -1.226667  0.279768  2.995515
C    -2.100226  -0.712756  3.799520
O    -1.770755  -0.992886  4.992509
H    -0.779835  -0.349118  0.965663
H    -0.409947  0.499758  3.681377
C    -1.815721  1.682607  2.807145
C    -1.980718  2.376360  4.177561
S    -0.558024  2.527570  5.359961
C    0.735043  3.339218  4.384440
H    -2.806087  1.690445  2.328252
H    -1.145567  2.260003  2.155370
H    -2.756548  1.904880  4.797188
H    -2.276416  3.428532  4.040905
H    1.035357  2.758313  3.506993
H    1.587112  3.487258  5.058045
H    0.334500  4.317354  4.084211
N    -3.165161  -1.253174  3.230335
C    -4.044597  -2.238867  3.871591
H    -3.406392  -0.955152  2.288111
H    -4.920336  -1.741379  4.307273
H    -3.491001  -2.754991  4.660563
H    -4.375955  -2.957493  3.115513
Hg    0.254189  0.032345  5.570966
