30
Energy: -579910.4460392  eV PBE+vdW (tier 2 basis)
C    0.131512  -0.293496  0.143503
C    0.129739  -0.227011  1.637772
O    1.262981  -0.377840  2.204397
H    -0.848940  -0.093947  -0.301992
H    0.479135  -1.287976  -0.169041
H    0.860100  0.433706  -0.240144
N    -1.052668  -0.007387  2.246365
C    -1.454694  0.181957  3.663585
C    -0.716933  1.393815  4.274970
O    0.442737  1.287625  4.746016
H    -1.825250  0.068210  1.590042
H    -2.507391  0.468145  3.576222
C    -1.455187  -1.152632  4.513155
C    -1.001856  -1.110069  5.989565
S    0.702075  -1.804426  6.296617
C    1.308223  -0.818331  7.694499
H    -0.925934  -1.944700  3.961782
H    -2.495710  -1.502918  4.518508
H    -1.640777  -1.762959  6.598681
H    -1.019285  -0.104241  6.422606
H    2.338920  -1.142688  7.880790
H    0.681744  -1.090765  8.554096
H    1.255948  0.253422  7.481108
N    -1.350629  2.567651  4.291853
C    -2.683484  2.919408  3.788756
H    -0.790098  3.326157  4.681407
H    -3.470743  2.339406  4.286442
H    -2.749124  2.796513  2.700236
H    -2.858072  3.974769  4.016210
Hg    1.534266  -0.810622  4.269498
