30
Energy: -579908.8224702  eV PBE+vdW (tier 2 basis)
C    -0.051000  -0.223397  -0.082344
C    0.136657  0.025304  1.377355
O    1.305361  -0.048877  1.860752
H    0.164050  0.702155  -0.639440
H    -1.057252  -0.582994  -0.321729
H    0.691968  -0.962074  -0.408951
N    -0.906979  0.304810  2.193391
C    -2.047373  1.158595  1.873594
C    -1.630490  2.613260  2.258784
O    -0.447529  2.908161  2.590713
H    -0.670763  0.268015  3.186044
H    -2.169588  1.149711  0.779212
C    -3.328194  0.596106  2.541160
C    -4.663980  0.869751  1.832465
S    -5.482779  2.383188  2.416998
C    -6.932767  2.476238  1.365299
H    -3.380656  0.898942  3.598233
H    -3.200743  -0.495738  2.548620
H    -4.558247  0.918530  0.737252
H    -5.366983  0.048524  2.044152
H    -7.567531  1.594997  1.541806
H    -7.475339  3.382291  1.657796
H    -6.650487  2.523667  0.304924
N    -2.536436  3.578536  2.172628
C    -2.277632  4.982839  2.505570
H    -3.486833  3.341411  1.853820
H    -1.699190  5.466366  1.707897
H    -1.718232  5.050622  3.444404
H    -3.240175  5.490970  2.610912
Hg    1.610332  1.730369  3.348761
