30
Energy: -579909.2058748  eV PBE+vdW (tier 2 basis)
C    0.395466  1.416202  0.500607
C    0.514486  0.565882  1.732875
O    1.210141  -0.487139  1.641684
H    -0.399949  2.166714  0.565843
H    0.220752  0.767614  -0.366737
H    1.359342  1.918380  0.331530
N    -0.135190  0.986854  2.836821
C    -0.401620  0.329801  4.133408
C    0.757852  0.512304  5.134677
O    1.942972  0.115144  4.920746
H    -0.606552  1.879630  2.720125
H    -1.250091  0.898833  4.540599
C    -0.859189  -1.144308  4.057252
C    -2.058215  -1.419146  3.139609
S    -3.533810  -0.502731  3.667366
C    -4.866223  -1.416942  2.889350
H    -1.099467  -1.456001  5.083947
H    -0.043042  -1.801897  3.720289
H    -2.300092  -2.491276  3.162547
H    -1.840472  -1.159484  2.091816
H    -5.791431  -0.881355  3.130002
H    -4.910957  -2.437368  3.297016
H    -4.722662  -1.455161  1.800738
N    0.471668  1.118548  6.279837
C    1.437876  1.337608  7.360754
H    -0.457047  1.516140  6.396287
H    0.890651  1.413919  8.304714
H    1.999131  2.265274  7.188942
H    2.138145  0.497887  7.399724
Hg    2.561548  -1.371110  3.279176
