34
Energy: -105400.620427 eV PBE+vdW (tier 2 basis)
C    0.200008  0.433915  1.740178
C    -0.988092  0.273898  2.628995
O    -0.869485  0.051466  3.865784
H    0.585900  1.462825  1.810931
H    -0.016224  0.210118  0.690612
H    0.994919  -0.227276  2.104997
N    -2.245267  0.394743  2.119174
C    -2.665538  1.359622  1.111746
C    -2.224088  2.770546  1.567663
O    -1.986604  2.979736  2.798351
H    -2.982430  0.067819  2.742668
H    -2.198937  1.114653  0.147494
C    -4.203662  1.301437  0.944165
C    -5.067434  1.852460  2.110823
C    -5.804572  0.836567  3.005756
C    -5.053648  0.081906  4.102117
N    -4.436688  0.985015  5.143869
H    -4.464665  0.256490  0.718599
H    -4.444967  1.860669  0.032070
H    -5.851174  2.472741  1.657687
H    -4.488926  2.561454  2.724962
H    -6.288713  0.079620  2.370327
H    -6.639854  1.366653  3.491431
H    -4.264495  -0.581377  3.710387
H    -5.768071  -0.597347  4.588174
H    -5.115065  1.736210  5.320349
H    -4.442960  0.455305  6.023756
N    -2.127203  3.756447  0.688138
C    -2.362410  3.738181  -0.757635
H    -1.883604  4.659771  1.095843
H    -2.221038  2.734427  -1.167989
H    -1.641420  4.409173  -1.235764
H    -3.376810  4.087101  -0.989717
Sr    -1.965239  1.899669  4.899038
