34
Energy: -105400.129619 eV PBE+vdW (tier 2 basis)
C    -0.074969  -0.783224  -0.017839
C    -0.157488  -0.351037  1.408609
O    0.860434  0.133470  1.997588
H    0.182516  0.090590  -0.633424
H    -1.005401  -1.220966  -0.393501
H    0.740949  -1.508003  -0.136338
N    -1.323973  -0.471478  2.053911
C    -1.625892  0.067058  3.392736
C    -1.002108  -0.823164  4.491005
O    0.187674  -0.537370  4.866681
H    -2.114688  -0.836255  1.527018
H    -1.060626  1.008646  3.482697
C    -3.113333  0.407296  3.521025
C    -3.487880  1.720059  2.818166
C    -4.969525  2.097826  2.976311
C    -5.416071  2.453411  4.398895
N    -5.458312  1.273281  5.290117
H    -3.399300  0.489002  4.580248
H    -3.727091  -0.413990  3.118463
H    -3.248154  1.660080  1.743442
H    -2.865919  2.535227  3.226726
H    -5.605844  1.287569  2.581758
H    -5.166777  2.966283  2.331747
H    -6.385770  2.976006  4.336363
H    -4.705827  3.173914  4.833620
H    -6.268859  0.698245  5.049229
H    -5.627006  1.580068  6.249564
N    -1.621678  -1.843806  5.058929
C    -2.955919  -2.409976  4.827222
H    -1.070210  -2.291675  5.791556
H    -2.971208  -3.407658  5.274883
H    -3.159716  -2.512354  3.757363
H    -3.731960  -1.794857  5.298803
Sr    2.062238  0.348509  3.912364
