34
Energy: -105401.267369 eV PBE+vdW (tier 2 basis)
C    -2.300368  -0.249463  -0.408394
C    -2.143509  0.665542  0.768178
O    -1.070077  0.668097  1.428219
H    -1.502208  -0.039572  -1.132748
H    -3.269275  -0.164890  -0.910978
H    -2.161914  -1.285814  -0.071710
N    -3.189005  1.452429  1.076125
C    -3.406323  2.452868  2.149266
C    -2.349698  3.573579  2.171869
O    -1.157465  3.379371  2.537090
H    -3.990797  1.339105  0.462637
H    -4.342535  2.929966  1.830132
C    -3.741218  1.904470  3.563593
C    -2.671313  1.297750  4.486513
C    -2.394974  -0.205473  4.339243
C    -1.219575  -0.687172  5.191881
N    0.110367  -0.430759  4.527958
H    -4.559359  1.179713  3.433525
H    -4.193993  2.759910  4.087002
H    -3.015598  1.464688  5.518006
H    -1.748160  1.905366  4.438799
H    -2.226228  -0.496359  3.292160
H    -3.294876  -0.751251  4.656831
H    -1.320823  -1.758491  5.410468
H    -1.211060  -0.165160  6.158325
H    0.834878  -0.524769  5.247647
H    0.287630  -1.229608  3.907491
N    -2.772642  4.789259  1.839570
C    -1.927797  5.984462  1.871924
H    -3.734583  4.902308  1.534789
H    -1.225780  5.984444  1.028452
H    -1.363735  6.017697  2.810040
H    -2.570576  6.866029  1.803618
Sr    0.374592  1.648730  2.925475
