34
Energy: -105400.125658 eV PBE+vdW (tier 2 basis)
C    -0.333516  0.660931  0.573474
C    -0.237348  0.183997  1.986792
O    0.819302  -0.388795  2.393516
H    -1.268963  1.183018  0.348226
H    -0.240809  -0.208067  -0.093614
H    0.513506  1.323340  0.352707
N    -1.292727  0.377637  2.789735
C    -1.541976  -0.138844  4.154944
C    -0.670665  0.554877  5.208576
O    0.576592  0.307824  5.282598
H    -2.090857  0.828354  2.351467
H    -2.586671  0.130319  4.348019
C    -1.460744  -1.674267  4.286324
C    -2.439689  -2.405426  3.368834
C    -2.483496  -3.917802  3.606571
C    -3.673999  -4.569211  2.885145
N    -4.936824  -4.001434  3.367929
H    -1.682968  -1.915215  5.338140
H    -0.431992  -2.033977  4.103934
H    -2.191799  -2.207844  2.313438
H    -3.461008  -2.022219  3.533133
H    -2.573459  -4.118266  4.687616
H    -1.548885  -4.397704  3.274744
H    -3.600006  -5.664321  3.001519
H    -3.599651  -4.366565  1.806071
H    -5.685976  -4.155148  2.694638
H    -5.232942  -4.455974  4.232295
N    -1.229616  1.374317  6.086268
C    -2.632908  1.795368  6.194550
H    -0.585357  1.742682  6.786558
H    -2.691664  2.561562  6.972346
H    -3.277978  0.958099  6.488026
H    -2.988064  2.237922  5.257012
Sr    2.229672  -0.751723  4.124157
