34
Energy: -105400.151895 eV PBE+vdW (tier 2 basis)
C    -0.154342  0.016655  0.112039
C    -0.135830  -0.132750  1.599238
O    0.925748  -0.504105  2.186732
H    -1.107104  0.385326  -0.281263
H    0.062755  -0.962038  -0.339176
H    0.651605  0.695361  -0.196117
N    -1.263845  0.132806  2.273131
C    -1.579326  -0.079735  3.705200
C    -0.827959  0.907225  4.612077
O    0.417149  0.760274  4.833481
H    -2.054561  0.411324  1.698593
H    -2.649614  0.145650  3.775048
C    -1.422194  -1.531463  4.184776
C    -1.964496  -1.722733  5.604856
C    -2.041408  -3.192930  6.043753
C    -2.862789  -4.090990  5.106005
N    -4.124083  -3.443038  4.722074
H    -0.375734  -1.876818  4.112189
H    -1.997388  -2.155142  3.486776
H    -2.980756  -1.301948  5.636313
H    -1.358514  -1.159256  6.332921
H    -2.481045  -3.215579  7.052233
H    -1.032170  -3.622175  6.150609
H    -2.987245  -5.073600  5.593801
H    -2.298018  -4.287853  4.180923
H    -4.608791  -4.005610  4.022374
H    -4.758077  -3.397439  5.522478
N    -1.487043  1.892847  5.199700
C    -2.913462  2.232062  5.109316
H    -0.916296  2.471655  5.816473
H    -3.213386  2.415558  4.071314
H    -3.072950  3.154220  5.674611
H    -3.535626  1.444514  5.551257
Sr    2.208964  -0.406570  4.044422
