34
Energy: -105399.752201 eV PBE+vdW (tier 2 basis)
C    -1.589398  0.701246  0.178384
C    -1.082113  0.576880  1.576866
O    -0.014136  1.170730  1.931740
H    -0.821426  0.352705  -0.524857
H    -1.760669  1.765113  -0.038001
H    -2.517285  0.146314  0.007001
N    -1.780829  -0.163296  2.444360
C    -1.552215  -0.232326  3.893289
C    -0.349897  -1.157662  4.218153
O    0.805835  -0.608253  4.201142
H    -2.659055  -0.564226  2.107112
H    -1.153368  0.750672  4.186062
C    -2.878751  -0.416037  4.671830
C    -4.020634  -1.262240  4.050647
C    -5.248253  -0.450785  3.615488
C    -5.037113  0.447014  2.392350
N    -6.262340  1.137944  2.055025
H    -3.263216  0.599038  4.842772
H    -2.619115  -0.789095  5.671771
H    -4.344746  -2.002929  4.792549
H    -3.670535  -1.868424  3.195613
H    -5.607707  0.167416  4.451299
H    -6.061012  -1.158194  3.391341
H    -4.617763  -0.187219  1.563863
H    -4.277754  1.218849  2.610511
H    -6.142262  1.827355  1.316051
H    -7.006402  0.500048  1.774659
N    -0.426285  -2.442298  4.522328
C    -1.566948  -3.358348  4.605935
H    0.483222  -2.848989  4.743942
H    -1.169585  -4.376856  4.625592
H    -2.217555  -3.258485  3.733977
H    -2.142839  -3.191273  5.523715
Sr    1.883512  1.120900  3.169640
