34
Energy: -105400.505024 eV PBE+vdW (tier 2 basis)
C    0.504121  1.448490  -0.335447
C    0.446989  0.929846  1.066376
O    1.414289  1.143527  1.862741
H    1.347637  0.964493  -0.848847
H    0.714625  2.525358  -0.323857
H    -0.410261  1.265306  -0.908978
N    -0.635641  0.235543  1.437008
C    -0.887658  -0.540047  2.668093
C    -1.108899  0.307575  3.924650
O    -0.260709  1.178420  4.324246
H    -1.352029  0.143778  0.722455
H    -1.855841  -1.015520  2.474128
C    0.135379  -1.689612  2.901311
C    -0.419343  -3.050943  2.429030
C    -1.075889  -3.938814  3.507484
C    -2.059109  -3.320209  4.504905
N    -3.180425  -2.557072  3.889047
H    0.399116  -1.739006  3.969222
H    1.063660  -1.453439  2.365633
H    0.398302  -3.636576  1.988334
H    -1.119585  -2.875105  1.596527
H    -0.279868  -4.398519  4.112566
H    -1.567902  -4.777736  2.992039
H    -1.524699  -2.635424  5.185540
H    -2.438989  -4.134603  5.138555
H    -3.447153  -2.981372  2.997273
H    -4.014420  -2.650304  4.473898
N    -2.202214  0.006347  4.588394
C    -2.592489  0.592189  5.864873
H    -2.742269  -0.836410  4.225820
H    -3.678501  0.734835  5.872374
H    -2.098952  1.557583  6.003883
H    -2.320404  -0.076524  6.693311
Sr    1.829132  1.936940  3.941412
