34
Energy: -105399.416537 eV PBE+vdW (tier 2 basis)
C    -0.701436  2.739941  1.341837
C    -0.320925  1.308371  1.526931
O    0.418332  0.948147  2.497114
H    -1.583168  2.983314  1.956159
H    -0.926229  2.988013  0.299489
H    0.121861  3.367456  1.702556
N    -0.778910  0.363932  0.675812
C    -2.156200  0.305534  0.192056
C    -3.077952  0.107142  1.426057
O    -2.567881  -0.187171  2.562289
H    -0.343307  -0.553094  0.785978
H    -2.412354  1.263321  -0.283969
C    -2.300077  -0.830976  -0.843727
C    -1.998153  -2.239105  -0.311108
C    -2.346078  -3.347316  -1.316930
C    -1.507713  -3.340857  -2.602237
N    -1.936374  -4.430330  -3.466846
H    -1.638408  -0.575862  -1.682955
H    -3.320503  -0.810156  -1.248559
H    -2.571248  -2.418755  0.614908
H    -0.927419  -2.336549  -0.048974
H    -3.410774  -3.285532  -1.590131
H    -2.218659  -4.319243  -0.816480
H    -0.429870  -3.357600  -2.329544
H    -1.671692  -2.404108  -3.157077
H    -1.571509  -4.329455  -4.412246
H    -1.628843  -5.338389  -3.119219
N    -4.387520  0.239658  1.310569
C    -5.187804  0.609876  0.139043
H    -4.909648  0.042635  2.165124
H    -4.593763  1.181382  -0.579274
H    -6.020265  1.236167  0.476341
H    -5.593472  -0.285113  -0.349297
Sr    -0.776864  -0.340990  4.009271
