34
Energy: -105399.940851 eV PBE+vdW (tier 2 basis)
C    0.061631  0.021173  1.385012
C    -0.546924  0.088409  2.742971
O    0.056444  -0.448101  3.746129
H    -0.000914  -1.005527  0.995593
H    1.129214  0.261732  1.471159
H    -0.408009  0.703702  0.670902
N    -1.703796  0.690499  2.974811
C    -2.853334  0.957322  2.113150
C    -3.917225  1.463400  3.124654
O    -3.766762  1.188562  4.336902
H    -2.019752  0.762705  3.956303
H    -2.617756  1.748115  1.388295
C    -3.324964  -0.318719  1.348756
C    -3.288213  -1.642519  2.131775
C    -4.385785  -1.872334  3.198227
C    -3.904547  -2.501553  4.504769
N    -3.115401  -1.538746  5.375095
H    -2.690668  -0.423348  0.458181
H    -4.338423  -0.138007  0.963606
H    -2.289403  -1.758151  2.589800
H    -3.339671  -2.453597  1.393334
H    -5.151799  -2.540278  2.782189
H    -4.916756  -0.941876  3.441048
H    -3.282504  -3.389228  4.292635
H    -4.768407  -2.864319  5.076109
H    -3.393478  -0.577578  5.097270
H    -3.487504  -1.624352  6.327022
N    -4.971122  2.147062  2.675470
C    -5.290534  2.582168  1.317000
H    -5.632454  2.404471  3.407199
H    -5.703250  3.595867  1.358147
H    -6.032981  1.919230  0.853234
H    -4.394767  2.609908  0.689848
Sr    -0.575179  -1.848836  5.396381
