34
Energy: -105398.584352 eV PBE+vdW (tier 2 basis)
C    -0.878441  1.063962  0.345526
C    -0.546601  0.775177  1.779781
O    0.632159  0.691106  2.172575
H    -0.299668  1.932464  0.010065
H    -1.944291  1.238478  0.162780
H    -0.551594  0.208696  -0.262442
N    -1.598879  0.618763  2.639532
C    -1.543790  0.024722  3.983507
C    -0.755252  0.848889  5.002867
O    -1.254747  1.021653  6.191650
H    -2.526548  0.701013  2.238401
H    -2.581643  0.029993  4.342934
C    -1.034339  -1.440889  3.996362
C    -1.931332  -2.391012  3.193953
C    -1.473234  -3.855721  3.240209
C    -0.193829  -4.147076  2.445760
N    0.167600  -5.545331  2.552951
H    -0.991053  -1.774255  5.046290
H    -0.002215  -1.456848  3.620684
H    -1.979938  -2.058017  2.145162
H    -2.960240  -2.330298  3.583569
H    -2.285530  -4.480429  2.838095
H    -1.326839  -4.180845  4.281898
H    0.652236  -3.558868  2.832552
H    -0.344138  -3.819558  1.394640
H    -0.524374  -6.194748  2.184138
H    1.093148  -5.775978  2.201049
N    0.423215  1.301906  4.677034
C    1.303856  2.058249  5.555045
H    0.705823  1.064325  3.661608
H    2.197313  2.338494  4.990519
H    1.614888  1.451587  6.417154
H    0.814563  2.977354  5.906427
Sr    -1.952155  1.422756  8.205911
