34
Energy: -105398.6782 eV PBE+vdW (tier 2 basis)
C    -0.727116  -1.945377  0.421232
C    -0.585781  -1.141902  1.679579
O    0.043197  -1.573866  2.664073
H    0.226733  -2.432211  0.191985
H    -1.061311  -1.356667  -0.440375
H    -1.464494  -2.740901  0.603768
N    -1.179845  0.090387  1.695292
C    -1.502468  0.884395  2.890218
C    -0.278739  1.406138  3.642240
O    -0.277374  2.639209  4.063495
H    -1.681658  0.355811  0.854880
H    -2.018963  1.776453  2.511460
C    -2.451438  0.159843  3.884305
C    -3.778276  -0.257654  3.248077
C    -4.704240  -0.981195  4.232489
C    -5.946362  -1.571780  3.551167
N    -5.586612  -2.612708  2.596277
H    -2.631606  0.841439  4.732322
H    -1.934471  -0.719550  4.294723
H    -3.593336  -0.932810  2.399526
H    -4.294838  0.627675  2.839290
H    -5.031560  -0.297001  5.030187
H    -4.151010  -1.793948  4.731989
H    -6.484839  -0.783070  3.005613
H    -6.636260  -1.935860  4.335487
H    -6.323989  -2.819219  1.926068
H    -5.290419  -3.480950  3.040343
N    0.703140  0.589500  3.901254
C    1.905074  0.931933  4.646415
H    0.546009  -0.407086  3.502133
H    2.566801  0.061446  4.654595
H    1.662624  1.191326  5.686790
H    2.439050  1.766695  4.170869
Sr    -0.089089  4.655996  4.818005
