34
Energy: -105398.504494 eV PBE+vdW (tier 2 basis)
C    1.722597  0.477486  1.656644
C    0.925523  0.122711  2.875804
O    1.479792  -0.000513  3.986340
H    2.406126  1.299058  1.897974
H    1.111369  0.746200  0.788205
H    2.340957  -0.395812  1.394731
N    -0.417615  -0.059512  2.698680
C    -1.411913  -0.715568  3.567180
C    -1.501716  -0.195487  5.000309
O    -2.681642  -0.194555  5.558544
H    -0.742919  0.073339  1.746501
H    -2.379555  -0.433445  3.129325
C    -1.368920  -2.276667  3.559112
C    -0.035349  -2.954636  3.919057
C    0.884808  -3.174852  2.707878
C    2.346104  -3.418096  3.090697
N    3.194417  -3.401435  1.908865
H    -1.690275  -2.598403  2.557033
H    -2.165733  -2.609562  4.243618
H    -0.258781  -3.925546  4.383143
H    0.495053  -2.377090  4.691393
H    0.858283  -2.310810  2.030660
H    0.505523  -4.022944  2.115373
H    2.426320  -4.359525  3.671244
H    2.687561  -2.610616  3.755940
H    3.002057  -4.158016  1.253499
H    4.189369  -3.393278  2.124316
N    -0.437742  0.176261  5.648020
C    -0.425973  0.652775  7.023405
H    0.485448  0.100985  5.058376
H    0.596618  0.943403  7.279491
H    -0.745566  -0.137991  7.716735
H    -1.074828  1.531907  7.141132
Sr    -4.577787  -0.115550  6.590915
