34
Energy: -105400.153055 eV PBE+vdW (tier 2 basis)
C    -0.445311  2.224273  0.259809
C    -0.184558  1.279016  1.394935
O    0.941381  1.156754  1.906882
H    -0.040270  3.210476  0.515552
H    -1.503280  2.318754  -0.007679
H    0.111057  1.868756  -0.618820
N    -1.254217  0.555790  1.855712
C    -1.199481  -0.609819  2.742840
C    -0.687803  -0.343421  4.162826
O    -1.251078  -0.997979  5.123887
H    -2.147738  0.721998  1.405076
H    -2.248967  -0.901060  2.891708
C    -0.468133  -1.806409  2.069454
C    -0.412522  -3.123423  2.865999
C    0.838541  -3.309382  3.741111
C    0.850894  -4.589654  4.580903
N    0.201203  -4.400089  5.933517
H    0.552984  -1.495159  1.808182
H    -0.993538  -1.978312  1.121196
H    -0.448955  -3.959838  2.153467
H    -1.360812  -3.247747  3.443090
H    1.021716  -2.438149  4.392156
H    1.704750  -3.339773  3.065048
H    1.880443  -4.942072  4.725352
H    0.308592  -5.394540  4.066503
H    0.907579  -3.964345  6.539399
H    0.082118  -5.331649  6.348576
N    0.314875  0.472440  4.349874
C    0.893768  0.815872  5.641712
H    0.736522  0.843016  3.441956
H    1.278808  1.839055  5.589652
H    1.732146  0.146195  5.880721
H    0.137559  0.753020  6.430427
Sr    -1.904317  -2.909455  6.027900
