34
Energy: -105398.530095 eV PBE+vdW (tier 2 basis)
C    -2.357849  0.809262  0.521062
C    -1.593647  0.717164  1.798722
O    -0.916075  1.760349  2.195083
H    -1.656041  0.973598  -0.308591
H    -3.027042  1.678948  0.558359
H    -2.947458  -0.086041  0.307827
N    -1.569456  -0.356169  2.541536
C    -2.209720  -1.671220  2.389343
C    -2.180094  -2.181556  3.863053
O    -1.285542  -1.723702  4.593896
H    -1.035591  -0.389602  3.442440
H    -3.234031  -1.549215  2.014953
C    -1.362135  -2.557933  1.443404
C    -1.869537  -3.989822  1.235939
C    -0.997278  -4.801327  0.265575
C    -1.162216  -4.426082  -1.210962
N    -0.269117  -5.211435  -2.039873
H    -0.337506  -2.588135  1.845579
H    -1.303774  -2.034524  0.476566
H    -2.909738  -3.976651  0.871668
H    -1.880455  -4.513048  2.202007
H    -1.253192  -5.865148  0.385163
H    0.064532  -4.711797  0.541888
H    -0.913952  -3.365387  -1.376891
H    -2.230777  -4.542712  -1.492217
H    -0.401310  -6.218237  -1.961440
H    -0.250894  -4.938271  -3.019285
N    -3.079737  -3.076099  4.294113
C    -4.250426  -3.638884  3.629974
H    -2.922980  -3.359418  5.260523
H    -4.470760  -3.102883  2.703031
H    -4.099577  -4.699285  3.391232
H    -5.119869  -3.546799  4.291496
Sr    0.187488  3.473649  2.924915
