34
Energy: -105398.668587 eV PBE+vdW (tier 2 basis)
C    0.530825  -0.318210  0.053030
C    0.225166  -0.125298  1.499546
O    1.209091  -0.213745  2.359761
H    1.371160  0.327350  -0.233218
H    -0.322189  -0.104903  -0.596276
H    0.843635  -1.358687  -0.115206
N    -0.971207  0.126997  1.951027
C    -2.260816  0.282894  1.263439
C    -3.068074  1.083402  2.326552
O    -2.717980  0.992015  3.513250
H    -1.155011  0.282364  2.970707
H    -2.129100  0.882906  0.350999
C    -2.855520  -1.106340  0.933551
C    -4.249433  -1.103416  0.274129
C    -5.462618  -1.218080  1.213551
C    -5.597040  -2.554977  1.953722
N    -4.634980  -2.683882  3.057145
H    -2.895647  -1.704514  1.857130
H    -2.139234  -1.597879  0.258070
H    -4.283026  -1.954528  -0.422053
H    -4.364642  -0.216422  -0.372575
H    -6.368435  -1.081772  0.605125
H    -5.477276  -0.402003  1.952838
H    -5.420738  -3.386056  1.254626
H    -6.642378  -2.657565  2.298182
H    -4.866810  -2.052645  3.825485
H    -4.630609  -3.631081  3.434857
N    -4.081846  1.832687  1.877997
C    -4.978008  2.587031  2.749869
H    -4.285089  1.821101  0.883721
H    -5.099297  3.605399  2.364444
H    -4.539678  2.624000  3.750594
H    -5.963313  2.105091  2.805160
Sr    2.836336  -0.325254  3.760713
