34
Energy: -105398.90114 eV PBE+vdW (tier 2 basis)
C    -0.683826  1.364682  -0.592399
C    -0.387121  1.324809  0.867978
O    0.797750  1.735650  1.272708
H    -0.206510  2.239860  -1.047114
H    -1.758649  1.389102  -0.797229
H    -0.266275  0.469277  -1.077122
N    -1.223346  0.905243  1.769157
C    -2.629172  0.482799  1.692290
C    -3.021990  0.538236  3.205503
O    -2.164047  0.981009  4.003201
H    -1.050200  1.029837  2.817703
H    -3.205023  1.277079  1.189739
C    -2.871920  -0.843324  0.952422
C    -2.289182  -2.126253  1.574940
C    -3.159192  -2.878821  2.600363
C    -4.581634  -3.214313  2.121823
N    -5.555472  -2.115754  2.381623
H    -2.480113  -0.725741  -0.067816
H    -3.958676  -0.939064  0.823285
H    -1.302135  -1.916538  2.019166
H    -2.090280  -2.820178  0.744684
H    -3.212740  -2.341143  3.558433
H    -2.643256  -3.822662  2.827033
H    -4.912622  -4.149463  2.596308
H    -4.571483  -3.411782  1.039986
H    -6.307181  -2.149431  1.690963
H    -6.018102  -2.289744  3.276743
N    -4.250775  0.165158  3.530561
C    -4.718212  0.214481  4.913142
H    -4.784640  -0.467017  2.887594
H    -4.325114  -0.627013  5.502198
H    -5.811860  0.174331  4.912732
H    -4.392251  1.146503  5.384974
Sr    2.626639  2.481319  2.072006
