34
Energy: -105401.119994 eV PBE+vdW (tier 2 basis)
C    0.384892  1.120799  2.636875
C    -0.370040  -0.166162  2.620392
O    0.033733  -1.171621  3.272149
H    -0.087010  1.910084  2.042812
H    1.402009  0.945565  2.260843
H    0.485416  1.461014  3.676508
N    -1.508524  -0.241277  1.899446
C    -2.338418  -1.443410  1.889399
C    -1.825667  -2.498266  0.889313
O    -1.097151  -3.425363  1.354393
H    -1.821940  0.587361  1.400426
H    -2.121513  -1.914337  2.852286
C    -3.846719  -1.178690  1.920433
C    -4.333451  -0.781955  3.336578
C    -3.644655  -1.516848  4.505589
C    -3.655758  -3.054529  4.438573
N    -2.399265  -3.638598  5.033364
H    -4.348384  -2.102421  1.598131
H    -4.145011  -0.409639  1.191629
H    -5.418906  -0.945104  3.375515
H    -4.191189  0.295809  3.494827
H    -4.122380  -1.191734  5.439911
H    -2.600765  -1.167888  4.593947
H    -3.716385  -3.421900  3.404511
H    -4.541393  -3.448641  4.955433
H    -2.276494  -3.220327  5.963168
H    -2.591379  -4.625548  5.242096
N    -2.154664  -2.406228  -0.389791
C    -1.727688  -3.328906  -1.443570
H    -2.771404  -1.645191  -0.663862
H    -1.171283  -2.779689  -2.212300
H    -2.606483  -3.797485  -1.902208
H    -1.088684  -4.098164  -1.004711
Sr    -0.167804  -3.486909  3.544745
