34
Energy: -105400.970618 eV PBE+vdW (tier 2 basis)
C    -0.309085  -1.420938  -0.002123
C    -0.731085  -0.573319  1.151482
O    -0.189371  0.546193  1.377416
H    0.754041  -1.674635  0.109990
H    -0.399559  -0.836596  -0.927550
H    -0.889699  -2.344044  -0.099361
N    -1.718057  -1.022300  1.957946
C    -2.209385  -0.212886  3.069798
C    -1.287108  -0.320132  4.303476
O    -0.510787  0.661295  4.520822
H    -2.151641  -1.916711  1.745694
H    -2.016060  0.811370  2.735170
C    -3.737537  -0.248528  3.303106
C    -4.338660  1.101311  2.869946
C    -3.822857  2.289626  3.723208
C    -3.427781  3.552938  2.961301
N    -2.201180  3.376690  2.097253
H    -3.962605  -0.433992  4.362127
H    -4.196706  -1.072518  2.738457
H    -5.432941  1.049432  2.925870
H    -4.111627  1.249666  1.800389
H    -2.969778  1.980828  4.351226
H    -4.600746  2.577809  4.443308
H    -3.198941  4.352044  3.677928
H    -4.266506  3.906829  2.343387
H    -2.015998  4.294297  1.674964
H    -2.471464  2.805264  1.287517
N    -1.280021  -1.378263  5.100034
C    -2.062508  -2.609477  5.014994
H    -0.615750  -1.315661  5.873178
H    -2.651334  -2.739117  5.931175
H    -1.389273  -3.468086  4.902279
H    -2.747293  -2.580486  4.164745
Sr    0.096776  2.300077  2.925754
