34
Energy: -105400.387597 eV PBE+vdW (tier 2 basis)
C    0.689715  -0.704185  -0.114771
C    0.419481  -0.535602  1.344403
O    1.403440  -0.531289  2.171719
H    1.187563  -1.668780  -0.283825
H    1.386705  0.076219  -0.448220
H    -0.220260  -0.661396  -0.719576
N    -0.831819  -0.389805  1.765011
C    -1.089680  -0.095122  3.175021
C    -0.643283  -1.235494  4.115596
O    0.286192  -0.963397  4.952915
H    -1.640074  -0.173538  1.034715
H    -0.392964  0.710975  3.460932
C    -2.481299  0.521904  3.448026
C    -3.805761  -0.241458  3.283770
C    -4.302449  -0.646471  1.881625
C    -4.153716  0.406354  0.777274
N    -2.856261  0.244001  0.055002
H    -2.507012  1.444127  2.846241
H    -2.438433  0.872087  4.490143
H    -4.561868  0.435850  3.708787
H    -3.824732  -1.117705  3.947408
H    -5.366319  -0.899200  1.983896
H    -3.828545  -1.576435  1.530658
H    -4.184654  1.422430  1.193702
H    -4.993477  0.335450  0.072796
H    -2.655337  1.089097  -0.485877
H    -2.963993  -0.498628  -0.641568
N    -1.135586  -2.466113  4.097711
C    -2.071398  -3.107909  3.178016
H    -0.751044  -3.063933  4.830437
H    -1.662211  -4.084377  2.893818
H    -2.190444  -2.503633  2.278531
H    -3.046083  -3.261693  3.655589
Sr    2.387095  -0.412547  4.201180
