34
Energy: -105399.496003 eV PBE+vdW (tier 2 basis)
C    0.314809  1.265717  1.682634
C    -0.404777  1.500195  2.969229
O    -0.386988  2.643016  3.533039
H    1.183842  1.932744  1.647355
H    -0.325787  1.523266  0.824296
H    0.642467  0.226381  1.570512
N    -1.099999  0.503187  3.554464
C    -1.956408  -0.432495  2.836198
C    -3.210678  0.373775  2.372552
O    -3.328795  1.612535  2.652078
H    -1.377768  0.682807  4.519911
H    -1.430647  -0.761470  1.925687
C    -2.290135  -1.667973  3.698725
C    -1.172610  -2.719852  3.768842
C    0.156224  -2.254699  4.368672
C    1.176050  -3.391594  4.521898
N    2.456302  -2.856776  4.981997
H    -3.197302  -2.144092  3.299513
H    -2.565706  -1.321134  4.709811
H    -1.003100  -3.125063  2.757154
H    -1.566497  -3.560313  4.360236
H    -0.018028  -1.793964  5.357206
H    0.634243  -1.482669  3.746507
H    1.337947  -3.858789  3.538870
H    0.748886  -4.177683  5.173998
H    3.216442  -3.504110  4.778342
H    2.459318  -2.719151  5.992885
N    -4.129521  -0.257761  1.667325
C    -5.357130  0.356082  1.150646
H    -3.982679  -1.245525  1.474093
H    -5.114870  1.174013  0.461966
H    -5.967544  0.740454  1.976098
H    -5.923532  -0.407960  0.612413
Sr    -2.488600  3.600555  3.499626
