34
Energy: -105400.339486 eV PBE+vdW (tier 2 basis)
C    -0.514809  -0.431531  -0.911477
C    -0.401094  -0.075859  0.528886
O    0.668526  -0.228848  1.175330
H    -0.020768  0.390402  -1.458875
H    -1.543592  -0.484678  -1.276064
H    0.039356  -1.345804  -1.145653
N    -1.430036  0.531088  1.209899
C    -2.884013  0.328024  1.312739
C    -3.160760  0.457128  2.831710
O    -2.244207  0.123585  3.646630
H    -1.078826  1.169068  1.922074
H    -3.409096  1.118546  0.758618
C    -3.426123  -1.045851  0.836652
C    -2.985912  -2.302251  1.621564
C    -1.849454  -3.146034  1.015790
C    -1.266497  -4.165675  1.998528
N    -0.169023  -3.567905  2.847057
H    -3.218862  -1.165315  -0.234663
H    -4.519021  -0.953461  0.895364
H    -3.860313  -2.960951  1.714796
H    -2.757448  -2.033783  2.667885
H    -1.024816  -2.529547  0.625534
H    -2.235755  -3.679724  0.136378
H    -0.875781  -5.038990  1.460666
H    -2.047990  -4.533852  2.676066
H    0.710723  -3.728020  2.341367
H    -0.069756  -4.158509  3.680039
N    -4.344386  0.858786  3.268834
C    -5.522296  1.292787  2.513920
H    -4.437332  0.844458  4.285346
H    -5.997156  2.117908  3.054825
H    -6.244276  0.471620  2.417988
H    -5.243631  1.651007  1.519196
Sr    -0.116108  -0.983112  3.372031
