34
Energy: -105400.022062 eV PBE+vdW (tier 2 basis)
C    -0.977537  -0.891275  -0.904656
C    -0.393056  -0.268362  0.323524
O    0.790711  0.200508  0.291596
H    -0.227168  -0.899518  -1.699997
H    -1.841806  -0.305276  -1.247088
H    -1.333334  -1.914328  -0.724035
N    -1.091029  -0.175993  1.480594
C    -1.881940  -1.266765  2.070954
C    -0.956524  -2.502934  2.254209
O    0.286469  -2.437443  1.920386
H    -0.618460  0.415186  2.163669
H    -2.097895  -0.925114  3.095389
C    -3.246208  -1.550756  1.395301
C    -4.419549  -0.824324  2.065563
C    -4.792474  -1.298688  3.478414
C    -5.164104  -2.782706  3.599812
N    -3.990832  -3.643184  3.944402
H    -3.422581  -2.633865  1.383312
H    -3.199604  -1.251128  0.343359
H    -5.297110  -0.947073  1.413783
H    -4.218639  0.258292  2.085132
H    -5.650121  -0.697075  3.808325
H    -3.996250  -1.065332  4.207910
H    -5.578297  -3.152762  2.651329
H    -5.953857  -2.905800  4.354287
H    -3.764790  -3.492673  4.932480
H    -4.286765  -4.622739  3.896496
N    -1.487292  -3.564844  2.800658
C    -0.726601  -4.779068  3.085494
H    -2.522769  -3.538517  3.164650
H    -1.412851  -5.524677  3.497443
H    0.067883  -4.587551  3.818724
H    -0.276876  -5.182125  2.170106
Sr    2.186912  -1.365229  1.268447
