34
Energy: -105400.219126 eV PBE+vdW (tier 2 basis)
C    -3.501740  -0.595623  0.297775
C    -2.555848  0.255568  1.081241
O    -1.361119  -0.129031  1.270650
H    -4.488465  -0.142377  0.158890
H    -3.620626  -1.555487  0.820517
H    -3.064311  -0.819874  -0.683765
N    -3.009191  1.417223  1.570570
C    -2.350648  2.359412  2.504847
C    -1.205221  3.136012  1.836726
O    -0.096639  2.570689  1.579310
H    -3.985034  1.620047  1.372928
H    -3.142886  3.079739  2.751060
C    -1.909564  1.729988  3.841773
C    -3.060437  1.083299  4.611441
C    -2.666558  0.608042  6.013034
C    -3.900380  0.235504  6.850262
N    -4.788229  1.393705  6.993845
H    -1.465171  2.539612  4.442036
H    -1.102579  0.990253  3.685632
H    -3.472020  0.235970  4.039687
H    -3.880147  1.811144  4.735694
H    -2.116249  1.410504  6.532790
H    -1.986248  -0.257205  5.961234
H    -3.559837  -0.192024  7.809194
H    -4.460034  -0.561074  6.337167
H    -5.733040  1.099895  7.237160
H    -4.474709  2.000702  7.751957
N    -1.406234  4.421587  1.591814
C    -0.426842  5.345708  1.019636
H    -2.318830  4.806809  1.823211
H    -0.361722  6.238805  1.651374
H    -0.739245  5.642666  0.010669
H    0.547731  4.855385  0.973320
Sr    0.800073  0.468423  1.554319
