34
Energy: -105400.192236 eV PBE+vdW (tier 2 basis)
C    -0.631718  0.578141  -0.413808
C    -0.379188  -0.201192  0.835729
O    0.639094  -0.956731  0.936448
H    -0.061534  1.520359  -0.398996
H    -1.690355  0.816642  -0.557722
H    -0.264765  -0.006445  -1.265403
N    -1.224611  -0.096868  1.884889
C    -1.749348  1.181983  2.357839
C    -0.566284  2.028967  2.900862
O    0.622325  1.536450  2.937924
H    -1.054370  -0.779892  2.624684
H    -2.157812  1.731768  1.497097
C    -2.871484  0.971773  3.396595
C    -4.276361  0.938925  2.786341
C    -4.755796  2.259868  2.161571
C    -4.717087  3.490023  3.079124
N    -3.432799  4.251364  2.975915
H    -2.810851  1.765113  4.151641
H    -2.673997  0.035348  3.942232
H    -4.975765  0.652719  3.585472
H    -4.341668  0.136050  2.035735
H    -5.792250  2.106265  1.832216
H    -4.204115  2.487849  1.232048
H    -4.841392  3.190903  4.129664
H    -5.563340  4.150165  2.841369
H    -3.409196  4.711023  2.060313
H    -3.471846  5.026119  3.645422
N    -0.856283  3.242244  3.290763
C    0.126859  4.175109  3.835563
H    -1.886954  3.584138  3.188562
H    0.909007  4.398724  3.098933
H    0.594914  3.766158  4.739528
H    -0.387859  5.104535  4.095216
Sr    2.170737  -0.057607  2.434443
