34
Energy: -105400.109415 eV PBE+vdW (tier 2 basis)
C    -0.929854  1.941779  1.146132
C    -0.988669  0.485300  1.468161
O    -0.068293  -0.301464  1.079405
H    -1.808178  2.498892  1.487762
H    -0.812283  2.076390  0.063180
H    -0.032729  2.366449  1.619677
N    -2.020943  0.025533  2.186344
C    -2.148395  -1.330942  2.753530
C    -2.595174  -2.320430  1.653473
O    -1.715571  -2.813013  0.875295
H    -2.720182  0.704720  2.479795
H    -1.135056  -1.657273  3.036179
C    -3.011802  -1.286070  4.020195
C    -3.010189  -2.587707  4.831967
C    -3.825504  -2.460141  6.122596
C    -3.819777  -3.739121  6.968461
N    -4.528578  -3.511423  8.221478
H    -4.045973  -0.978801  3.776624
H    -2.614322  -0.474663  4.649693
H    -1.968336  -2.848962  5.082846
H    -3.398514  -3.426247  4.229924
H    -4.867311  -2.191337  5.878134
H    -3.432967  -1.638723  6.740879
H    -2.778912  -3.998702  7.215869
H    -4.215199  -4.580349  6.360852
H    -5.540259  -3.512670  8.093574
H    -4.313623  -4.231293  8.909048
N    -3.875931  -2.615578  1.544018
C    -4.469575  -3.523919  0.563457
H    -4.503250  -2.199410  2.229531
H    -5.145397  -2.967124  -0.097262
H    -5.041198  -4.298968  1.087273
H    -3.676286  -3.988784  -0.025234
Sr    0.415229  -2.328946  0.186145
