34
Energy: -105400.350105 eV PBE+vdW (tier 2 basis)
C    -0.487612  1.035488  0.223823
C    -0.718125  -0.258426  0.943822
O    0.225476  -1.130007  0.953392
H    -1.362726  1.689236  0.228273
H    -0.173350  0.848327  -0.810995
H    0.346750  1.554012  0.717526
N    -1.888741  -0.446605  1.537146
C    -2.259020  -1.483644  2.509956
C    -1.936114  -2.931086  2.141688
O    -1.655790  -3.308744  0.956918
H    -2.619315  0.344162  1.404737
H    -1.707273  -1.270756  3.442408
C    -3.776195  -1.342833  2.793911
C    -4.116847  -0.042198  3.555874
C    -5.306334  0.738128  2.978912
C    -5.191861  1.068742  1.489229
N    -3.836415  1.576576  1.139832
H    -4.129568  -2.212904  3.357549
H    -4.291359  -1.392820  1.823982
H    -3.234513  0.615073  3.580192
H    -4.323909  -0.281098  4.607339
H    -5.414909  1.668904  3.555761
H    -6.242881  0.182571  3.132599
H    -5.979285  1.787483  1.218412
H    -5.367785  0.174846  0.872791
H    -3.850717  1.889576  0.165804
H    -3.644048  2.421640  1.686737
N    -1.972502  -3.844366  3.112090
C    -2.255751  -3.693533  4.541517
H    -1.859318  -4.801412  2.779815
H    -1.960521  -2.703288  4.900172
H    -1.675741  -4.444652  5.087444
H    -3.321410  -3.852817  4.751109
Sr    0.329883  -3.083882  -0.153904
