34
Energy: -105400.21554 eV PBE+vdW (tier 2 basis)
C    -0.199615  -0.662945  -0.044577
C    -0.649690  0.033018  1.199040
O    -0.299808  -0.408318  2.335803
H    -0.521330  -0.168345  -0.966645
H    -0.596487  -1.688137  -0.032733
H    0.895104  -0.745087  -0.040134
N    -1.424331  1.119638  1.069064
C    -2.123051  1.906693  2.112213
C    -1.145295  2.729061  2.970894
O    -0.422230  2.168214  3.851476
H    -1.640331  1.384802  0.112122
H    -2.735434  2.616166  1.540320
C    -3.086918  1.082716  2.981695
C    -3.954899  1.932364  3.920182
C    -4.915032  2.912392  3.223398
C    -5.801303  2.283953  2.136977
N    -6.388978  1.025004  2.602396
H    -2.533470  0.331143  3.571397
H    -3.737690  0.497031  2.316598
H    -3.327068  2.486069  4.637831
H    -4.549900  1.224967  4.511855
H    -4.374932  3.770096  2.787387
H    -5.553972  3.353173  4.003312
H    -5.200800  2.051734  1.240322
H    -6.535652  3.042545  1.811564
H    -7.066471  1.198467  3.347397
H    -6.912723  0.575523  1.851239
N    -1.125760  4.038787  2.781998
C    -0.309815  4.997549  3.526743
H    -1.739372  4.417029  2.064549
H    -0.951180  5.803733  3.900585
H    0.457133  5.425773  2.869357
H    0.168257  4.488251  4.366072
Sr    0.163247  0.053530  4.498484
