34
Energy: -105400.322871 eV PBE+vdW (tier 2 basis)
C    -1.763873  2.058078  1.977795
C    -1.103556  1.000569  2.802069
O    0.163857  0.921481  2.836161
H    -2.856190  2.049939  2.048330
H    -1.471798  1.918250  0.927547
H    -1.389215  3.043678  2.284073
N    -1.880017  0.154631  3.490347
C    -1.497699  -1.045792  4.263394
C    -0.708200  -0.680634  5.522785
O    0.547878  -0.461239  5.456965
H    -2.882818  0.283647  3.378461
H    -2.466687  -1.500252  4.533753
C    -0.819576  -2.131997  3.415097
C    -0.584653  -3.459551  4.156195
C    -1.798148  -4.107073  4.853720
C    -3.073377  -4.251266  4.010582
N    -3.919807  -3.029178  4.071683
H    0.133879  -1.785229  2.979316
H    -1.481650  -2.293456  2.552373
H    0.219534  -3.337496  4.899790
H    -0.191666  -4.168258  3.412228
H    -2.049240  -3.570170  5.783993
H    -1.476716  -5.105051  5.182595
H    -3.626851  -5.141621  4.344715
H    -2.811064  -4.435091  2.958555
H    -4.540184  -3.004959  3.260290
H    -4.551319  -3.107874  4.871935
N    -1.308699  -0.615080  6.701526
C    -2.713346  -0.799468  7.064392
H    -0.678097  -0.388405  7.472818
H    -3.110076  0.135220  7.479633
H    -2.789359  -1.584913  7.825928
H    -3.307617  -1.089015  6.195144
Sr    2.043388  0.250130  3.896537
