34
Energy: -105400.695813 eV PBE+vdW (tier 2 basis)
C    0.395822  1.364886  0.825813
C    -0.254398  0.476002  1.832316
O    0.423486  -0.254594  2.608144
H    0.834301  2.241639  1.325533
H    -0.287286  1.702238  0.040459
H    1.229994  0.813435  0.373365
N    -1.610883  0.441519  1.941304
C    -2.488804  1.603086  1.916374
C    -1.930012  2.669381  2.893052
O    -1.085581  2.336138  3.783001
H    -1.952436  -0.324171  2.520542
H    -2.500737  2.038278  0.907072
C    -3.943684  1.153657  2.252593
C    -4.123085  0.158447  3.413759
C    -3.822836  0.688741  4.830090
C    -3.424240  -0.375642  5.850632
N    -2.086932  -1.011539  5.550133
H    -4.349827  0.699006  1.339009
H    -4.548939  2.050814  2.440090
H    -3.556025  -0.767910  3.207154
H    -5.166161  -0.185586  3.376522
H    -4.717144  1.197793  5.216898
H    -3.044539  1.464431  4.810227
H    -4.197948  -1.154287  5.923232
H    -3.342025  0.085378  6.843066
H    -1.846097  -1.583147  6.368398
H    -2.230639  -1.720316  4.821558
N    -2.327485  3.929663  2.790454
C    -3.266864  4.538133  1.845312
H    -1.923180  4.554322  3.488851
H    -3.372371  3.929083  0.943559
H    -2.881400  5.521118  1.554756
H    -4.252549  4.669156  2.310055
Sr    -0.024411  0.495860  4.822235
