34
Energy: -105400.361484 eV PBE+vdW (tier 2 basis)
C    -0.550139  -0.274929  0.233226
C    -0.170962  0.318185  1.562193
O    1.059970  0.288698  1.924544
H    -0.572065  0.507746  -0.540828
H    -1.536918  -0.754050  0.243074
H    0.211919  -1.002405  -0.063199
N    -1.020826  0.935291  2.411466
C    -2.293770  1.478333  1.926782
C    -2.046480  2.943572  1.504535
O    -0.964436  3.517523  1.839953
H    -1.146024  -0.331822  3.695356
H    -2.657529  0.933823  1.038604
C    -3.371556  1.378401  3.026315
C    -3.833631  -0.082019  3.244133
C    -3.784140  -0.604241  4.688499
C    -2.427635  -0.518001  5.382712
N    -1.314791  -1.032717  4.491618
H    -4.235132  2.004622  2.774008
H    -2.952115  1.816867  3.944805
H    -3.246180  -0.750541  2.592477
H    -4.865703  -0.197455  2.889879
H    -4.129920  -1.649066  4.698598
H    -4.494292  -0.052649  5.321787
H    -2.416720  -1.105517  6.307668
H    -2.149036  0.513192  5.632946
H    -0.440463  -1.158206  5.014380
H    -1.555506  -1.945914  4.085359
N    -2.948650  3.608880  0.790968
C    -4.232916  3.153898  0.260427
H    -2.693646  4.578156  0.600660
H    -4.248608  2.065469  0.152889
H    -4.379022  3.597719  -0.730045
H    -5.060823  3.467644  0.909684
Sr    0.962038  2.510808  2.720115
