34
Energy: -105399.410395 eV PBE+vdW (tier 2 basis)
C    0.059044  0.079398  -0.257445
C    0.006691  -0.262266  1.193615
O    1.072195  -0.398342  1.873262
H    0.345245  1.133765  -0.393634
H    -0.884071  -0.107526  -0.778975
H    0.856533  -0.519349  -0.717342
N    -1.184596  -0.410931  1.817294
C    -2.311317  0.514905  1.649332
C    -1.780281  1.933467  1.958370
O    -0.768479  2.055687  2.739359
H    -1.117085  -0.813306  2.753409
H    -2.688557  0.459799  0.620078
C    -3.423711  0.078803  2.639760
C    -4.794294  0.739735  2.469827
C    -5.507621  0.375685  1.165196
C    -6.789597  1.179114  0.924774
N    -7.220132  1.027246  -0.464143
H    -3.049960  0.242977  3.664474
H    -3.528409  -1.009377  2.505899
H    -4.710023  1.833278  2.576659
H    -5.409412  0.423604  3.324965
H    -5.736503  -0.702331  1.162937
H    -4.862571  0.537838  0.284444
H    -6.581736  2.249170  1.090587
H    -7.545996  0.893424  1.681253
H    -7.580837  0.087358  -0.635826
H    -7.986165  1.666142  -0.676920
N    -2.335594  3.017420  1.446823
C    -3.414564  3.168889  0.466126
H    -1.923533  3.889456  1.783135
H    -4.295905  3.612270  0.944104
H    -3.697785  2.208205  0.032545
H    -3.069224  3.836749  -0.331413
Sr    1.266804  1.270097  3.480443
