34
Energy: -105399.619331 eV PBE+vdW (tier 2 basis)
C    -2.562120  -3.753021  0.638608
C    -1.486363  -2.856908  1.157770
O    -0.267549  -3.221949  1.141639
H    -2.677148  -3.622458  -0.449428
H    -3.532170  -3.567688  1.111297
H    -2.259440  -4.792807  0.807310
N    -1.791512  -1.628560  1.630252
C    -2.739300  -0.726592  0.978126
C    -2.156500  -0.374190  -0.422011
O    -0.963884  -0.717227  -0.731569
H    -1.024140  -1.158876  2.112977
H    -3.690085  -1.257815  0.821287
C    -3.006136  0.492963  1.889428
C    -4.055170  1.482876  1.375007
C    -4.653433  2.361493  2.480470
C    -5.809304  3.222881  1.953713
N    -6.852997  2.378925  1.355395
H    -2.053616  1.010977  2.092337
H    -3.343797  0.070066  2.847656
H    -4.909595  0.952336  0.915287
H    -3.621364  2.141800  0.605261
H    -3.883655  3.011527  2.922901
H    -5.024496  1.715982  3.293744
H    -5.432458  3.898922  1.171149
H    -6.169090  3.867123  2.774110
H    -7.475026  2.939266  0.773647
H    -7.443456  1.971560  2.082258
N    -2.944471  0.270951  -1.258875
C    -2.596470  0.734746  -2.601280
H    -3.870573  0.522701  -0.910783
H    -1.545946  0.517541  -2.803045
H    -2.765979  1.815977  -2.666820
H    -3.228967  0.230592  -3.342137
Sr    0.936567  -1.979241  -0.396598
