34
Energy: -105399.65896 eV PBE+vdW (tier 2 basis)
C    -2.166369  4.425741  -0.868238
C    -1.384675  3.258511  -0.363462
O    -0.112525  3.264942  -0.382606
H    -1.614217  4.878980  -1.699983
H    -2.252300  5.195167  -0.084326
H    -3.173747  4.151811  -1.197189
N    -2.021434  2.183987  0.151625
C    -3.162775  2.270006  1.065085
C    -2.710693  3.103338  2.290317
O    -1.469880  3.294295  2.525676
H    -1.425722  1.369808  0.310165
H    -3.998238  2.788972  0.570448
C    -3.583666  0.830184  1.437337
C    -4.854941  0.683560  2.279935
C    -5.248621  -0.786753  2.518379
C    -4.410104  -1.530496  3.561563
N    -2.997087  -1.691480  3.152484
H    -2.757623  0.314059  1.955781
H    -3.733686  0.311275  0.477680
H    -5.691081  1.198585  1.777533
H    -4.725284  1.157182  3.267069
H    -5.233975  -1.334774  1.561710
H    -6.294771  -0.810207  2.854659
H    -4.905288  -2.492670  3.777230
H    -4.418554  -0.960755  4.503687
H    -2.941663  -2.395252  2.411898
H    -2.468898  -2.088950  3.931170
N    -3.641040  3.601100  3.082111
C    -3.378868  4.348813  4.315148
H    -4.611418  3.409597  2.843765
H    -2.784030  3.744003  5.009439
H    -4.337155  4.592567  4.780426
H    -2.844395  5.279758  4.091752
Sr    0.714194  3.343873  1.781921
