34
Energy: -105400.388922 eV PBE+vdW (tier 2 basis)
C    0.918573  0.669851  1.033399
C    -0.305011  1.280296  1.635781
O    -0.204346  1.910383  2.746683
H    1.625209  1.465265  0.757085
H    0.697269  0.053430  0.159042
H    1.417971  0.052788  1.791683
N    -1.474184  1.153753  1.009626
C    -2.692269  1.802840  1.534711
C    -3.001590  1.307985  2.965097
O    -2.857774  2.089026  3.960369
H    -1.402504  0.910248  -0.035662
H    -2.473724  2.876410  1.650209
C    -3.945701  1.649834  0.625195
C    -3.705457  1.491154  -0.877205
C    -2.841917  2.562112  -1.571702
C    -1.854427  1.910513  -2.539504
N    -0.927056  1.000151  -1.797730
H    -4.574504  2.529115  0.826418
H    -4.540249  0.787041  0.955883
H    -4.693268  1.444460  -1.354914
H    -3.262471  0.497908  -1.049664
H    -2.276702  3.166258  -0.842630
H    -3.473410  3.276140  -2.116393
H    -1.286936  2.673215  -3.088203
H    -2.404827  1.327377  -3.290017
H    -0.867187  0.098531  -2.273026
H    0.018260  1.383707  -1.841385
N    -3.426053  0.064108  3.116916
C    -3.800313  -0.558784  4.386046
H    -3.523652  -0.500473  2.276175
H    -4.023500  0.219946  5.119504
H    -2.989761  -1.200409  4.756166
H    -4.692807  -1.173787  4.230228
Sr    -0.874681  3.041610  4.572821
