34
Energy: -105400.217304 eV PBE+vdW (tier 2 basis)
C    0.006522  -0.703978  -0.317460
C    -0.588121  -0.796394  1.051078
O    -0.239253  -1.722453  1.838205
H    -0.351523  0.152819  -0.897294
H    -0.225167  -1.628352  -0.864724
H    1.099923  -0.650431  -0.231168
N    -1.500967  0.131234  1.401585
C    -2.294029  0.202006  2.648991
C    -1.380474  0.582475  3.830542
O    -0.657809  -0.294765  4.392707
H    -1.717393  0.827423  0.694135
H    -2.998361  1.026310  2.489237
C    -3.113210  -1.083447  2.891836
C    -3.750363  -1.216961  4.281581
C    -4.310829  -2.618029  4.553203
C    -3.278866  -3.757722  4.499175
N    -3.792377  -4.959482  5.055270
H    -2.480869  -1.955502  2.667569
H    -3.892504  -1.120504  2.117025
H    -3.017880  -0.972582  5.068424
H    -4.560963  -0.482499  4.390331
H    -5.117897  -2.864589  3.848801
H    -4.769915  -2.618788  5.552357
H    -2.324492  -3.358107  5.028407
H    -2.987977  -3.966410  3.454436
H    -3.281272  -5.813574  4.858327
H    -4.072275  -4.911168  6.031196
N    -1.358098  1.836296  4.261255
C    -2.099299  2.999258  3.757722
H    -0.725408  1.997521  5.045282
H    -1.839424  3.217689  2.715020
H    -1.815711  3.863887  4.363863
H    -3.182046  2.856421  3.857846
Sr    -0.125629  -2.502872  4.006375
