34
Energy: -105401.046979 eV PBE+vdW (tier 2 basis)
C    0.269073  0.268641  0.883111
C    -0.332654  0.373422  2.244786
O    0.150526  1.150197  3.117963
H    0.289959  1.266865  0.425324
H    -0.266703  -0.420383  0.222197
H    1.313184  -0.059856  0.976139
N    -1.419904  -0.374657  2.531126
C    -2.098443  -0.270795  3.822043
C    -1.392450  -1.150187  4.879152
O    -0.537321  -0.596425  5.631750
H    -1.798776  -0.979713  1.807300
H    -1.864540  0.748589  4.148714
C    -3.641426  -0.324786  3.766697
C    -4.209054  0.993841  4.327191
C    -3.767736  1.290277  5.784870
C    -3.278100  2.710429  6.065213
N    -1.990298  3.064344  5.356781
H    -4.031461  -1.174731  4.343716
H    -3.981421  -0.466652  2.731516
H    -5.303960  0.973765  4.264472
H    -3.898312  1.806734  3.649169
H    -2.990817  0.581935  6.116269
H    -4.612189  1.105904  6.462668
H    -3.090518  2.823799  7.140596
H    -4.055791  3.440871  5.796367
H    -2.207684  3.169744  4.358147
H    -1.768972  4.026330  5.640725
N    -1.683383  -2.440102  4.947732
C    -1.066663  -3.399735  5.865719
H    -2.403228  -2.795989  4.323337
H    -1.838279  -3.850061  6.501238
H    -0.336592  -2.877677  6.487839
H    -0.566746  -4.190139  5.293251
Sr    0.259408  1.617881  5.416572
