34
Energy: -105398.581001 eV PBE+vdW (tier 2 basis)
C    0.151398  -0.933458  0.683056
C    -0.211925  -0.306679  1.987432
O    0.732337  -0.114706  2.868605
H    1.078603  -0.486803  0.304713
H    -0.632287  -0.833148  -0.072986
H    0.342638  -2.005532  0.838787
N    -1.429137  0.052159  2.293836
C    -2.672875  0.030151  1.512809
C    -3.536653  1.062775  2.297396
O    -3.147133  1.400841  3.428760
H    -1.652986  0.547900  3.193862
H    -2.472556  0.412385  0.501333
C    -3.286435  -1.387243  1.410148
C    -3.736077  -2.055846  2.720215
C    -5.131968  -1.654911  3.211531
C    -5.591535  -2.479688  4.419981
N    -6.911395  -2.065874  4.859135
H    -2.537004  -2.020595  0.912785
H    -4.130575  -1.337534  0.708200
H    -2.992933  -1.877245  3.515436
H    -3.724206  -3.142566  2.547646
H    -5.854640  -1.792722  2.389544
H    -5.174672  -0.595136  3.496088
H    -4.895525  -2.326453  5.258303
H    -5.540529  -3.558048  4.163468
H    -7.660958  -2.302283  4.211699
H    -7.156420  -2.377859  5.795502
N    -4.647718  1.551592  1.733075
C    -5.238983  1.236140  0.437213
H    -5.163628  2.188173  2.337558
H    -5.778438  2.117471  0.075671
H    -5.945948  0.398099  0.506994
H    -4.467162  0.996267  -0.302140
Sr    2.316293  0.310828  4.278638
