34
Energy: -105400.67981 eV PBE+vdW (tier 2 basis)
C    1.150174  -0.182663  1.349663
C    0.525355  -0.009037  2.697611
O    1.269146  0.338301  3.681221
H    1.559286  0.782363  1.019238
H    0.448899  -0.556635  0.600206
H    1.996228  -0.877327  1.427687
N    -0.780471  -0.211218  2.830029
C    -1.548266  0.085452  4.053800
C    -1.279345  -0.934079  5.187780
O    -0.258581  -0.788592  5.935345
H    -1.364322  -0.290408  1.915552
H    -1.165917  1.034014  4.468090
C    -3.028194  0.303223  3.693344
C    -3.800671  -0.876231  3.036960
C    -4.476731  -0.547474  1.690927
C    -3.610543  -0.839086  0.468835
N    -2.317895  -0.100088  0.496365
H    -3.055878  1.176393  3.026981
H    -3.543501  0.628894  4.607157
H    -4.580032  -1.216710  3.734276
H    -3.136783  -1.740609  2.859849
H    -4.811686  0.502193  1.688300
H    -5.391116  -1.147052  1.587760
H    -4.179890  -0.616291  -0.446208
H    -3.367612  -1.911385  0.440161
H    -2.504167  0.901811  0.388596
H    -1.785836  -0.354533  -0.339800
N    -2.127319  -1.922797  5.404390
C    -1.984902  -2.912389  6.473900
H    -2.929107  -2.001669  4.783559
H    -2.921706  -3.469329  6.556557
H    -1.775373  -2.410705  7.424688
H    -1.170410  -3.612079  6.247769
Sr    1.805605  0.183897  5.844890
