34
Energy: -105400.256893 eV PBE+vdW (tier 2 basis)
C    -0.418188  1.438278  -0.631632
C    -0.270009  0.936296  0.766368
O    0.024276  1.733713  1.712691
H    -0.622449  0.645851  -1.358848
H    0.490265  1.978320  -0.928144
H    -1.243267  2.164840  -0.655107
N    -0.466514  -0.365527  1.008809
C    -0.541994  -0.993130  2.341796
C    0.881970  -1.205286  2.902208
O    1.462130  -0.235743  3.490191
H    -0.713109  -0.954145  0.215785
H    -1.008293  -0.258181  3.016613
C    -1.446032  -2.230442  2.298944
C    -1.774144  -2.786391  3.688014
C    -2.808278  -3.916297  3.658014
C    -3.304129  -4.273832  5.065663
N    -3.927760  -3.106913  5.704608
H    -1.016518  -3.009434  1.640969
H    -2.382263  -1.923383  1.806804
H    -2.186295  -1.983250  4.320888
H    -0.861722  -3.143999  4.193984
H    -2.393915  -4.815653  3.176894
H    -3.670721  -3.605741  3.044556
H    -2.448809  -4.581861  5.686224
H    -3.967504  -5.152709  4.992666
H    -4.000731  -3.248628  6.711497
H    -4.884919  -2.987013  5.369680
N    1.461168  -2.378987  2.740752
C    2.799226  -2.749672  3.199553
H    0.906880  -3.105385  2.291472
H    3.243982  -1.907818  3.733744
H    3.424815  -3.016527  2.339110
H    2.727267  -3.614039  3.870333
Sr    1.240586  2.040684  3.601906
