34
Energy: -105400.098578 eV PBE+vdW (tier 2 basis)
C    2.096501  1.359423  0.768017
C    1.296382  0.959057  1.972299
O    1.823760  0.486493  2.992289
H    2.927201  1.999541  1.087942
H    1.513419  1.871937  -0.004739
H    2.541325  0.453519  0.332968
N    -0.060579  1.149370  1.903892
C    -1.062088  0.604353  2.819319
C    -1.009624  1.099254  4.277325
O    -2.130393  1.205728  4.910889
H    -0.424058  1.573408  1.057104
H    -2.023447  0.990362  2.450423
C    -1.132931  -0.951795  2.768370
C    -2.235776  -1.497553  3.675607
C    -2.625505  -2.970984  3.576074
C    -3.475333  -3.399903  4.773815
N    -4.625272  -2.454036  5.034488
H    -0.160816  -1.377815  3.050669
H    -1.325143  -1.237932  1.724963
H    -3.146573  -0.899187  3.447995
H    -1.923466  -1.309390  4.725086
H    -1.728919  -3.606406  3.553120
H    -3.158088  -3.158189  2.631547
H    -2.858389  -3.410265  5.685025
H    -3.849301  -4.422360  4.628348
H    -5.248563  -2.496403  4.218350
H    -5.191306  -2.875354  5.780024
N    0.149447  1.329727  4.836858
C    0.351388  1.814348  6.196402
H    0.977689  1.046796  4.235031
H    1.215028  2.487326  6.201818
H    0.564739  0.977916  6.876312
H    -0.533177  2.356625  6.542999
Sr    -3.936014  0.055038  5.610205
