34
Energy: -105398.946484 eV PBE+vdW (tier 2 basis)
C    0.164159  -0.682141  0.497038
C    -0.011394  -0.679072  1.977346
O    1.053859  -0.885643  2.726354
H    0.995645  -0.019480  0.224054
H    -0.736777  -0.365525  -0.035210
H    0.429862  -1.694946  0.161388
N    -1.146325  -0.485878  2.575583
C    -2.494657  -0.203861  2.069445
C    -3.145201  0.387404  3.368072
O    -2.521906  0.195011  4.440775
H    -1.258512  -0.400187  3.640988
H    -2.453420  0.567042  1.286168
C    -3.158716  -1.490813  1.515214
C    -4.418544  -1.254398  0.663555
C    -5.756774  -1.225726  1.432255
C    -6.719139  -0.141254  0.942295
N    -6.120525  1.216246  1.086298
H    -3.370191  -2.176316  2.349509
H    -2.402130  -1.990513  0.892269
H    -4.461291  -2.043467  -0.098584
H    -4.279910  -0.319053  0.097900
H    -5.580602  -1.077026  2.506802
H    -6.252424  -2.202434  1.345553
H    -7.636661  -0.179808  1.542726
H    -7.018843  -0.335249  -0.099120
H    -5.763964  1.546415  0.188945
H    -6.846746  1.886790  1.340563
N    -4.278481  1.059826  3.269791
C    -4.939332  1.599055  4.455673
H    -4.819328  1.140392  2.366851
H    -5.819355  2.160183  4.127820
H    -4.267359  2.269980  5.003677
H    -5.254708  0.796184  5.134827
Sr    2.676133  -1.164454  4.077275
