34
Energy: -105398.599161 eV PBE+vdW (tier 2 basis)
C    -0.057388  -1.932656  -0.768949
C    0.541561  -1.218395  0.395845
O    1.828208  -1.340540  0.603076
H    0.566830  -1.776522  -1.657351
H    -1.080056  -1.613374  -0.987006
H    -0.071521  -3.013073  -0.563127
N    -0.152328  -0.484737  1.220182
C    -1.571976  -0.112311  1.218341
C    -1.564571  1.116403  2.178786
O    -0.537031  1.321013  2.849029
H    0.296094  0.058528  2.002078
H    -1.851772  0.212925  0.205767
C    -2.521323  -1.252458  1.674680
C    -2.672886  -1.480736  3.181619
C    -1.442203  -2.000550  3.931302
C    -1.733388  -2.235034  5.422294
N    -2.103167  -0.994438  6.091680
H    -2.196328  -2.180111  1.178132
H    -3.509793  -1.029523  1.250693
H    -3.490814  -2.206535  3.310763
H    -3.021157  -0.561542  3.675583
H    -0.605800  -1.285592  3.852624
H    -1.096592  -2.949226  3.488289
H    -0.858999  -2.731951  5.884693
H    -2.575071  -2.935418  5.521301
H    -1.311736  -0.380749  6.277033
H    -2.617305  -1.141499  6.957035
N    -2.648762  1.896406  2.250430
C    -3.920089  1.769656  1.544523
H    -2.568471  2.643217  2.937597
H    -3.770830  1.396463  0.525135
H    -4.374010  2.762522  1.467464
H    -4.617120  1.108075  2.076774
Sr    3.965366  -1.465420  0.838267
