34
Energy: -105400.093277 eV PBE+vdW (tier 2 basis)
C    -0.373530  0.039481  -0.101870
C    -0.399313  -0.072518  1.388108
O    0.624584  -0.486287  2.013038
H    -0.202312  -0.961453  -0.523329
H    0.477447  0.662542  -0.406474
H    -1.293951  0.451419  -0.527947
N    -1.526854  0.271429  2.026846
C    -1.877463  0.113856  3.457258
C    -1.100352  1.087829  4.358212
O    0.129020  0.896576  4.615682
H    -2.286133  0.582893  1.427808
H    -2.938735  0.395249  3.501821
C    -1.778621  -1.334329  3.977615
C    -2.724609  -2.314269  3.277357
C    -2.551375  -3.745187  3.793866
C    -3.564953  -4.735200  3.201259
N    -3.345282  -6.065740  3.757154
H    -1.998301  -1.310008  5.056255
H    -0.745620  -1.712557  3.881526
H    -2.559175  -2.289274  2.188181
H    -3.763817  -1.983778  3.441772
H    -2.650868  -3.774173  4.889871
H    -1.530835  -4.099917  3.565241
H    -3.518836  -4.689046  2.094366
H    -4.578478  -4.412292  3.481544
H    -4.189570  -6.633035  3.711958
H    -2.619588  -6.574045  3.253196
N    -1.776680  2.093685  4.890831
C    -1.238084  3.088367  5.819252
H    -2.757938  2.186446  4.639364
H    -0.241869  2.778750  6.141801
H    -1.900817  3.165305  6.688570
H    -1.179427  4.066523  5.325679
Sr    1.862333  -0.414242  3.906188
