34
Energy: -105400.594707 eV PBE+vdW (tier 2 basis)
C    2.385874  1.726181  2.412249
C    1.283780  1.499528  3.409710
O    1.055370  2.468885  4.244235
H    2.094430  2.521238  1.711359
H    2.649119  0.821673  1.855993
H    3.284878  2.080033  2.931945
N    0.614245  0.367608  3.375713
C    -0.523157  0.155996  4.286037
C    -0.085114  -0.050130  5.754496
O    0.009162  0.949772  6.536187
H    0.537337  -0.319897  2.051550
H    -1.128967  1.079133  4.335188
C    -1.445590  -0.951017  3.735578
C    -0.819129  -2.337961  3.415801
C    -0.870835  -2.773391  1.938342
C    0.296541  -2.303949  1.078966
N    0.386145  -0.804957  1.000144
H    -1.916249  -0.542184  2.829033
H    -2.276868  -1.076319  4.442628
H    -1.345163  -3.101970  4.002899
H    0.240017  -2.379875  3.723047
H    -1.828707  -2.470172  1.485864
H    -0.859344  -3.870959  1.885562
H    0.214386  -2.700513  0.059231
H    1.252390  -2.648190  1.496453
H    1.163059  -0.524680  0.392642
H    -0.465773  -0.414817  0.582126
N    0.173670  -1.266052  6.210542
C    0.580036  -1.557931  7.585890
H    0.084109  -2.044408  5.565363
H    1.605883  -1.214162  7.769476
H    0.533761  -2.639207  7.739224
H    -0.095770  -1.062760  8.291597
Sr    0.530470  3.165452  6.268929
