34
Energy: -105400.12503 eV PBE+vdW (tier 2 basis)
C    -0.323118  0.757889  -0.589127
C    -0.655934  1.607113  0.592961
O    -0.167879  2.775988  0.707824
H    -0.690358  1.263791  -1.493866
H    -0.760214  -0.244760  -0.541504
H    0.766515  0.674780  -0.691032
N    -1.487075  1.118073  1.520542
C    -2.075381  1.863392  2.648527
C    -1.049607  1.985361  3.797040
O    -0.136357  2.869910  3.716446
H    -1.852547  0.181067  1.363997
H    -2.238941  2.895898  2.299615
C    -3.431663  1.253295  3.026290
C    -4.504702  1.402047  1.938408
C    -5.832497  0.760741  2.351391
C    -6.924367  0.891170  1.282625
N    -8.123478  0.178764  1.707235
H    -3.784051  1.747253  3.944347
H    -3.309130  0.181528  3.270208
H    -4.161590  0.945691  0.994596
H    -4.652393  2.473677  1.724231
H    -6.186415  1.219868  3.289596
H    -5.691051  -0.310029  2.565671
H    -6.571135  0.424207  0.350113
H    -7.083416  1.965246  1.053615
H    -8.642508  0.697405  2.415579
H    -8.759797  0.020721  0.927832
N    -1.152099  1.173568  4.832263
C    -0.273757  1.155902  6.002067
H    -1.928012  0.514182  4.825654
H    0.279491  0.209187  6.036202
H    -0.879808  1.247836  6.910766
H    0.426615  1.991230  5.941372
Sr    0.821653  4.228079  2.141054
