34
Energy: -105399.475426 eV PBE+vdW (tier 2 basis)
C    -0.093668  -1.419082  -0.681763
C    0.360779  -0.361152  0.268533
O    1.524134  0.146563  0.155277
H    0.592664  -1.452191  -1.532902
H    -1.115029  -1.232718  -1.032869
H    -0.090379  -2.407868  -0.196565
N    -0.431001  0.076322  1.274431
C    -1.226241  -0.781826  2.166431
C    -0.245352  -1.763755  2.864446
O    1.018760  -1.617039  2.751810
H    -0.070411  0.918977  1.720025
H    -1.581156  -0.099330  2.955120
C    -2.482400  -1.432214  1.548559
C    -3.393444  -0.438098  0.822852
C    -3.936144  0.702292  1.689388
C    -5.144814  1.391175  1.028153
N    -6.234547  0.432693  0.842650
H    -3.062436  -1.874241  2.375799
H    -2.203933  -2.267202  0.891112
H    -4.259191  -0.998697  0.439438
H    -2.876361  -0.021661  -0.056971
H    -3.165275  1.465204  1.892521
H    -4.257891  0.305387  2.668700
H    -4.844977  1.766999  0.038477
H    -5.419304  2.276757  1.627096
H    -6.814732  0.363685  1.678403
H    -6.851182  0.714246  0.082806
N    -0.753740  -2.731017  3.603036
C    0.032559  -3.692309  4.381580
H    -1.767072  -2.814329  3.631892
H    -0.657371  -4.316917  4.954452
H    0.699602  -3.166056  5.073858
H    0.625259  -4.331587  3.716229
Sr    2.896167  -0.621581  1.845767
