34
Energy: -105400.605136 eV PBE+vdW (tier 2 basis)
C    -2.027314  -0.441339  0.260808
C    -1.381545  -0.243466  1.595679
O    -0.114616  -0.064368  1.653333
H    -1.861713  0.451682  -0.357350
H    -3.102729  -0.627622  0.333160
H    -1.541231  -1.280174  -0.254713
N    -2.158569  -0.253389  2.670586
C    -1.737803  -0.251676  4.081000
C    -0.975138  1.016599  4.481503
O    0.285113  1.108903  4.332947
H    -3.166645  -0.653202  2.599031
H    -2.690498  -0.228893  4.626348
C    -1.022813  -1.545790  4.509793
C    -1.746041  -2.831298  4.075235
C    -3.214393  -3.006089  4.540435
C    -4.282960  -2.922675  3.444629
N    -4.552593  -1.534890  2.962219
H    -0.917998  -1.518789  5.605291
H    0.003897  -1.574726  4.109028
H    -1.148222  -3.666564  4.462526
H    -1.696113  -2.926768  2.979676
H    -3.461209  -2.307771  5.358356
H    -3.315625  -4.001494  4.992461
H    -5.210274  -3.385206  3.813695
H    -3.960937  -3.513091  2.575442
H    -5.155868  -1.585147  2.137088
H    -5.118529  -1.045933  3.661622
N    -1.643770  2.028189  5.019262
C    -3.084138  2.141769  5.270914
H    -1.063285  2.818303  5.300263
H    -3.660353  1.883309  4.375744
H    -3.299623  3.183724  5.523776
H    -3.390720  1.513400  6.117004
Sr    1.772795  0.502949  2.709029
