34
Energy: -105398.591329 eV PBE+vdW (tier 2 basis)
C    -1.123310  0.203505  0.114121
C    -0.722168  0.232232  1.558942
O    0.456306  0.039377  1.914388
H    -0.355271  0.700592  -0.487615
H    -2.100821  0.659225  -0.079657
H    -1.162145  -0.847404  -0.209632
N    -1.713926  0.470425  2.468319
C    -1.663314  0.194566  3.911541
C    -0.666864  1.064504  4.679684
O    -1.028688  1.569125  5.825680
H    -2.642514  0.624660  2.091292
H    -2.653601  0.479762  4.291852
C    -1.416790  -1.292576  4.284348
C    -2.548943  -2.262972  3.909830
C    -2.644450  -2.717609  2.443272
C    -1.390608  -3.410940  1.892718
N    -0.997064  -4.540005  2.723257
H    -1.282778  -1.325426  5.377766
H    -0.458259  -1.618204  3.857608
H    -3.517798  -1.837939  4.219493
H    -2.400560  -3.160380  4.526070
H    -2.906188  -1.886931  1.772031
H    -3.492250  -3.417189  2.373823
H    -0.538584  -2.714648  1.858023
H    -1.592893  -3.695240  0.841231
H    -0.088377  -4.924872  2.473781
H    -1.682726  -5.294727  2.724651
N    0.537459  1.221667  4.208495
C    1.602769  1.973342  4.855787
H    0.694852  0.718259  3.262931
H    2.473687  1.977179  4.194710
H    1.892584  1.504403  5.806730
H    1.298283  3.014013  5.033155
Sr    -1.497663  2.430991  7.749763
