34
Energy: -105398.649235 eV PBE+vdW (tier 2 basis)
C    -2.367079  1.441738  0.937205
C    -1.595340  1.124009  2.183997
O    -0.395981  0.790783  2.137911
H    -1.781594  2.128722  0.315505
H    -3.358225  1.868379  1.126005
H    -2.488268  0.513062  0.361831
N    -2.267799  1.229044  3.369842
C    -1.858168  0.664321  4.665454
C    -0.587368  1.280819  5.243882
O    -0.558177  1.585147  6.513203
H    -3.240971  1.507317  3.309572
H    -2.662649  0.937091  5.362798
C    -1.718356  -0.881036  4.652125
C    -3.041356  -1.592090  4.346970
C    -2.932167  -3.123570  4.256194
C    -2.235124  -3.661668  3.000812
N    -0.792709  -3.400400  2.995929
H    -1.347738  -1.197380  5.641726
H    -0.951860  -1.183447  3.924350
H    -3.450098  -1.215813  3.395440
H    -3.782500  -1.334165  5.122010
H    -3.950467  -3.537811  4.273298
H    -2.433993  -3.523444  5.155501
H    -2.666333  -3.183170  2.108624
H    -2.465211  -4.739634  2.913367
H    -0.381493  -3.546572  2.074912
H    -0.297455  -4.002915  3.653773
N    0.456578  1.424569  4.479211
C    1.746127  1.945624  4.906441
H    0.277994  1.116255  3.451017
H    2.401877  2.003624  4.033389
H    2.213411  1.280334  5.646196
H    1.643615  2.955134  5.328687
Sr    -0.390532  2.156091  8.582471
