34
Energy: -105398.388601 eV PBE+vdW (tier 2 basis)
C    -0.601952  -0.027647  -0.126650
C    -0.376576  -0.137225  1.347672
O    0.845845  -0.186154  1.799385
H    -0.122997  0.885009  -0.507614
H    -1.665054  0.002500  -0.385080
H    -0.142715  -0.886645  -0.635253
N    -1.407057  -0.186294  2.146602
C    -1.487906  -0.287738  3.609359
C    -2.934336  -0.841225  3.785540
O    -3.753326  -0.537628  2.908976
H    -2.384465  -0.155401  1.779973
H    -0.723391  -0.987943  3.971203
C    -1.283610  1.122272  4.223922
C    -1.399353  1.257480  5.750239
C    -2.815473  1.522621  6.277452
C    -2.839988  1.824257  7.782320
N    -2.096441  3.036138  8.096810
H    -1.997528  1.802440  3.734817
H    -0.281450  1.450588  3.904446
H    -0.776505  2.109120  6.059879
H    -0.959323  0.380676  6.252763
H    -3.491956  0.679277  6.081818
H    -3.245488  2.380339  5.734292
H    -2.379903  0.993816  8.339425
H    -3.895096  1.873631  8.112018
H    -2.567146  3.888664  7.796453
H    -1.851440  3.120617  9.080706
N    -3.248090  -1.622584  4.832856
C    -2.426240  -2.106088  5.933168
H    -4.229750  -1.896419  4.837135
H    -2.671196  -3.156135  6.129331
H    -2.599619  -1.529016  6.851968
H    -1.362899  -2.050270  5.681693
Sr    3.004648  -0.154600  1.978055
