34
Energy: -105400.695356 eV PBE+vdW (tier 2 basis)
C    0.064405  -0.708412  0.815338
C    0.245221  0.413918  1.783561
O    1.394036  0.834847  2.101585
H    0.129308  -0.330256  -0.216802
H    -0.890362  -1.229569  0.938466
H    0.891669  -1.415716  0.947057
N    -0.839985  1.018282  2.335794
C    -2.040497  1.389503  1.602083
C    -1.623610  2.202647  0.338489
O    -0.457771  2.688461  0.230365
H    -0.608618  1.641163  3.108158
H    -2.550527  0.482594  1.243381
C    -3.032282  2.154040  2.534005
C    -2.420576  3.045332  3.631093
C    -1.449379  4.156838  3.160248
C    -0.137035  4.198532  3.954230
N    0.981939  4.777229  3.136598
H    -3.665594  1.403539  3.024645
H    -3.703244  2.750530  1.899976
H    -1.929052  2.409029  4.386152
H    -3.262076  3.489212  4.177903
H    -1.940499  5.137434  3.220247
H    -1.214317  4.025262  2.093800
H    0.179005  3.184801  4.253701
H    -0.268931  4.756598  4.892142
H    0.685045  5.698852  2.795838
H    1.759503  4.994678  3.770601
N    -2.541767  2.336968  -0.606107
C    -2.383703  3.073266  -1.860781
H    -3.444837  1.894064  -0.448160
H    -2.615976  2.412575  -2.704029
H    -1.353148  3.424044  -1.943678
H    -3.067805  3.930458  -1.879706
Sr    1.649126  3.041730  1.259647
