34
Energy: -105400.642667 eV PBE+vdW (tier 2 basis)
C    -0.160853  -2.366142  2.368029
C    0.291544  -1.040028  2.882790
O    1.450134  -0.881973  3.361941
H    0.538116  -2.753594  1.616148
H    -1.179460  -2.362689  1.969692
H    -0.126275  -3.067643  3.215920
N    -0.556513  0.023468  2.859337
C    -1.367689  0.397581  1.696598
C    -0.514754  0.245123  0.416874
O    0.753711  0.284515  0.489201
H    -0.234774  0.802419  3.429014
H    -2.244031  -0.261864  1.636514
C    -1.870872  1.866052  1.837051
C    -0.905704  2.980269  1.389846
C    0.383172  3.146788  2.220592
C    1.594820  3.641574  1.423336
N    2.860915  3.095614  2.018529
H    -2.187493  2.002156  2.882425
H    -2.789937  1.955356  1.243715
H    -1.465809  3.924721  1.397679
H    -0.636682  2.816941  0.334183
H    0.673267  2.178087  2.660648
H    0.200821  3.798193  3.087194
H    1.618024  4.739038  1.371507
H    1.540788  3.273979  0.387991
H    3.657443  3.516393  1.527204
H    2.951782  3.456644  2.975218
N    -1.114872  0.102385  -0.756630
C    -2.547074  0.064411  -1.065139
H    -0.478483  0.056982  -1.552615
H    -3.119508  -0.353402  -0.231707
H    -2.695471  -0.578700  -1.938147
H    -2.922854  1.068865  -1.298342
Sr    2.703468  0.445437  1.829975
