34
Energy: -105401.125211 eV PBE+vdW (tier 2 basis)
C    0.241058  1.245194  0.621822
C    -0.223729  0.341165  1.723815
O    0.343215  -0.768599  1.903642
H    1.295996  1.498714  0.793602
H    -0.336646  2.170581  0.529809
H    0.195573  0.696808  -0.328287
N    -1.253458  0.785445  2.476773
C    -1.986472  0.211342  3.634546
C    -1.052818  -0.039403  4.835256
O    -0.133134  -0.905708  4.789019
H    -1.601932  1.696654  2.194637
H    -2.664781  1.023938  3.914978
C    -2.908054  -0.998048  3.310237
C    -2.184370  -2.327854  3.117519
C    -2.955525  -3.560010  2.650567
C    -2.084417  -4.809982  2.822510
N    -0.685475  -4.617764  2.291900
H    -3.477425  -0.733959  2.407090
H    -3.643614  -1.081336  4.124558
H    -1.715295  -2.590069  4.084696
H    -1.411787  -2.140177  2.356970
H    -3.265275  -3.440893  1.601416
H    -3.876921  -3.703734  3.232224
H    -2.563985  -5.674725  2.343784
H    -1.986707  -5.046828  3.892157
H    -0.205147  -5.518282  2.393256
H    -0.752052  -4.499867  1.273531
N    -1.251975  0.659867  5.949949
C    -2.238753  1.710800  6.225362
H    -0.611835  0.420847  6.706904
H    -2.102016  2.572668  5.560817
H    -2.084426  2.052059  7.252687
H    -3.264408  1.330116  6.147358
Sr    0.753811  -2.555207  3.337047
