34
Energy: -105398.715817 eV PBE+vdW (tier 2 basis)
C    0.574914  2.026056  1.598529
C    0.472118  0.549481  1.414616
O    1.577250  -0.145918  1.320839
H    1.408165  2.260566  2.270537
H    -0.344946  2.467000  1.994116
H    0.788821  2.498576  0.628015
N    -0.664332  -0.083889  1.332856
C    -2.049815  0.379415  1.458457
C    -2.797539  -0.974768  1.682889
O    -2.147142  -2.028650  1.566952
H    -0.719427  -1.137927  1.279879
H    -2.146979  0.990781  2.368920
C    -2.549741  1.195944  0.244636
C    -2.490544  0.519533  -1.135739
C    -3.498241  -0.608395  -1.411436
C    -4.964411  -0.166011  -1.420362
N    -5.851277  -1.324593  -1.389692
H    -1.967574  2.128561  0.210014
H    -3.575548  1.521242  0.473298
H    -1.472241  0.135851  -1.309270
H    -2.629830  1.313976  -1.884512
H    -3.381676  -1.433764  -0.695817
H    -3.255224  -1.039665  -2.394960
H    -5.137327  0.497984  -2.290355
H    -5.196095  0.440626  -0.529991
H    -5.689323  -1.959780  -2.171532
H    -6.835655  -1.060318  -1.401186
N    -4.095191  -0.905848  1.980721
C    -4.965829  -2.078019  2.076150
H    -4.531238  0.008956  2.030553
H    -5.475436  -2.243179  1.115310
H    -5.704866  -1.914967  2.867110
H    -4.355488  -2.951277  2.321273
Sr    3.374387  -1.329972  1.269900
