34
Energy: -105399.413978 eV PBE+vdW (tier 2 basis)
C    -0.152666  -0.451226  -0.491197
C    -0.054312  -0.370380  0.996292
O    1.071610  -0.446011  1.582941
H    -1.127177  -0.814992  -0.832421
H    0.639276  -1.116112  -0.855341
H    0.027969  0.538233  -0.941115
N    -1.165434  -0.188046  1.743421
C    -2.218751  0.768964  1.404196
C    -1.583401  2.181832  1.403073
O    -0.421412  2.357348  1.911718
H    -1.021281  -0.308786  2.747050
H    -2.595685  0.545223  0.394844
C    -3.372786  0.651948  2.418479
C    -4.126276  -0.681374  2.314023
C    -5.303927  -0.782484  3.291695
C    -4.906182  -0.931623  4.764555
N    -6.098746  -0.945487  5.599936
H    -4.076195  1.480278  2.258610
H    -2.962505  0.804528  3.431069
H    -3.433229  -1.522818  2.477806
H    -4.500529  -0.790123  1.283655
H    -5.910405  -1.653627  3.000971
H    -5.964830  0.092264  3.189801
H    -4.300069  -0.067855  5.086045
H    -4.256441  -1.827860  4.868449
H    -5.869525  -0.930244  6.592325
H    -6.667972  -1.775697  5.433740
N    -2.236753  3.207912  0.886412
C    -3.548144  3.239933  0.231953
H    -1.761486  4.106126  0.981602
H    -3.827612  2.250540  -0.139497
H    -3.493445  3.928549  -0.617889
H    -4.316190  3.598129  0.929204
Sr    1.656404  1.578186  2.555467
