34
Energy: -105401.248902 eV PBE+vdW (tier 2 basis)
C    -0.221110  0.494303  0.234929
C    -0.996125  -0.092454  1.376748
O    -1.361873  -1.298363  1.331549
H    0.687357  -0.100368  0.072791
H    0.059218  1.542889  0.378083
H    -0.826041  0.408264  -0.678113
N    -1.264886  0.727517  2.410629
C    -2.058035  0.575461  3.653748
C    -1.525080  -0.505028  4.604051
O    -1.268165  -1.683365  4.223781
H    -0.900259  1.667501  2.287828
H    -1.877184  1.530619  4.160983
C    -3.599220  0.546574  3.446988
C    -4.277336  -0.653680  2.765126
C    -4.582915  -1.849175  3.681573
C    -5.129173  -3.078957  2.956118
N    -4.151576  -3.637566  1.954722
H    -3.823305  1.453315  2.867307
H    -4.055594  0.713061  4.435898
H    -3.689433  -0.951632  1.885302
H    -5.233414  -0.292288  2.357846
H    -5.332131  -1.546388  4.428486
H    -3.701434  -2.138729  4.280164
H    -6.081604  -2.841268  2.460451
H    -5.337815  -3.870716  3.686081
H    -4.430433  -4.603839  1.757537
H    -4.304873  -3.159760  1.059932
N    -1.372812  -0.179897  5.885646
C    -1.582471  1.112318  6.548826
H    -1.051954  -0.949730  6.471828
H    -1.355097  0.983549  7.610580
H    -2.623659  1.445464  6.463610
H    -0.906718  1.879629  6.150576
Sr    -1.610568  -3.248970  2.532702
