34
Energy: -105399.582653 eV PBE+vdW (tier 2 basis)
C    -1.896303  1.225764  0.328069
C    -0.821075  0.786477  1.266259
O    -0.185357  1.632165  1.973541
H    -2.844002  1.368427  0.871093
H    -2.065155  0.514792  -0.486850
H    -1.616451  2.202349  -0.084704
N    -0.524352  -0.524055  1.394608
C    -1.536546  -1.576997  1.491454
C    -2.361082  -1.312904  2.774728
O    -1.948712  -0.451407  3.630072
H    0.326702  -0.713176  1.926195
H    -2.200748  -1.517917  0.617235
C    -0.858467  -2.959468  1.539046
C    0.003441  -3.290816  0.313720
C    -0.715808  -3.292928  -1.045145
C    -2.047483  -4.057481  -1.107874
N    -1.995011  -5.318329  -0.359182
H    -1.626918  -3.738616  1.629317
H    -0.248044  -3.016799  2.456332
H    0.418419  -4.288666  0.510125
H    0.872284  -2.617145  0.252455
H    -0.018139  -3.725028  -1.777919
H    -0.889902  -2.263248  -1.399305
H    -2.325484  -4.170384  -2.170906
H    -2.855263  -3.447870  -0.663194
H    -1.267382  -5.927594  -0.738966
H    -2.867214  -5.835263  -0.477366
N    -3.476888  -1.980980  3.006355
C    -4.144368  -2.987005  2.174764
H    -3.911792  -1.780716  3.907353
H    -3.912714  -2.835134  1.116773
H    -5.225023  -2.884232  2.315647
H    -3.837557  -3.998716  2.468305
Sr    -0.689747  1.383962  4.222238
