34
Energy: -105400.201745 eV PBE+vdW (tier 2 basis)
C    0.654574  -0.126801  0.176882
C    0.452756  -0.144436  1.659026
O    1.375721  -0.563726  2.418152
H    -0.193230  0.285096  -0.379791
H    0.836568  -1.156971  -0.160751
H    1.557820  0.449692  -0.061327
N    -0.725056  0.287287  2.133143
C    -1.302093  0.270778  3.495280
C    -0.664577  1.292082  4.441389
O    0.598976  1.400032  4.537707
H    -1.373425  0.606328  1.418937
H    -2.334444  0.593256  3.317255
C    -1.435128  -1.115118  4.184446
C    -0.277725  -1.702519  5.010650
C    -0.729750  -2.870762  5.913075
C    -1.377091  -2.449954  7.238783
N    -2.606153  -1.653346  7.052376
H    -1.738811  -1.834538  3.410873
H    -2.277898  -1.021127  4.884997
H    0.131427  -0.921229  5.688110
H    0.516237  -2.070726  4.333180
H    0.137721  -3.502640  6.151851
H    -1.415131  -3.518476  5.343410
H    -0.664449  -1.828549  7.804515
H    -1.536725  -3.359611  7.842349
H    -3.375450  -2.271503  6.782315
H    -2.890361  -1.259337  7.950742
N    -1.452545  2.019176  5.219964
C    -2.915331  1.985608  5.335564
H    -0.953270  2.634962  5.861652
H    -3.394852  2.129824  4.360245
H    -3.219480  2.813172  5.982008
H    -3.244896  1.041173  5.789536
Sr    2.378007  -0.039710  4.380720
