34
Energy: -105400.103626 eV PBE+vdW (tier 2 basis)
C    -0.088410  0.721397  -0.684773
C    -0.414786  1.489429  0.553298
O    0.133012  2.614897  0.779533
H    -0.396154  1.319794  -1.554637
H    -0.581611  -0.254796  -0.733822
H    0.997807  0.584170  -0.761096
N    -1.303910  0.975865  1.410952
C    -1.896734  1.661387  2.574151
C    -0.915562  1.633400  3.767353
O    0.057737  2.455237  3.784287
H    -1.717025  0.078788  1.164282
H    -1.989022  2.726446  2.305035
C    -3.297904  1.102201  2.846603
C    -4.311165  1.422055  1.734651
C    -5.714545  0.877624  2.029670
C    -5.844344  -0.646379  1.922229
N    -7.185964  -1.057342  2.313190
H    -3.664454  1.536280  3.789129
H    -3.242211  0.009398  2.999538
H    -3.961268  1.023501  0.767358
H    -4.361259  2.515833  1.615503
H    -6.416313  1.342084  1.320767
H    -6.045363  1.192226  3.031513
H    -5.144076  -1.139900  2.617463
H    -5.539358  -0.957732  0.899098
H    -7.267634  -2.071697  2.364589
H    -7.885379  -0.737166  1.642608
N    -1.118575  0.764302  4.738818
C    -0.299159  0.608683  5.940689
H    -1.937362  0.164573  4.655536
H    0.170789  -0.382542  5.942299
H    -0.936232  0.702936  6.827829
H    0.470681  1.382644  5.956793
Sr    1.148581  3.879641  2.362341
