34
Energy: -105401.332382 eV PBE+vdW (tier 2 basis)
C    0.726939  0.609786  0.360287
C    0.264917  0.041432  1.665632
O    1.102810  -0.380157  2.511327
H    -0.084972  0.989551  -0.268381
H    1.265231  -0.174971  -0.189788
H    1.445731  1.417352  0.549193
N    -1.063294  -0.004596  1.887644
C    -1.788648  -0.639012  3.009797
C    -1.637670  0.189438  4.300028
O    -0.527429  0.297557  4.892751
H    -1.644916  0.366446  1.142084
H    -2.845753  -0.583210  2.716305
C    -1.436393  -2.141179  3.135694
C    -2.010702  -2.893367  4.350291
C    -1.113665  -2.906735  5.601541
C    0.233535  -3.623805  5.393408
N    1.376712  -2.843879  5.981121
H    -0.346170  -2.265593  3.087911
H    -1.807549  -2.601428  2.210018
H    -2.196911  -3.932289  4.043746
H    -3.001349  -2.496363  4.618635
H    -1.660638  -3.390999  6.421112
H    -0.934601  -1.876985  5.948082
H    0.455597  -3.750769  4.323984
H    0.199280  -4.635106  5.820613
H    1.204854  -2.747153  6.988680
H    2.215336  -3.434408  5.938267
N    -2.740113  0.768475  4.762594
C    -2.821330  1.591068  5.968703
H    -3.596508  0.651211  4.227664
H    -1.882695  1.510614  6.521085
H    -3.650805  1.240620  6.593139
H    -2.996511  2.639534  5.696701
Sr    1.653871  -0.516515  4.760478
