34
Energy: -105398.78453 eV PBE+vdW (tier 2 basis)
C    0.435145  -0.511894  0.630912
C    0.030686  -0.281550  2.047934
O    0.941372  -0.390220  2.979854
H    1.323718  0.090310  0.401881
H    -0.355637  -0.270601  -0.084231
H    0.713407  -1.567511  0.500355
N    -1.186768  0.022192  2.404591
C    -2.408224  0.240883  1.622498
C    -3.278635  1.032692  2.650313
O    -2.944493  0.989683  3.845873
H    -1.439851  0.228469  3.405023
H    -2.186426  0.865793  0.744648
C    -3.051665  -1.098731  1.190399
C    -4.232857  -0.956431  0.226998
C    -4.755353  -2.309976  -0.269054
C    -6.017215  -2.175316  -1.131377
N    -7.123097  -1.599785  -0.373931
H    -3.358124  -1.645704  2.095409
H    -2.266272  -1.705198  0.711367
H    -3.933638  -0.344286  -0.641697
H    -5.073207  -0.438874  0.711685
H    -4.977325  -2.959010  0.594529
H    -3.982659  -2.830231  -0.855501
H    -6.260149  -3.167986  -1.554483
H    -5.814329  -1.514731  -1.987183
H    -7.871648  -1.246119  -0.965977
H    -7.522095  -2.247765  0.304337
N    -4.331894  1.700696  2.171950
C    -5.276598  2.435447  3.010632
H    -4.514733  1.662702  1.174436
H    -5.362335  3.469918  2.658563
H    -4.906059  2.429099  4.038685
H    -6.264854  1.960132  2.978151
Sr    2.420036  -0.502287  4.547158
