34
Energy: -105401.03518 eV PBE+vdW (tier 2 basis)
C    -0.356861  1.643387  0.235695
C    -1.409889  0.757119  0.812031
O    -2.170922  1.157463  1.738749
H    -0.831572  2.556924  -0.147516
H    0.217221  1.171063  -0.568032
H    0.329702  1.953596  1.035041
N    -1.547231  -0.493224  0.319485
C    -2.624243  -1.367139  0.780438
C    -2.257525  -2.054471  2.117812
O    -2.777708  -1.574571  3.172014
H    -0.956055  -0.777455  -0.456950
H    -3.409399  -0.668653  1.081872
C    -3.273672  -2.245084  -0.296713
C    -4.653199  -2.759027  0.165867
C    -5.846302  -1.792300  -0.001815
C    -5.837461  -0.446146  0.733170
N    -5.757134  -0.549282  2.240703
H    -2.632123  -3.089582  -0.575373
H    -3.388772  -1.630904  -1.203241
H    -4.583972  -3.126444  1.205360
H    -4.895603  -3.655128  -0.420107
H    -6.761218  -2.335041  0.281675
H    -5.963470  -1.563581  -1.072291
H    -6.756165  0.096547  0.478635
H    -5.014477  0.192909  0.375601
H    -5.660171  -1.540749  2.486090
H    -6.674654  -0.296371  2.617933
N    -1.425344  -3.083860  2.198128
C    -0.683800  -3.784380  1.148778
H    -1.291083  -3.427387  3.149907
H    -1.234964  -4.666240  0.797837
H    0.272680  -4.114386  1.567222
H    -0.470417  -3.124174  0.304505
Sr    -3.693373  0.583410  3.438040
