34
Energy: -105398.647136 eV PBE+vdW (tier 2 basis)
C    0.174585  0.302868  0.481535
C    -0.088402  0.204445  1.945694
O    0.935976  0.151213  2.760728
H    0.736753  -0.582381  0.153071
H    0.803469  1.181012  0.282080
H    -0.740057  0.376738  -0.112361
N    -1.286177  0.172328  2.457794
C    -2.619352  0.195299  1.837959
C    -3.493511  0.638828  3.048649
O    -3.068614  0.338517  4.179171
H    -1.449399  0.104764  3.492484
H    -2.644341  0.918060  1.013541
C    -2.984626  -1.237517  1.366161
C    -4.335817  -1.406395  0.663787
C    -4.422261  -0.786253  -0.732846
C    -5.809418  -0.946432  -1.378225
N    -6.863686  -0.290252  -0.594978
H    -2.944654  -1.886989  2.253482
H    -2.180563  -1.575093  0.692214
H    -5.142268  -1.021090  1.304718
H    -4.518470  -2.489251  0.584151
H    -3.676885  -1.257619  -1.393859
H    -4.184110  0.289321  -0.705330
H    -6.020289  -2.020459  -1.517055
H    -5.781275  -0.501830  -2.381120
H    -7.410388  -0.946277  -0.041046
H    -7.511539  0.232098  -1.180101
N    -4.643300  1.293285  2.849494
C    -5.198248  1.862608  1.621359
H    -5.154651  1.469210  3.712495
H    -5.851131  1.159397  1.081739
H    -4.397482  2.190568  0.948832
H    -5.780311  2.749169  1.893916
Sr    2.573114  0.075256  4.153783
