34
Energy: -105399.784613 eV PBE+vdW (tier 2 basis)
C    -1.448209  -0.116828  -0.677836
C    -0.817891  -0.105400  0.660876
O    0.381476  -0.502799  0.855123
H    -1.786240  0.880358  -0.994210
H    -2.379901  -0.744461  -0.634655
H    -0.744659  -0.504431  -1.419146
N    -1.524951  0.291618  1.750850
C    -2.376138  1.473104  1.804956
C    -1.463171  2.655885  2.238984
O    -0.196955  2.557396  2.110254
H    -1.102282  0.022945  2.639779
H    -2.679330  1.701028  0.772082
C    -3.648986  1.233645  2.635857
C    -4.468868  0.059295  2.078309
C    -5.093571  0.319637  0.700603
C    -5.450146  -0.957675  -0.068159
N    -4.243018  -1.747935  -0.407792
H    -4.273118  2.142024  2.623377
H    -3.375557  1.050849  3.686805
H    -5.258301  -0.184225  2.802513
H    -3.812678  -0.823255  2.037122
H    -4.411825  0.902765  0.058340
H    -5.998823  0.934142  0.816186
H    -5.947822  -0.672261  -1.003276
H    -6.181447  -1.549442  0.506224
H    -4.096264  -2.491684  0.275668
H    -4.386775  -2.228124  -1.296614
N    -2.039619  3.750198  2.697717
C    -1.361102  4.986763  3.087898
H    -3.051958  3.726621  2.801188
H    -1.879321  5.838477  2.633572
H    -0.326549  4.959790  2.739852
H    -1.381027  5.097079  4.179408
Sr    1.663730  1.257307  1.624817
