34
Energy: -105400.268424 eV PBE+vdW (tier 2 basis)
C    -0.873180  0.491194  0.268907
C    -0.444217  0.326987  1.691952
O    0.766321  0.060703  1.963131
H    -1.926305  0.767865  0.155678
H    -0.695776  -0.457161  -0.258327
H    -0.245379  1.248432  -0.218138
N    -1.373372  0.463452  2.648316
C    -1.283209  0.194194  4.101778
C    -0.453266  1.260642  4.833564
O    0.809320  1.328463  4.655908
H    -2.307902  0.679603  2.312670
H    -2.319377  0.280283  4.448054
C    -0.811971  -1.228195  4.466192
C    -1.226989  -1.611593  5.895598
C    -2.698303  -2.031307  6.025057
C    -3.209866  -1.946661  7.468284
N    -3.402931  -0.537451  7.874524
H    0.280764  -1.315606  4.350734
H    -1.249502  -1.927584  3.738967
H    -1.023553  -0.773982  6.583762
H    -0.589206  -2.439376  6.235611
H    -2.820140  -3.056628  5.645829
H    -3.350588  -1.397956  5.398353
H    -2.477673  -2.411988  8.143529
H    -4.133891  -2.536761  7.562550
H    -4.383979  -0.280259  7.754419
H    -3.218412  -0.428331  8.871782
N    -1.044172  2.090438  5.673921
C    -2.455632  2.150724  6.077845
H    -0.405591  2.734331  6.141937
H    -3.108061  2.256135  5.203038
H    -2.581444  3.043154  6.697197
H    -2.730761  1.256953  6.670712
Sr    2.481835  0.476355  3.377923
