34
Energy: -105400.141524 eV PBE+vdW (tier 2 basis)
C    0.839078  -0.114202  1.559545
C    -0.290579  0.800930  1.940106
O    0.005164  1.746831  2.818642
H    0.519210  -0.847928  0.814736
H    1.206891  -0.647677  2.446981
H    1.685263  0.471215  1.174170
N    -1.457593  0.612512  1.395461
C    -2.539996  1.534863  1.732809
C    -3.069160  1.218042  3.139334
O    -2.692520  1.904842  4.144139
H    -1.762919  0.875077  -3.036619
H    -2.172656  2.577406  1.811534
C    -3.635170  1.473900  0.646518
C    -3.102602  1.518484  -0.793032
C    -2.343071  2.796272  -1.174404
C    -2.098498  2.938285  -2.671071
N    -1.283676  1.768424  -3.217985
H    -4.359188  2.285532  0.813951
H    -4.201640  0.534550  0.729503
H    -3.964906  1.391952  -1.467520
H    -2.450887  0.636826  -0.910996
H    -1.384989  2.859980  -0.633617
H    -2.919479  3.687903  -0.883115
H    -1.534752  3.844224  -2.922519
H    -3.035111  2.938088  -3.243088
H    -1.137165  1.849488  -4.233342
H    -0.359027  1.715595  -2.769067
N    -3.876137  0.177944  3.299430
C    -4.383568  -0.294782  4.584462
H    -4.095646  -0.370926  2.473764
H    -5.335670  -0.808485  4.421589
H    -4.542316  0.558064  5.250498
H    -3.677315  -0.994313  5.052030
Sr    -0.612371  2.741082  4.655177
