34
Energy: -105400.203779 eV PBE+vdW (tier 2 basis)
C    -1.557785  0.738616  0.287057
C    -1.834523  0.005499  1.561916
O    -1.272056  0.363585  2.633376
H    -1.831142  1.794472  0.418225
H    -2.091350  0.336410  -0.580070
H    -0.477711  0.711796  0.089132
N    -2.686801  -1.032287  1.510049
C    -3.186363  -1.961516  2.553860
C    -3.874498  -1.235476  3.725162
O    -3.216751  -0.602363  4.600330
H    -3.064464  -1.219186  0.585402
H    -3.981242  -2.497322  2.018698
C    -2.226051  -3.102565  3.005571
C    -1.114902  -2.922729  4.054608
C    0.242801  -2.372643  3.584552
C    1.298524  -2.275786  4.704100
N    1.403757  -3.527045  5.433118
H    -1.788866  -3.520938  2.086232
H    -2.900139  -3.884384  3.385769
H    -0.907601  -3.916332  4.474184
H    -1.513426  -2.404995  4.953517
H    0.169661  -1.407069  3.049560
H    0.633058  -3.050354  2.808959
H    1.010606  -1.507696  5.469006
H    2.238941  -1.889658  4.267456
H    2.031299  -3.445509  6.232881
H    1.789593  -4.262321  4.837556
N    -5.194781  -1.345430  3.803741
C    -6.010764  -0.766562  4.872913
H    -5.681132  -1.848926  3.067378
H    -5.455548  -0.795937  5.814897
H    -6.928139  -1.354261  4.969664
H    -6.271846  0.273381  4.637547
Sr    -1.024361  0.081532  4.886658
