34
Energy: -105400.083627 eV PBE+vdW (tier 2 basis)
C    -0.382342  0.519775  -0.310670
C    -0.536932  0.560800  1.172632
O    0.327138  1.144072  1.900628
H    -0.369105  1.550796  -0.691882
H    -1.179101  -0.036369  -0.814924
H    0.588243  0.073679  -0.565079
N    -1.608737  -0.018732  1.731324
C    -1.958669  0.086647  3.156667
C    -1.028389  -0.809954  4.007638
O    -0.025753  -0.247511  4.564845
H    -2.297224  -0.438284  1.110363
H    -1.683604  1.104631  3.472243
C    -3.469902  -0.045470  3.383087
C    -3.848338  0.100404  4.859153
C    -5.359777  0.178051  5.094376
C    -5.693873  0.581598  6.536579
N    -5.128220  1.902478  6.847073
H    -3.856354  -0.985802  2.963833
H    -3.941059  0.764236  2.803958
H    -3.406756  1.022222  5.273316
H    -3.432542  -0.735169  5.448427
H    -5.842852  -0.783253  4.861486
H    -5.798308  0.919944  4.406026
H    -5.250398  -0.147519  7.231739
H    -6.786644  0.519418  6.676380
H    -5.726831  2.640641  6.473314
H    -5.103534  2.049463  7.855675
N    -1.202349  -2.112555  4.158836
C    -2.237356  -3.000806  3.622177
H    -0.511266  -2.547829  4.770667
H    -1.853264  -4.024144  3.665506
H    -2.457018  -2.765311  2.576943
H    -3.154713  -2.944738  4.221142
Sr    1.421431  1.389337  3.883868
