34
Energy: -105399.407465 eV PBE+vdW (tier 2 basis)
C    1.228147  2.440816  0.553163
C    1.045491  2.548280  2.030895
O    1.769040  3.331077  2.724476
H    0.910811  1.471097  0.156171
H    2.286330  2.607830  0.320788
H    0.657807  3.231191  0.039330
N    0.086720  1.829009  2.654922
C    -1.270584  1.664686  2.140089
C    -1.916174  3.073990  2.065034
O    -1.336122  4.071249  2.618721
H    0.140599  1.847902  3.674649
H    -1.223045  1.244977  1.124689
C    -2.067121  0.702386  3.050306
C    -2.300082  1.206810  4.480703
C    -3.109793  0.234237  5.351004
C    -4.576364  0.068469  4.930641
N    -5.292896  -0.691524  5.944996
H    -1.520317  -0.252200  3.061829
H    -3.029793  0.489662  2.570836
H    -2.820384  2.181160  4.455627
H    -1.334644  1.380746  4.991481
H    -3.102392  0.591205  6.390053
H    -2.611357  -0.748892  5.362936
H    -4.634788  -0.368973  3.909802
H    -5.043946  1.065457  4.871616
H    -6.300829  -0.656815  5.801585
H    -5.023122  -1.675266  5.945517
N    -3.064960  3.249820  1.435844
C    -3.887981  2.274084  0.714801
H    -3.432697  4.200535  1.482949
H    -3.275296  1.460327  0.316464
H    -4.369698  2.786178  -0.124276
H    -4.664518  1.862127  1.372047
Sr    0.506763  5.080687  3.573452
