34
Energy: -105400.617698 eV PBE+vdW (tier 2 basis)
C    -1.589407  -1.709264  0.381224
C    -1.525865  -1.157302  1.770924
O    -1.236973  0.082706  1.926402
H    -1.886421  -2.761173  0.352973
H    -0.609756  -1.588306  -0.101254
H    -2.307570  -1.122747  -0.207057
N    -1.774810  -1.977785  2.781330
C    -1.634560  -1.687695  4.217590
C    -2.553762  -0.556604  4.704881
O    -2.214253  0.665154  4.632260
H    -1.738481  -3.062853  2.599129
H    -1.997343  -2.604543  4.707394
C    -0.163196  -1.489547  4.646344
C    0.613015  -2.790327  4.923046
C    0.807516  -3.831744  3.798180
C    -0.270274  -4.923728  3.642621
N    -1.303907  -4.619185  2.608167
H    -0.142468  -0.889862  5.568765
H    0.360494  -0.905757  3.870831
H    0.158902  -3.287825  5.795640
H    1.609757  -2.476907  5.264023
H    1.745642  -4.355023  4.025001
H    0.988905  -3.338917  2.828655
H    -0.793190  -5.073249  4.597609
H    0.219447  -5.878910  3.407119
H    -2.080908  -5.278445  2.699813
H    -0.906651  -4.809400  1.684001
N    -3.707361  -0.914100  5.250743
C    -4.701644  0.008319  5.799185
H    -3.926161  -1.906244  5.279581
H    -5.449643  0.266454  5.038089
H    -4.202106  0.917199  6.145136
H    -5.203752  -0.475255  6.642749
Sr    -1.051217  1.942863  3.139910
