34
Energy: -105398.544924 eV PBE+vdW (tier 2 basis)
C    -0.044078  -1.300725  0.105776
C    -0.302887  -0.194096  1.076042
O    0.569404  0.770964  1.183715
H    0.049651  -0.889230  -0.908735
H    -0.841685  -2.050131  0.107070
H    0.903975  -1.796680  0.355793
N    -1.387952  -0.213987  1.799115
C    -1.886279  0.728870  2.806345
C    -2.892673  -0.164906  3.587816
O    -3.430638  -1.096095  2.977785
H    -2.083914  -0.986454  1.714055
H    -1.058135  1.043279  3.458858
C    -2.537071  1.945324  2.100874
C    -3.365809  2.896786  2.983461
C    -4.843494  2.521257  3.203703
C    -5.715949  2.476251  1.943996
N    -5.431146  1.305043  1.108161
H    -3.184257  1.564684  1.295221
H    -1.716773  2.508481  1.624365
H    -3.341059  3.886919  2.503379
H    -2.876929  3.044748  3.961939
H    -5.275255  3.270008  3.883363
H    -4.937355  1.560298  3.730955
H    -5.544560  3.376685  1.334276
H    -6.775231  2.516441  2.259418
H    -5.650941  0.430967  1.588354
H    -5.960177  1.324208  0.236819
N    -3.088421  0.126094  4.882059
C    -4.041839  -0.589583  5.727070
H    -2.612213  0.930142  5.276141
H    -3.591017  -0.785070  6.705859
H    -4.290724  -1.538009  5.243218
H    -4.961215  -0.004480  5.865097
Sr    2.173394  2.194619  0.957942
