34
Energy: -105400.121192 eV PBE+vdW (tier 2 basis)
C    -0.231833  0.636048  -0.566793
C    -0.569924  1.505699  0.598912
O    -0.071241  2.670945  0.702730
H    -0.579521  1.134391  -1.483344
H    -0.682812  -0.360049  -0.511894
H    0.857924  0.537175  -0.652048
N    -1.417224  1.038532  1.523265
C    -2.013435  1.806735  2.631349
C    -1.003765  1.936792  3.793530
O    -0.075121  2.804583  3.709111
H    -1.791442  0.103817  1.374586
H    -2.160658  2.835483  2.264384
C    -3.382733  1.220044  2.998348
C    -4.435919  1.359899  1.889889
C    -5.800618  0.818064  2.324532
C    -6.882342  0.973409  1.248591
N    -8.166469  0.514825  1.764118
H    -3.744691  1.740556  3.897896
H    -3.278652  0.153009  3.269723
H    -4.107073  0.839471  0.974784
H    -4.529608  2.425193  1.619629
H    -6.144747  1.335907  3.232861
H    -5.707260  -0.247944  2.592660
H    -6.550215  0.462853  0.320559
H    -6.984697  2.039902  0.995864
H    -8.940597  0.854553  1.196257
H    -8.230037  -0.502844  1.778467
N    -1.136841  1.150185  4.844448
C    -0.279431  1.145450  6.029825
H    -1.923695  0.503940  4.839302
H    -0.900468  1.262283  6.925422
H    0.431854  1.971220  5.965279
H    0.261937  0.193315  6.092337
Sr    0.916352  4.132556  2.128417
