34
Energy: -105399.560551 eV PBE+vdW (tier 2 basis)
C    -0.478973  -0.262752  -0.352480
C    -0.248316  -0.121375  1.115129
O    0.924273  0.138342  1.548358
H    0.318032  0.278976  -0.873021
H    -1.461694  0.106781  -0.665039
H    -0.411016  -1.320106  -0.652470
N    -1.241026  -0.233467  2.031702
C    -2.251817  -1.298355  2.124163
C    -1.529702  -2.555845  2.677119
O    -0.255036  -2.604788  2.757603
H    -0.944247  0.108481  2.946446
H    -2.962163  -0.959110  2.894094
C    -3.053164  -1.569208  0.834716
C    -4.478465  -2.097711  1.055540
C    -5.334155  -2.025800  -0.222118
C    -5.633841  -0.610815  -0.733731
N    -4.450800  0.038882  -1.343260
H    -2.502530  -2.251051  0.169871
H    -3.162715  -0.619158  0.288876
H    -4.970424  -1.506236  1.846471
H    -4.476077  -3.148128  1.397497
H    -6.292676  -2.522010  -0.015092
H    -4.861223  -2.617226  -1.023761
H    -5.964997  0.019934  0.105377
H    -6.486426  -0.669847  -1.430657
H    -4.662995  1.019930  -1.532437
H    -4.268248  -0.379198  -2.258394
N    -2.276055  -3.574880  3.060210
C    -1.758591  -4.842908  3.581058
H    -3.284622  -3.481110  2.955924
H    -2.607226  -5.493242  3.807375
H    -1.185401  -4.673199  4.500140
H    -1.119701  -5.332629  2.836759
Sr    1.830832  -1.625197  2.723714
