34
Energy: -105399.49452 eV PBE+vdW (tier 2 basis)
C    0.314069  2.129834  1.307670
C    -0.334981  1.267118  2.339284
O    0.075083  1.272371  3.544100
H    -0.100823  3.149695  1.342499
H    0.195754  1.741744  0.290894
H    1.380439  2.211146  1.549513
N    -1.381590  0.477659  2.014092
C    -2.483480  0.910851  1.162777
C    -3.298318  1.977153  1.963067
O    -2.932124  2.328362  3.133440
H    -1.647370  -0.194899  2.734994
H    -2.065134  1.417130  0.279983
C    -3.336331  -0.287128  0.702968
C    -3.999613  -1.084156  1.831462
C    -4.961335  -2.149847  1.294899
C    -5.609613  -2.994571  2.397275
N    -6.602598  -3.889611  1.819429
H    -2.686968  -0.936865  0.098790
H    -4.106944  0.077112  0.005923
H    -4.555865  -0.403021  2.501467
H    -3.234553  -1.584647  2.452973
H    -4.420767  -2.811088  0.598089
H    -5.762288  -1.672891  0.709482
H    -6.133464  -2.327714  3.100907
H    -4.812527  -3.503042  2.980605
H    -6.171129  -4.662932  1.313402
H    -7.204512  -4.296394  2.533222
N    -4.356182  2.496539  1.370045
C    -5.259593  3.504323  1.926723
H    -4.582689  2.147584  0.440503
H    -5.319276  4.358122  1.241744
H    -4.880853  3.836256  2.895110
H    -6.261146  3.074452  2.050402
Sr    -1.488879  2.248600  4.940397
