34
Energy: -105400.791865 eV PBE+vdW (tier 2 basis)
C    -0.729485  -0.807541  -0.291760
C    -0.556779  -0.390142  1.132875
O    0.604121  -0.170845  1.602219
H    -0.355288  0.000100  -0.937268
H    -1.768945  -1.022368  -0.560037
H    -0.111563  -1.691009  -0.496478
N    -1.649107  -0.240082  1.890841
C    -1.717615  0.337365  3.248397
C    -1.322400  -0.727753  4.294063
O    -0.073350  -1.010609  4.407926
H    -2.543861  -0.436952  1.447943
H    -0.937194  1.113455  3.305333
C    -3.091363  0.979792  3.443159
C    -3.220363  1.807105  4.739555
C    -4.645786  1.831166  5.315674
C    -4.998319  0.645372  6.213802
N    -4.883091  -0.671472  5.521659
H    -3.856193  0.191032  3.403304
H    -3.283197  1.630478  2.577719
H    -2.891000  2.833667  4.530126
H    -2.534655  1.427248  5.514413
H    -5.380449  1.923236  4.498722
H    -4.772375  2.737839  5.923009
H    -6.009476  0.790348  6.622925
H    -4.309114  0.618162  7.071092
H    -5.174181  -1.405307  6.173354
H    -5.572982  -0.715932  4.765792
N    -2.234156  -1.321412  5.023176
C    -1.881383  -2.346233  6.004878
H    -3.278838  -1.017629  5.050119
H    -2.803033  -2.699101  6.475746
H    -1.216454  -1.939265  6.777630
H    -1.381548  -3.194105  5.521512
Sr    1.914421  -0.660608  3.393579
