34
Energy: -105399.428655 eV PBE+vdW (tier 2 basis)
C    0.207735  0.679643  0.011593
C    -0.024839  -0.096581  1.265699
O    0.920268  -0.745683  1.816161
H    0.607530  1.678821  0.247630
H    -0.700612  0.802976  -0.586889
H    0.972108  0.161010  -0.578796
N    -1.244380  -0.103262  1.848844
C    -2.069290  1.093596  2.004836
C    -1.309186  2.049238  2.971415
O    -0.242613  1.666289  3.559864
H    -1.346291  -0.788134  2.599324
H    -2.151610  1.597083  1.029453
C    -3.483185  0.693034  2.480072
C    -4.544234  1.804178  2.440539
C    -5.980177  1.260684  2.502663
C    -6.351900  0.583170  3.826879
N    -7.723566  0.102887  3.764001
H    -3.415432  0.258785  3.490433
H    -3.800710  -0.117982  1.807100
H    -4.435638  2.378969  1.504650
H    -4.403954  2.505676  3.280400
H    -6.151958  0.552548  1.678065
H    -6.668478  2.101650  2.329008
H    -6.144859  1.288944  4.661400
H    -5.709947  -0.296298  3.996971
H    -7.957449  -0.497234  4.552649
H    -8.398406  0.867294  3.748699
N    -1.791786  3.262748  3.152914
C    -1.209719  4.270872  4.043669
H    -2.657885  3.498594  2.672209
H    -0.192835  4.523774  3.721260
H    -1.184920  3.902221  5.075874
H    -1.830745  5.168941  3.998394
Sr    1.544004  0.218699  3.827923
