34
Energy: -105400.192423 eV PBE+vdW (tier 2 basis)
C    0.115517  1.410650  0.594696
C    -0.275539  0.133363  1.232903
O    0.489435  -0.885065  1.192509
H    -0.326016  2.288462  1.081476
H    -0.293946  1.371346  -0.451082
H    1.203369  1.509820  0.548242
N    -1.497403  0.068942  1.795600
C    -2.322618  -1.113807  2.121367
C    -1.845384  -1.828866  3.391338
O    -0.728439  -2.439577  3.417103
H    -2.010056  0.945723  1.779976
H    -3.313408  -0.693512  2.330465
C    -2.493671  -2.123628  0.960123
C    -3.474645  -1.678339  -0.141858
C    -3.113563  -0.425307  -0.953317
C    -1.869642  -0.564661  -1.836504
N    -1.340744  0.756145  -2.208422
H    -2.873247  -3.061196  1.394501
H    -1.508906  -2.361106  0.530158
H    -4.466184  -1.534288  0.314751
H    -3.593668  -2.530923  -0.827661
H    -2.988260  0.448462  -0.294794
H    -3.976668  -0.179401  -1.589356
H    -2.119872  -1.199639  -2.705146
H    -1.066336  -1.094377  -1.296279
H    -0.625105  0.665226  -2.931650
H    -2.076467  1.334537  -2.620113
N    -2.629702  -1.859515  4.458464
C    -3.947611  -1.242072  4.658697
H    -2.258801  -2.406647  5.235674
H    -3.911890  -0.162164  4.475603
H    -4.232855  -1.397598  5.702716
H    -4.707724  -1.711181  4.022177
Sr    1.218902  -2.715956  2.266920
