34
Energy: -105398.585227 eV PBE+vdW (tier 2 basis)
C    0.036401  -0.686190  0.029082
C    0.003781  -0.228325  1.456855
O    1.025169  0.199992  2.026415
H    0.584530  0.046159  -0.574138
H    -0.955868  -0.853964  -0.404031
H    0.603070  -1.627609  -0.014704
N    -1.198913  -0.302165  2.102485
C    -1.417245  -0.244676  3.554947
C    -1.080006  1.107108  4.186507
O    -1.897807  1.606512  5.070738
H    -1.978353  -0.664363  1.564489
H    -2.500772  -0.366368  3.686320
C    -0.711171  -1.365171  4.366134
C    -1.229837  -2.788438  4.102160
C    -0.626159  -3.520386  2.896898
C    -1.137056  -4.964739  2.781691
N    -2.562742  -5.006837  2.466561
H    -0.864876  -1.123974  5.430660
H    0.373345  -1.302635  4.194250
H    -2.328588  -2.788451  4.016475
H    -1.004588  -3.382610  5.001218
H    0.471254  -3.541110  2.983480
H    -0.854033  -2.997998  1.954847
H    -0.982491  -5.483917  3.738259
H    -0.523970  -5.499097  2.033625
H    -3.019324  -5.856936  2.789343
H    -2.754811  -4.896256  1.472209
N    0.043540  1.691385  3.881876
C    0.517281  2.947828  4.443392
H    0.625187  1.141521  3.149352
H    1.459087  3.211466  3.954443
H    0.703581  2.850624  5.522355
H    -0.204417  3.756591  4.263154
Sr    -3.147578  2.534094  6.566570
