34
Energy: -105400.18209 eV PBE+vdW (tier 2 basis)
C    1.543105  -1.437697  2.194179
C    0.637212  -0.452424  2.859660
O    0.991717  0.104453  3.942882
H    1.158786  -1.814605  1.240981
H    1.696013  -2.285778  2.876786
H    2.526277  -0.977133  2.032183
N    -0.541829  -0.188521  2.278966
C    -1.685448  0.605133  2.787463
C    -1.379756  2.111262  2.788678
O    -0.615821  2.611375  3.675494
H    -0.724759  -0.702112  1.421483
H    -2.477727  0.424244  2.051911
C    -2.235385  0.128408  4.140588
C    -3.548431  0.825577  4.525663
C    -4.248364  0.194492  5.741434
C    -4.937696  -1.148231  5.469087
N    -3.975694  -2.219117  5.138791
H    -1.491788  0.255597  4.949343
H    -2.422711  -0.957239  4.086490
H    -4.238905  0.782597  3.665669
H    -3.373097  1.896745  4.720269
H    -5.011418  0.897807  6.104332
H    -3.530816  0.079332  6.572971
H    -5.615172  -1.031406  4.609998
H    -5.576840  -1.393958  6.334035
H    -3.565768  -2.593693  5.996755
H    -4.466912  -3.004782  4.710749
N    -1.950837  2.902754  1.894053
C    -2.869339  2.550894  0.803747
H    -1.727284  3.892232  2.004188
H    -2.433726  1.789808  0.146613
H    -3.040911  3.451550  0.208035
H    -3.835061  2.207939  1.194791
Sr    0.836188  1.911480  5.290256
