34
Energy: -105400.065891 eV PBE+vdW (tier 2 basis)
C    0.809272  2.980008  2.194258
C    -0.177406  2.127525  2.921437
O    -1.254271  2.628842  3.376213
H    1.086708  3.840059  2.817156
H    0.322556  3.382176  1.293878
H    1.714662  2.440932  1.897188
N    0.088379  0.824781  3.072292
C    -0.834246  -0.202919  3.588622
C    -0.880045  -0.150817  5.132094
O    -1.585096  0.746588  5.698024
H    0.960810  0.483559  2.674253
H    -1.847419  0.084131  3.263388
C    -0.495722  -1.567376  2.974909
C    -0.744914  -1.632351  1.458605
C    -0.390427  -2.992661  0.837379
C    -1.266600  -4.166628  1.325537
N    -1.061247  -5.447778  0.675845
H    -1.113934  -2.324340  3.478063
H    0.559205  -1.827453  3.182408
H    -0.169962  -0.843671  0.947157
H    -1.808236  -1.409312  1.266823
H    0.672682  -3.223143  1.019120
H    -0.497810  -2.904768  -0.253845
H    -2.327988  -3.891986  1.202066
H    -1.119377  -4.325363  2.407274
H    -0.111783  -5.798901  0.793236
H    -1.261146  -5.412460  -0.322977
N    -0.193634  -1.042882  5.820469
C    -0.133147  -1.144605  7.278654
H    0.321042  -1.740026  5.285831
H    -0.407306  -2.161712  7.581678
H    -0.829425  -0.429202  7.720622
H    0.886338  -0.931763  7.623392
Sr    -2.633513  2.713520  5.172950
