34
Energy: -105400.522551 eV PBE+vdW (tier 2 basis)
C    -1.333846  0.322264  0.293669
C    -0.889136  0.080135  1.700776
O    0.350710  0.216942  1.994957
H    -0.757809  -0.322432  -0.383628
H    -1.106362  1.360420  0.015244
H    -2.403313  0.142610  0.151182
N    -1.807423  -0.270536  2.591499
C    -1.558727  -0.708167  3.975326
C    -0.821722  0.352358  4.803875
O    0.444681  0.332955  4.931022
H    -2.767437  -0.651527  2.234586
H    -2.564478  -0.795207  4.411755
C    -0.921494  -2.107642  4.071972
C    -1.852363  -3.257359  3.639399
C    -2.173203  -3.383427  2.128336
C    -3.608383  -3.060062  1.694618
N    -4.053441  -1.662865  1.997506
H    -0.625556  -2.270768  5.118783
H    0.003487  -2.149133  3.470834
H    -2.783361  -3.195628  4.226751
H    -1.372713  -4.185584  3.975590
H    -2.000458  -4.424140  1.821738
H    -1.460970  -2.791828  1.532550
H    -4.301109  -3.781183  2.152226
H    -3.681601  -3.206335  0.609711
H    -4.680260  -1.339404  1.258524
H    -4.629848  -1.661981  2.841234
N    -1.528581  1.288242  5.423086
C    -2.981472  1.487549  5.412437
H    -0.978299  1.929238  5.994396
H    -3.372878  1.463580  4.389809
H    -3.188913  2.475494  5.833114
H    -3.488956  0.737113  6.032487
Sr    2.110240  0.181924  3.378319
