34
Energy: -105400.411832 eV PBE+vdW (tier 2 basis)
C    -0.248553  -1.593405  0.439038
C    -0.496055  -0.527830  1.447193
O    0.297804  -0.301108  2.396032
H    0.512472  -1.180396  -0.246481
H    -1.122735  -1.842687  -0.167394
H    0.189054  -2.486583  0.895858
N    -1.565948  0.334861  1.346561
C    -2.997109  0.199121  1.033735
C    -3.678672  1.142536  2.061417
O    -3.147030  1.297167  3.201311
H    -1.324304  1.268077  1.676269
H    -3.197905  0.554473  0.010927
C    -3.598311  -1.222675  1.184865
C    -3.610723  -1.853006  2.595871
C    -2.518486  -2.891552  2.909430
C    -2.411260  -3.220754  4.400713
N    -1.524099  -2.240192  5.130557
H    -3.118561  -1.897989  0.464310
H    -4.632773  -1.128590  0.827050
H    -4.579168  -2.354268  2.729812
H    -3.631561  -1.059430  3.363922
H    -1.524390  -2.583912  2.548798
H    -2.740018  -3.814763  2.356226
H    -2.025585  -4.238345  4.543737
H    -3.402428  -3.187403  4.871855
H    -1.759251  -2.297083  6.127517
H    -0.571691  -2.623497  5.093035
N    -4.817852  1.713463  1.705638
C    -5.643233  2.568345  2.561080
H    -5.142512  1.561958  0.752912
H    -6.629151  2.109332  2.702439
H    -5.768469  3.548361  2.086012
H    -5.149737  2.689442  3.527700
Sr    -1.237543  0.226226  4.241804
