34
Energy: -105399.572032 eV PBE+vdW (tier 2 basis)
C    0.421166  0.360757  0.484336
C    0.407190  0.367183  1.977263
O    1.490697  0.417616  2.642818
H    0.462944  1.391563  0.097221
H    -0.456968  -0.133756  0.056419
H    1.333480  -0.144714  0.147304
N    -0.765646  0.347852  2.646416
C    -1.923929  1.159498  2.272533
C    -1.506923  2.644927  2.378671
O    -0.424124  2.962554  2.986425
H    -0.676742  0.185806  3.650534
H    -2.198986  0.936321  1.231016
C    -3.116552  0.816543  3.189608
C    -3.665312  -0.587755  2.933560
C    -4.885895  -0.923730  3.795434
C    -5.610693  -2.177593  3.281925
N    -6.106184  -1.960877  1.917629
H    -3.912768  1.555912  3.028006
H    -2.801310  0.946833  4.240483
H    -2.878628  -1.342178  3.097494
H    -3.972753  -0.674397  1.878014
H    -5.594000  -0.077885  3.780060
H    -4.597174  -1.069462  4.847583
H    -6.398193  -2.449971  4.005348
H    -4.905208  -3.021672  3.259102
H    -6.265646  -2.848900  1.444093
H    -7.006982  -1.481577  1.932609
N    -2.267038  3.590401  1.853890
C    -3.517456  3.462346  1.099515
H    -1.940292  4.542356  2.022908
H    -4.377286  3.685285  1.743952
H    -3.627343  2.456947  0.684920
H    -3.498679  4.181225  0.273440
Sr    1.687254  2.443166  3.754169
