34
Energy: -105400.568638 eV PBE+vdW (tier 2 basis)
C    0.434415  -0.627133  0.192719
C    0.192421  -0.661044  1.668688
O    1.063888  -1.163312  2.444529
H    0.514456  -1.662898  -0.167770
H    1.397640  -0.143583  -0.013468
H    -0.353765  -0.117039  -0.370423
N    -0.962221  -0.163121  2.127902
C    -1.544834  -0.222973  3.487468
C    -0.867496  0.759589  4.456536
O    0.393185  0.694674  4.676816
H    -1.575207  0.229459  1.419062
H    -2.568490  0.138052  3.337927
C    -1.643947  -1.659396  4.067520
C    -2.965189  -1.948489  4.802642
C    -3.208111  -1.195199  6.135284
C    -4.407196  -0.240206  6.163471
N    -4.324902  0.870075  5.166518
H    -0.794818  -1.863383  4.741128
H    -1.549427  -2.365848  3.231688
H    -2.987935  -3.029577  4.992150
H    -3.795632  -1.771777  4.099902
H    -2.300481  -0.655179  6.446370
H    -3.384975  -1.931460  6.930926
H    -4.462769  0.217823  7.159257
H    -5.338210  -0.811908  6.030305
H    -4.757933  0.576809  4.287762
H    -4.910903  1.644874  5.486355
N    -1.653739  1.613011  5.065450
C    -1.183501  2.558406  6.072847
H    -2.718875  1.439501  4.995779
H    -0.271094  3.059564  5.733450
H    -0.975057  2.048953  7.024429
H    -1.964661  3.306627  6.236036
Sr    2.199358  -0.610890  4.324746
