34
Energy: -105400.645848 eV PBE+vdW (tier 2 basis)
C    -0.339092  -0.831549  0.360868
C    -1.170832  -0.736664  1.601828
O    -2.122407  -1.555776  1.795476
H    -0.987101  -0.817139  -0.524321
H    0.174991  -1.803299  0.363647
H    0.408828  -0.036525  0.274413
N    -0.870638  0.216857  2.490357
C    -1.401256  0.380730  3.858208
C    -2.754001  1.129381  3.869452
O    -3.725879  0.531683  3.239988
H    -0.107564  0.838948  2.237514
H    -1.633408  -0.634249  4.220428
C    -0.304527  0.974539  4.750975
C    0.376798  2.255528  4.212945
C    0.825226  3.240712  5.308165
C    -0.227366  4.269843  5.705816
N    -1.485872  3.643345  6.237917
H    0.459037  0.202032  4.917155
H    -0.756989  1.140806  5.736422
H    -0.289335  2.791566  3.517340
H    1.265050  1.970283  3.631140
H    1.691510  3.815804  4.953766
H    1.181947  2.692346  6.194791
H    -0.526740  4.871416  4.836903
H    0.171391  4.955286  6.464505
H    -2.140251  4.375666  6.532347
H    -2.045201  2.950718  5.426271
N    -2.893689  2.248878  4.513638
C    -4.219547  2.871992  4.498566
H    -1.284626  3.089433  7.077260
H    -4.568516  3.052060  3.473227
H    -4.172407  3.836848  5.016568
H    -4.967466  2.246106  5.006191
Sr    -4.352068  -1.353604  2.248235
