34
Energy: -105399.827121 eV PBE+vdW (tier 2 basis)
C    -0.875729  0.045849  -0.782360
C    -0.352139  0.134199  0.610956
O    0.902065  0.149121  0.838462
H    -0.585653  0.932504  -1.364020
H    -1.960672  -0.088336  -0.824063
H    -0.381425  -0.810970  -1.262785
N    -1.202753  0.201668  1.656196
C    -2.394083  1.047731  1.666777
C    -1.910533  2.511161  1.702393
O    -0.663053  2.793166  1.780866
H    -0.758222  0.068176  2.566507
H    -2.976036  0.855163  0.736850
C    -3.319575  0.608398  2.821985
C    -4.703900  1.268892  2.923672
C    -5.586865  1.313576  1.660366
C    -5.738681  -0.003770  0.885722
N    -4.643343  -0.193180  -0.100607
H    -2.798620  0.731282  3.785581
H    -3.446596  -0.473102  2.670396
H    -4.615164  2.282654  3.346218
H    -5.246337  0.704774  3.696658
H    -5.245914  2.081029  0.937565
H    -6.580801  1.658089  1.977500
H    -6.726468  -0.023928  0.401300
H    -5.721964  -0.852167  1.584530
H    -4.585902  -1.181264  -0.354689
H    -4.894660  0.286137  -0.968347
N    -2.813128  3.471502  1.628947
C    -2.515100  4.904787  1.654788
H    -3.787756  3.188014  1.545542
H    -3.460598  5.452640  1.675532
H    -1.952357  5.198992  0.760327
H    -1.935196  5.158312  2.549436
Sr    1.555793  2.196797  1.686887
