34
Energy: -105400.226888 eV PBE+vdW (tier 2 basis)
C    -0.399460  0.394545  0.697568
C    -0.668685  -0.080856  2.085487
O    0.168367  -0.816791  2.685346
H    -1.081136  1.184280  0.364824
H    -0.513317  -0.475152  0.033768
H    0.636559  0.744025  0.618969
N    -1.819861  0.295850  2.668683
C    -2.410565  -0.191493  3.934645
C    -1.604677  0.296425  5.152623
O    -0.576339  -0.344056  5.536762
H    -2.423100  0.883061  2.100752
H    -3.400524  0.279221  3.971286
C    -2.623527  -1.713802  3.977586
C    -3.482975  -2.260125  2.830161
C    -3.158101  -3.722133  2.485066
C    -1.761351  -3.949275  1.897190
N    -1.505072  -3.079979  0.742032
H    -3.064994  -1.967375  4.952451
H    -1.646912  -2.227189  3.946542
H    -3.331489  -1.651313  1.928589
H    -4.544592  -2.174295  3.099092
H    -3.902065  -4.078173  1.756479
H    -3.283401  -4.365405  3.369530
H    -1.647548  -5.025927  1.683631
H    -0.979122  -3.726725  2.660024
H    -0.655144  -3.381254  0.262083
H    -2.253958  -3.202207  0.055547
N    -2.002268  1.372088  5.815327
C    -3.149814  2.246259  5.541903
H    -1.427102  1.605553  6.625100
H    -3.109968  2.646346  4.522293
H    -3.100805  3.089265  6.236452
H    -4.098898  1.721820  5.708677
Sr    0.896669  -1.819015  4.570462
