34
Energy: -105398.57899 eV PBE+vdW (tier 2 basis)
C    0.199135  -0.185189  0.425301
C    0.259332  -0.088364  1.920335
O    1.238300  -0.504111  2.568018
H    1.201164  -0.041257  0.009450
H    -0.499572  0.527190  -0.028451
H    -0.130063  -1.200887  0.158654
N    -0.821926  0.472955  2.543034
C    -1.168994  0.347851  3.965766
C    -0.194093  1.066809  4.902299
O    -0.669525  1.785171  5.878305
H    -1.574333  0.787570  1.940428
H    -2.125643  0.875812  4.076655
C    -1.360527  -1.108574  4.471504
C    -2.545011  -1.878072  3.865315
C    -2.346613  -2.408260  2.439687
C    -3.425606  -3.423181  2.035865
N    -3.224532  -3.878104  0.672559
H    -1.504053  -1.044818  5.562500
H    -0.424768  -1.665254  4.318403
H    -3.459454  -1.263120  3.917018
H    -2.730628  -2.735707  4.530600
H    -1.355546  -2.885870  2.360531
H    -2.365274  -1.598235  1.697553
H    -4.417566  -2.951785  2.092679
H    -3.431702  -4.254783  2.769397
H    -2.435067  -4.509782  0.552343
H    -4.053055  -4.276390  0.237819
N    1.086549  0.888543  4.737850
C    2.128269  1.465130  5.574696
H    1.325144  0.251932  3.895044
H    3.100158  1.173631  5.167214
H    2.058412  1.088303  6.604965
H    2.069532  2.562562  5.576382
Sr    -1.272705  3.018567  7.553075
