34
Energy: -105398.501119 eV PBE+vdW (tier 2 basis)
C    -0.616675  2.306920  0.674505
C    -0.519260  1.900918  2.116123
O    0.471149  2.217188  2.803662
H    -0.446542  3.387374  0.595629
H    -1.570194  2.050074  0.200880
H    0.196852  1.815610  0.123115
N    -1.571318  1.190980  2.621014
C    -1.698425  0.433578  3.878699
C    -1.352277  1.183234  5.163745
O    -2.035634  0.877704  6.231902
H    -2.323501  1.011284  1.964014
H    -2.776333  0.240860  3.970121
C    -1.006700  -0.960820  3.841178
C    0.520873  -0.981174  3.724686
C    1.109613  -2.400219  3.757426
C    0.832755  -3.238284  2.502746
N    1.435397  -4.550865  2.623427
H    -1.466284  -1.498656  2.999122
H    -1.317346  -1.506579  4.748283
H    0.967189  -0.403894  4.548688
H    0.837399  -0.476615  2.800372
H    0.742716  -2.950906  4.638096
H    2.199451  -2.313661  3.885081
H    1.189847  -2.676998  1.613134
H    -0.248425  -3.387447  2.360617
H    2.451440  -4.543937  2.691202
H    1.137291  -5.219585  1.917712
N    -0.379931  2.045899  5.195096
C    0.040873  2.779717  6.379335
H    0.124659  2.177011  4.229217
H    0.845989  3.462730  6.094607
H    0.423064  2.096640  7.151273
H    -0.787541  3.374455  6.789337
Sr    -3.086838  0.527287  8.090510
