34
Energy: -105400.791651 eV PBE+vdW (tier 2 basis)
C    -1.694978  1.522551  -0.703292
C    -1.648737  2.121868  0.666182
O    -0.957077  3.186850  0.852853
H    -2.281763  0.601716  -0.745079
H    -0.674901  1.316290  -1.052014
H    -2.125552  2.259008  -1.395988
N    -2.331986  1.543838  1.644221
C    -2.495151  2.130211  2.981000
C    -1.231091  1.897550  3.836461
O    -0.245537  2.695640  3.724168
H    -2.972113  0.675809  1.417829
H    -2.553000  3.225876  2.865888
C    -3.806615  1.648313  3.618345
C    -5.079476  2.060776  2.831352
C    -5.919283  0.914935  2.241766
C    -5.420961  0.268643  0.950291
N    -4.123755  -0.448140  1.117043
H    -3.849225  2.068084  4.632447
H    -3.792204  0.552836  3.739769
H    -4.813656  2.767113  2.028189
H    -5.724051  2.627621  3.514431
H    -6.921485  1.310193  2.023563
H    -6.079885  0.139200  3.009691
H    -5.270430  1.040180  0.179481
H    -6.197617  -0.411931  0.571306
H    -4.225420  -1.165532  1.840849
H    -3.919939  -0.972940  0.262407
N    -1.200682  0.872895  4.670158
C    -0.083193  0.515236  5.543379
H    -2.034156  0.292003  4.717722
H    0.601508  1.362872  5.619658
H    0.450933  -0.354240  5.139251
H    -0.470892  0.266245  6.536970
Sr    0.507371  4.225434  2.189700
