34
Energy: -105401.382215 eV PBE+vdW (tier 2 basis)
C    -0.016493  -0.646896  0.603281
C    -0.765635  0.028426  1.708429
O    -1.196502  -0.637844  2.689657
H    0.850895  -1.171077  1.025836
H    0.323369  0.036010  -0.182002
H    -0.664866  -1.412604  0.155576
N    -0.959074  1.359255  1.608015
C    -1.732351  2.239775  2.510022
C    -1.004781  2.410700  3.861618
O    -1.091412  1.525431  4.758512
H    -0.570176  1.800876  0.780172
H    -1.741521  3.218226  2.010205
C    -3.192588  1.777166  2.674810
C    -4.009573  2.577049  3.699546
C    -5.318057  1.890668  4.127146
C    -5.225719  0.842691  5.238201
N    -4.578663  -0.464987  4.833336
H    -3.206716  0.705781  2.913994
H    -3.667863  1.838719  1.685361
H    -4.248435  3.560635  3.271251
H    -3.412723  2.783092  4.602575
H    -5.836049  1.464556  3.251413
H    -5.999721  2.663734  4.509047
H    -6.241406  0.637501  5.603357
H    -4.658908  1.245629  6.091788
H    -4.979157  -0.733384  3.926666
H    -4.953059  -1.180255  5.468178
N    -0.305078  3.525333  4.031780
C    0.459669  3.867913  5.230769
H    -0.289234  4.195943  3.267875
H    0.219987  3.155601  6.023260
H    0.195426  4.881570  5.552139
H    1.534717  3.829163  5.014736
Sr    -1.947504  -0.642584  4.887572
