34
Energy: -105401.102797 eV PBE+vdW (tier 2 basis)
C    0.322908  0.614069  1.071739
C    -0.425464  -0.305283  1.977574
O    0.172254  -1.191366  2.653964
H    0.871129  0.020625  0.327743
H    1.074189  1.157627  1.660979
H    -0.320083  1.334220  0.555418
N    -1.765684  -0.171042  2.075458
C    -2.539856  -0.975306  3.017376
C    -2.926946  -2.332717  2.389545
O    -2.151350  -3.315841  2.579102
H    -2.222424  0.563583  1.541251
H    -1.802546  -1.242769  3.784514
C    -3.632258  -0.239849  3.796559
C    -3.859700  -0.974636  5.134025
C    -2.630475  -0.911244  6.077687
C    -2.239024  -2.208904  6.780387
N    -1.794978  -3.307369  5.843322
H    -4.573385  -0.152202  3.234110
H    -3.291990  0.788256  3.990141
H    -4.146286  -2.018965  4.921127
H    -4.733312  -0.540333  5.634350
H    -2.822221  -0.169336  6.864794
H    -1.745300  -0.519086  5.546549
H    -3.074304  -2.572836  7.397413
H    -1.401107  -2.011214  7.460593
H    -2.634842  -3.655308  5.364917
H    -1.531534  -4.094424  6.448177
N    -4.030979  -2.416828  1.662848
C    -4.495951  -3.616041  0.963603
H    -4.607390  -1.582642  1.584349
H    -3.786627  -4.427703  1.138941
H    -4.564519  -3.412616  -0.111709
H    -5.486162  -3.902084  1.337569
Sr    -0.102957  -3.237147  3.770252
