34
Energy: -105399.92643 eV PBE+vdW (tier 2 basis)
C    0.249844  0.405526  -0.014285
C    0.058544  0.450307  1.463913
O    1.026338  0.741904  2.239679
H    1.055341  -0.300255  -0.257347
H    0.578355  1.395752  -0.360070
H    -0.657100  0.120820  -0.557067
N    -1.149562  0.188227  1.976352
C    -1.442848  0.335626  3.407272
C    -0.700492  -0.730954  4.247606
O    0.240806  -0.298338  5.004424
H    -1.923789  -0.010119  1.344637
H    -0.930034  1.259380  3.715252
C    -2.928098  0.615145  3.731479
C    -4.045552  -0.389701  3.427708
C    -4.398789  -0.629412  1.954963
C    -5.517260  -1.673134  1.798472
N    -5.050270  -3.010020  2.209694
H    -3.152711  1.572465  3.233119
H    -2.944448  0.840621  4.808828
H    -4.943508  0.018318  3.916866
H    -3.867794  -1.350453  3.927002
H    -3.536532  -1.011385  1.372456
H    -4.705340  0.316493  1.480162
H    -6.366963  -1.373118  2.428519
H    -5.884202  -1.657976  0.761063
H    -5.770301  -3.494896  2.742776
H    -4.876088  -3.593152  1.391773
N    -0.943188  -2.029595  4.210685
C    -1.832871  -2.826925  3.365346
H    -0.371039  -2.561221  4.869172
H    -1.250270  -3.649343  2.933112
H    -2.259389  -2.229855  2.560938
H    -2.659704  -3.245600  3.949662
Sr    2.061636  0.881531  4.273320
