34
Energy: -105400.707517 eV PBE+vdW (tier 2 basis)
C    -0.763141  0.441176  -0.764307
C    -1.271221  1.163352  0.444258
O    -1.621336  2.380675  0.350683
H    -1.486186  0.536817  -1.584098
H    -0.554196  -0.619079  -0.588915
H    0.161786  0.934486  -1.096478
N    -1.332104  0.484379  1.597203
C    -1.583396  0.946579  2.980522
C    -3.039412  1.353802  3.251654
O    -3.652037  2.192905  2.502053
H    -1.038258  -0.485850  1.530183
H    -1.405552  0.049336  3.580658
C    -0.586169  2.031892  3.451439
C    -0.634025  2.332708  4.960468
C    0.075739  1.340443  5.902063
C    -0.376383  -0.122523  5.937699
N    -1.834158  -0.283633  6.192106
H    -0.765728  2.959516  2.886711
H    0.422074  1.696288  3.165684
H    -1.675209  2.487684  5.283515
H    -0.145950  3.306178  5.108093
H    0.000821  1.751762  6.920952
H    1.152243  1.336871  5.672950
H    0.219867  -0.639807  6.704975
H    -0.142915  -0.634077  4.990934
H    -2.035943  -1.274523  6.350491
H    -2.067320  0.175924  7.077726
N    -3.580997  0.845715  4.332240
C    -4.921313  1.195160  4.793281
H    -2.933300  0.307835  5.012083
H    -5.159477  0.574511  5.661708
H    -5.660564  1.005461  4.006699
H    -4.978207  2.253049  5.083833
Sr    -3.379218  3.711873  0.863907
