34
Energy: -105398.596427 eV PBE+vdW (tier 2 basis)
C    -0.210346  -0.900040  -0.993169
C    -0.042190  -0.250577  0.339275
O    1.165082  -0.101812  0.810547
H    0.412421  -0.380398  -1.733092
H    -1.246553  -0.908069  -1.340743
H    0.147740  -1.937670  -0.936633
N    -1.046377  0.176780  1.057386
C    -2.496453  0.160596  0.816596
C    -2.971612  1.277806  1.794087
O    -2.255115  1.495312  2.785028
H    -0.900387  0.638925  1.984928
H    -2.704407  0.411103  -0.231466
C    -3.074470  -1.227125  1.190292
C    -4.580197  -1.407566  0.979515
C    -5.023435  -2.842957  1.283510
C    -6.528081  -3.055292  1.073687
N    -6.902867  -4.428654  1.342035
H    -2.817047  -1.423539  2.242657
H    -2.535203  -1.978358  0.591434
H    -4.846507  -1.157423  -0.060422
H    -5.136798  -0.712583  1.626062
H    -4.763176  -3.095537  2.324714
H    -4.480220  -3.555550  0.644269
H    -6.792552  -2.832839  0.029352
H    -7.087490  -2.328790  1.699848
H    -6.826300  -4.712316  2.316397
H    -7.803032  -4.707182  0.960773
N    -4.109634  1.947456  1.562444
C    -5.009870  1.917317  0.415020
H    -4.329952  2.617109  2.298396
H    -5.199315  2.942984  0.077074
H    -5.967919  1.448940  0.674009
H    -4.566834  1.362727  -0.416352
Sr    3.163472  0.194829  1.594413
