34
Energy: -105400.176123 eV PBE+vdW (tier 2 basis)
C    -0.295760  0.010772  0.783814
C    -1.055845  0.378090  2.030115
O    -0.543728  1.259302  2.812779
H    -0.837354  0.336454  -0.114887
H    -0.154152  -1.074746  0.692314
H    0.681484  0.500859  0.794899
N    -2.215732  -0.169663  2.455040
C    -2.664626  -1.490536  1.975745
C    -1.624791  -2.531015  2.471894
O    -0.968835  -2.265054  3.525632
H    -3.327253  1.150153  2.260339
H    -3.548695  -1.722115  2.598901
C    -3.156667  -1.617579  0.521991
C    -4.369079  -0.732876  0.170746
C    -4.109749  0.742844  -0.232321
C    -4.690374  1.801047  0.700408
N    -3.815729  2.052102  1.917701
H    -3.496566  -2.655835  0.380667
H    -2.345766  -1.460174  -0.201688
H    -5.095891  -0.775200  0.998665
H    -4.878695  -1.216834  -0.671312
H    -4.580245  0.926652  -1.207281
H    -3.039798  0.937727  -0.403233
H    -5.675370  1.499664  1.077192
H    -4.806023  2.766989  0.195238
H    -3.056173  2.704198  1.685467
H    -4.353737  2.480480  2.679058
N    -1.478751  -3.678834  1.826605
C    -0.614246  -4.781590  2.249850
H    -2.029446  -3.817901  0.984175
H    -1.224579  -5.658738  2.496967
H    -0.046008  -4.471707  3.129270
H    0.074038  -5.041600  1.437428
Sr    -0.898208  -0.189548  4.646765
