34
Energy: -105398.85539 eV PBE+vdW (tier 2 basis)
C    -0.668691  -2.406871  0.532000
C    -0.947051  -1.024300  1.019809
O    -0.466923  -0.011486  0.377011
H    -0.906668  -2.489058  -0.536068
H    -1.215048  -3.172058  1.091933
H    0.409802  -2.598742  0.634854
N    -1.684263  -0.863389  2.099461
C    -2.016759  0.345504  2.856568
C    -3.121317  -0.174206  3.839539
O    -3.606604  -1.287878  3.620734
H    -2.220052  -1.660827  2.498079
H    -1.130387  0.647634  3.436283
C    -2.489757  1.562303  2.035300
C    -3.466894  1.289508  0.884194
C    -3.884989  2.562255  0.109661
C    -5.083333  3.318138  0.737542
N    -4.814277  3.720475  2.119173
H    -1.585381  2.125812  1.702633
H    -2.986428  2.289946  2.692968
H    -4.373420  0.817274  1.292516
H    -3.090747  0.493309  0.204217
H    -4.167868  2.316744  -0.928992
H    -3.052540  3.308925  0.066818
H    -5.939258  2.629309  0.724532
H    -5.347314  4.157472  0.074769
H    -4.502299  4.690639  2.166427
H    -5.665598  3.671340  2.677093
N    -3.487626  0.604430  4.871211
C    -2.934296  1.880158  5.314413
H    -4.215489  0.185941  5.447546
H    -1.856807  1.937628  5.119314
H    -3.070855  1.959489  6.397570
H    -3.438963  2.734163  4.839612
Sr    -1.060265  1.799495  -0.725914
