34
Energy: -105401.028909 eV PBE+vdW (tier 2 basis)
C    0.942736  0.599030  0.887194
C    0.211869  0.650608  2.187196
O    0.567323  1.438861  3.109136
H    0.947050  1.603073  0.441717
H    0.511898  -0.110671  0.173518
H    1.991184  0.330020  1.074469
N    -0.852984  -0.162333  2.363302
C    -1.666986  -0.097558  3.575343
C    -1.032059  -0.943636  4.704743
O    -0.309521  -0.321669  5.543680
H    -1.142653  -0.755343  1.590212
H    -1.504080  0.924084  3.933615
C    -3.177990  -0.164881  3.331256
C    -4.003908  0.164863  4.597156
C    -3.422738  1.234871  5.545167
C    -3.070711  2.597716  4.928479
N    -1.891713  3.212918  5.637039
H    -3.499905  -1.130946  2.923465
H    -3.383302  0.576065  2.543769
H    -4.145448  -0.748475  5.192863
H    -5.010315  0.458366  4.269659
H    -2.525332  0.826987  6.038061
H    -4.142157  1.385199  6.362031
H    -3.936803  3.272995  4.967329
H    -2.795595  2.517580  3.867401
H    -2.154887  3.325610  6.623550
H    -1.802482  4.180075  5.303974
N    -1.191988  -2.255377  4.803707
C    -1.952061  -3.170198  3.949714
H    -0.707777  -2.671000  5.600104
H    -1.520370  -4.170061  4.054854
H    -1.878314  -2.884147  2.896417
H    -3.006329  -3.212388  4.251509
Sr    0.449766  1.916018  5.406458
