34
Energy: -105398.517662 eV PBE+vdW (tier 2 basis)
C    0.983172  -0.309814  -0.139405
C    0.805070  -0.107010  1.337327
O    1.750147  -0.304613  2.126333
H    1.241835  -1.362912  -0.315227
H    1.838207  0.287165  -0.479742
H    0.100185  -0.057233  -0.735959
N    -0.425814  0.314105  1.747947
C    -1.012880  0.397730  3.096670
C    -0.193801  1.132843  4.154497
O    -0.859064  1.789150  5.065624
H    -1.105718  0.439709  1.005222
H    -1.897184  1.037032  2.963968
C    -1.539522  -0.953560  3.667596
C    -0.536889  -2.096462  3.895449
C    -0.375192  -3.063487  2.715712
C    0.508265  -4.270299  3.061029
N    -0.070184  -5.065701  4.135131
H    -2.340984  -1.287133  2.990904
H    -2.044886  -0.702287  4.614980
H    -0.885005  -2.690855  4.752355
H    0.449280  -1.705727  4.191725
H    0.060102  -2.566564  1.838146
H    -1.369715  -3.423557  2.403048
H    1.497976  -3.921904  3.391140
H    0.676363  -4.857190  2.138177
H    0.598057  -5.684810  4.588119
H    -0.882732  -5.608304  3.845706
N    1.103534  1.054633  4.178220
C    1.957593  1.689360  5.171661
H    1.522267  0.442336  3.371373
H    3.000232  1.511470  4.894288
H    1.786138  1.260542  6.169108
H    1.787093  2.774324  5.201913
Sr    -1.869840  2.877146  6.632734
