34
Energy: -105400.140089 eV PBE+vdW (tier 2 basis)
C    -0.670400  -0.878924  -0.535039
C    -0.574161  -0.559225  0.921913
O    0.515025  -0.748914  1.543389
H    -1.644309  -0.640277  -0.974323
H    -0.470331  -1.951242  -0.671057
H    0.114431  -0.337299  -1.079099
N    -1.664535  -0.075126  1.534670
C    -1.896464  0.170281  2.976974
C    -1.103276  1.377358  3.493192
O    0.150244  1.289295  3.694028
H    -2.484561  0.023699  0.943105
H    -2.961373  0.420619  3.032066
C    -1.679554  -1.060393  3.876066
C    -2.604303  -2.241477  3.560113
C    -4.106434  -1.963494  3.742028
C    -4.492672  -1.331116  5.087621
N    -3.808460  -1.992822  6.202448
H    -1.839665  -0.755266  4.921955
H    -0.634646  -1.410153  3.810867
H    -2.308451  -3.051678  4.238956
H    -2.419854  -2.613461  2.540543
H    -4.632081  -2.923276  3.628012
H    -4.501217  -1.331101  2.928953
H    -5.594827  -1.327927  5.161989
H    -4.193505  -0.267434  5.110062
H    -4.058595  -1.550289  7.087133
H    -4.115934  -2.964059  6.283876
N    -1.736143  2.505481  3.778157
C    -3.161816  2.824771  3.629841
H    -1.139014  3.237216  4.164317
H    -3.494399  2.687028  2.594620
H    -3.296651  3.878139  3.889935
H    -3.776896  2.222519  4.309911
Sr    1.870414  -0.145529  3.254585
