34
Energy: -105399.818179 eV PBE+vdW (tier 2 basis)
C    -1.296958  -1.260696  0.491672
C    -0.689133  -0.622476  1.692456
O    0.503062  -0.902522  2.047797
H    -0.579870  -1.303854  -0.336077
H    -2.231306  -0.788825  0.171910
H    -1.515841  -2.305493  0.767824
N    -1.402962  0.245761  2.442446
C    -2.219709  1.316495  1.878130
C    -1.252604  2.355796  1.269936
O    0.013030  2.166350  1.276324
H    -0.970041  0.460749  3.342945
H    -2.846765  0.909369  1.047071
C    -3.184601  1.914958  2.935853
C    -4.552510  2.346136  2.374253
C    -5.607537  1.229293  2.265727
C    -5.213527  -0.046387  1.517672
N    -4.613114  0.233199  0.192911
H    -2.698882  2.761328  3.443615
H    -3.345178  1.144815  3.704513
H    -4.437025  2.827182  1.386388
H    -4.960375  3.131823  3.023824
H    -6.505099  1.660587  1.796632
H    -5.918356  0.936340  3.279682
H    -6.107000  -0.686497  1.446174
H    -4.476348  -0.621358  2.103544
H    -4.626675  -0.617631  -0.373412
H    -5.200777  0.894547  -0.321206
N    -1.768256  3.443917  0.728954
C    -0.991925  4.521302  0.111049
H    -2.781000  3.542703  0.758132
H    -0.386822  4.131184  -0.715549
H    -0.336774  4.997624  0.850276
H    -1.688865  5.267188  -0.279250
Sr    1.886981  0.918444  1.747426
