34
Energy: -105399.435953 eV PBE+vdW (tier 2 basis)
C    0.885055  1.980663  1.100932
C    0.412729  1.065297  2.181713
O    1.102511  0.886519  3.234619
H    0.483035  1.719043  0.116864
H    1.980485  1.949177  1.074141
H    0.599165  3.020208  1.328424
N    -0.774862  0.429185  2.065542
C    -1.993407  1.077885  1.581134
C    -2.324392  2.229586  2.572169
O    -1.713820  2.321152  3.689628
H    -0.934212  -0.293173  2.769483
H    -1.798977  1.518962  0.591774
C    -3.113706  0.021467  1.449638
C    -4.399169  0.475202  0.744818
C    -5.349440  -0.696768  0.445668
C    -4.897101  -1.610022  -0.700474
N    -5.807918  -2.740021  -0.818261
H    -3.360370  -0.372136  2.450124
H    -2.664812  -0.808964  0.885410
H    -4.146214  0.987192  -0.200963
H    -4.943502  1.196195  1.374177
H    -6.337355  -0.280970  0.197739
H    -5.497088  -1.308109  1.349400
H    -3.896992  -2.023112  -0.490724
H    -4.794940  -1.000891  -1.623335
H    -6.727835  -2.455438  -1.154854
H    -5.455289  -3.447422  -1.460657
N    -3.246832  3.105341  2.222971
C    -3.702788  4.220031  3.058977
H    -3.705593  2.970692  1.324554
H    -4.506257  4.739560  2.530973
H    -2.881428  4.923726  3.239360
H    -4.083063  3.848413  4.017507
Sr    0.065244  1.821737  5.086285
