34
Energy: -105398.676953 eV PBE+vdW (tier 2 basis)
C    -0.244982  -1.566591  0.208175
C    -0.096023  -0.993340  1.577224
O    0.997956  -1.254910  2.244464
H    -1.080413  -1.132839  -0.348009
H    -0.409736  -2.651259  0.286629
H    0.683114  -1.417083  -0.356976
N    -1.003641  -0.248997  2.145261
C    -2.283175  0.271896  1.649322
C    -2.542520  1.432259  2.660155
O    -1.829704  1.481300  3.677798
H    -0.854579  0.196165  3.089159
H    -2.143302  0.677713  0.636938
C    -3.408689  -0.787985  1.646922
C    -3.883153  -1.239610  3.029383
C    -4.981864  -2.305273  2.949090
C    -5.639390  -2.589696  4.305827
N    -6.357529  -1.420720  4.800633
H    -3.063653  -1.650728  1.055211
H    -4.255094  -0.370918  1.083310
H    -4.276127  -0.380391  3.594246
H    -3.035751  -1.631788  3.616521
H    -4.578613  -3.246540  2.544624
H    -5.761830  -1.980318  2.239903
H    -4.869369  -2.851513  5.046753
H    -6.289703  -3.478439  4.203603
H    -7.233772  -1.253460  4.307709
H    -6.547010  -1.456735  5.799743
N    -3.514850  2.316646  2.410222
C    -4.417701  2.398512  1.266538
H    -3.638720  3.003418  3.151574
H    -3.935560  2.028240  0.355338
H    -4.673858  3.449683  1.099164
H    -5.345650  1.836998  1.440383
Sr    2.839674  -1.557461  3.326070
