34
Energy: -105401.156734 eV PBE+vdW (tier 2 basis)
C    1.075991  1.170888  1.379054
C    0.230802  0.072089  1.931418
O    0.695168  -0.754744  2.768217
H    1.453292  1.780139  2.211780
H    0.543797  1.816324  0.672806
H    1.952820  0.735901  0.880851
N    -1.053899  -0.020983  1.528394
C    -1.968739  -1.013449  2.090614
C    -1.841974  -2.352692  1.332926
O    -0.990533  -3.190390  1.755104
H    -1.406935  0.668003  0.869102
H    -1.539942  -1.232207  3.074144
C    -3.371345  -0.478535  2.383359
C    -4.220298  -1.461005  3.231271
C    -3.451326  -2.365912  4.216210
C    -2.568085  -1.669285  5.264000
N    -1.362172  -2.512005  5.590242
H    -3.917523  -0.211484  1.465160
H    -3.231818  0.468890  2.924279
H    -4.788062  -2.125674  2.565749
H    -4.975241  -0.873933  3.770965
H    -2.830635  -3.075625  3.643938
H    -4.186913  -2.998975  4.731557
H    -3.147262  -1.460635  6.174351
H    -2.191718  -0.697606  4.914897
H    -1.708219  -3.406341  5.958491
H    -0.901069  -2.084822  6.402275
N    -2.605045  -2.568415  0.273078
C    -2.566637  -3.764829  -0.569613
H    -3.277409  -1.846804  0.024404
H    -2.301587  -3.485639  -1.596376
H    -3.551618  -4.246295  -0.572054
H    -1.819600  -4.455369  -0.172366
Sr    0.439124  -2.915773  3.627669
