34
Energy: -105400.331365 eV PBE+vdW (tier 2 basis)
C    -0.072558  1.978351  2.101974
C    -0.536941  0.685941  2.667937
O    -0.367986  0.389596  3.894712
H    0.687684  2.438435  2.737653
H    -0.974941  2.626551  2.056950
H    0.302649  1.875143  1.075882
N    -1.215844  -0.145174  1.860684
C    -2.164465  -1.172941  2.315699
C    -1.446157  -2.520362  2.522280
O    -0.662862  -2.641851  3.520492
H    -1.348448  0.178831  0.905193
H    -2.478583  -0.876475  3.328824
C    -3.407609  -1.174083  1.409079
C    -3.996302  0.230908  1.173667
C    -4.322444  1.039025  2.434349
C    -4.536163  2.530905  2.147255
N    -3.296858  3.172895  1.648444
H    -4.158893  -1.827972  1.876068
H    -3.169605  -1.608969  0.422697
H    -4.904094  0.110927  0.565484
H    -3.305055  0.811919  0.541871
H    -3.505053  0.973649  3.172016
H    -5.219486  0.627326  2.921640
H    -4.833460  3.023782  3.081436
H    -5.378729  2.658900  1.448179
H    -3.240456  4.124614  2.011562
H    -3.338298  3.285260  0.634927
N    -1.666201  -3.510231  1.679098
C    -1.073481  -4.845812  1.746398
H    -2.317398  -3.329325  0.917847
H    -0.421493  -5.005471  0.878729
H    -1.871406  -5.597270  1.736594
H    -0.491605  -4.937409  2.665638
Sr    0.233443  -1.362360  5.196341
