34
Energy: -105399.432972 eV PBE+vdW (tier 2 basis)
C    -0.533553  3.885732  2.194526
C    0.402545  2.734666  2.367717
O    1.662033  2.917365  2.319916
H    -1.223698  3.731037  1.353222
H    0.039645  4.801997  2.031154
H    -1.155463  4.007303  3.091769
N    -0.054552  1.477074  2.572750
C    -1.172698  0.860932  1.842443
C    -0.806830  0.898769  0.330000
O    0.355444  1.274918  -0.050686
H    0.683474  0.828990  2.845378
H    -1.135188  -0.202295  2.128678
C    -2.589316  1.383035  2.225282
C    -3.631138  0.293450  2.512963
C    -4.112045  -0.561457  1.337430
C    -5.369119  -1.382350  1.704352
N    -6.470196  -0.492319  2.061212
H    -2.962378  2.080021  1.459592
H    -2.464945  1.970189  3.143990
H    -4.523399  0.792063  2.920153
H    -3.253752  -0.362209  3.314774
H    -3.336838  -1.271565  0.993204
H    -4.393129  0.092312  0.486442
H    -5.129563  -2.013231  2.572561
H    -5.597947  -2.071069  0.873229
H    -7.048982  -0.263336  1.254459
H    -7.083948  -0.913681  2.755002
N    -1.714614  0.506015  -0.537208
C    -1.507482  0.422119  -1.984226
H    -2.620128  0.202751  -0.167011
H    -0.701679  -0.284042  -2.218163
H    -1.258154  1.408068  -2.393653
H    -2.435024  0.070161  -2.442873
Sr    2.471268  2.113756  0.311040
