34
Energy: -105398.701857 eV PBE+vdW (tier 2 basis)
C    0.145759  1.988783  0.866777
C    0.195042  1.090029  2.056060
O    1.181334  1.229094  2.903608
H    0.467054  2.997684  1.148935
H    -0.849614  2.037941  0.415283
H    0.846522  1.617863  0.103688
N    -0.693690  0.163712  2.287211
C    -1.916575  -0.211450  1.568789
C    -2.650195  -1.069543  2.645417
O    -2.032430  -1.377413  3.677645
H    -0.674153  -0.418808  3.163197
H    -2.513003  0.692972  1.372764
C    -1.648478  -0.945759  0.234886
C    -0.768972  -2.203603  0.291449
C    -1.408530  -3.491591  0.838628
C    -2.623068  -3.997681  0.049825
N    -2.314771  -4.161358  -1.364039
H    -1.190750  -0.220082  -0.453243
H    -2.622920  -1.178986  -0.219421
H    0.148270  -1.989862  0.863903
H    -0.441648  -2.399314  -0.738619
H    -1.693366  -3.389898  1.895507
H    -0.633748  -4.274504  0.824667
H    -3.459527  -3.284962  0.125127
H    -2.979112  -4.928917  0.531997
H    -1.627934  -4.894543  -1.538415
H    -3.136710  -4.347090  -1.935168
N    -3.911729  -1.417671  2.374743
C    -4.721341  -2.267671  3.244401
H    -4.323276  -1.104902  1.501366
H    -4.219476  -2.354888  4.211456
H    -4.837119  -3.267949  2.806691
H    -5.710851  -1.819177  3.384819
Sr    2.761758  1.515658  4.341587
