34
Energy: -105400.116128 eV PBE+vdW (tier 2 basis)
C    -1.345538  -0.768807  -0.298383
C    -0.477029  -1.025569  0.890435
O    0.644837  -1.611234  0.753460
H    -2.366168  -0.474474  -0.038408
H    -1.379493  -1.698579  -0.883234
H    -0.902614  -0.005725  -0.954946
N    -0.879409  -0.650233  2.125021
C    -1.415013  0.691940  2.391470
C    -0.180209  1.612936  2.628811
O    0.906510  1.341858  1.988165
H    -0.313298  -1.042794  2.878616
H    -1.845254  1.054094  1.444518
C    -2.509501  0.731258  3.453446
C    -2.079872  0.334601  4.874268
C    -2.975821  0.937846  5.970535
C    -3.225575  2.443326  5.840997
N    -1.974779  3.201335  5.552967
H    -3.332207  0.091030  3.106204
H    -2.917146  1.751233  3.442321
H    -1.040412  0.651907  5.057729
H    -2.082542  -0.759862  4.979279
H    -2.520271  0.718956  6.947592
H    -3.954809  0.437209  5.980186
H    -3.713284  2.804908  6.758295
H    -3.925300  2.655226  5.020703
H    -2.204147  4.197698  5.503935
H    -1.343370  3.116190  6.355524
N    -0.276990  2.649064  3.422423
C    0.820661  3.600838  3.590073
H    -1.087420  2.786855  4.138618
H    1.155641  3.981370  2.618644
H    1.673390  3.139755  4.107009
H    0.455316  4.437054  4.193147
Sr    2.388242  -0.114299  1.056557
