34
Energy: -105398.657532 eV PBE+vdW (tier 2 basis)
C    0.009055  0.570723  -0.185539
C    0.010403  0.543219  1.305639
O    1.157453  0.621403  1.927726
H    0.552245  1.458796  -0.534620
H    -0.996594  0.575741  -0.613610
H    0.546421  -0.310150  -0.564151
N    -1.076341  0.446219  2.021060
C    -2.492512  0.341379  1.641229
C    -3.183453  0.790672  2.965098
O    -2.536592  0.628029  4.014554
H    -1.051823  0.442131  3.069678
H    -2.709456  1.023084  0.808744
C    -2.833343  -1.124658  1.273122
C    -4.271647  -1.371937  0.817572
C    -4.517663  -2.835121  0.432378
C    -5.976914  -3.106876  0.044869
N    -6.886488  -2.834554  1.151681
H    -2.602064  -1.751051  2.148909
H    -2.137052  -1.433039  0.476294
H    -4.510044  -0.726753  -0.044158
H    -4.980557  -1.111496  1.615289
H    -4.239163  -3.491263  1.274084
H    -3.873291  -3.126503  -0.411358
H    -6.053303  -4.147202  -0.323954
H    -6.265588  -2.458405  -0.795517
H    -7.859382  -2.761006  0.861800
H    -6.819405  -3.519658  1.903546
N    -4.416626  1.312609  2.949843
C    -5.281245  1.672212  1.830807
H    -4.770719  1.515617  3.883582
H    -5.673888  2.682901  1.992237
H    -6.122934  0.973955  1.739023
H    -4.724632  1.670861  0.889792
Sr    3.025539  0.789096  2.997534
