34
Energy: -105400.756299 eV PBE+vdW (tier 2 basis)
C    -0.806145  2.023872  0.636203
C    -0.692239  0.578571  0.982937
O    0.282629  0.134370  1.652642
H    -0.749384  2.643743  1.539846
H    -1.703399  2.272430  0.062596
H    0.075179  2.280842  0.028386
N    -1.639296  -0.305965  0.564166
C    -3.079380  -0.097402  0.628627
C    -3.442806  0.454445  2.035840
O    -2.638100  0.327721  3.006709
H    -1.356763  -1.279583  0.669993
H    -3.388631  0.652132  -0.115198
C    -3.806708  -1.429398  0.272864
C    -3.272962  -2.723439  0.913083
C    -3.479294  -2.878806  2.432490
C    -2.491212  -3.814516  3.126199
N    -1.076509  -3.284263  3.122828
H    -3.750401  -1.533109  -0.819275
H    -4.873205  -1.310640  0.511135
H    -2.211112  -2.867808  0.640638
H    -3.768971  -3.559045  0.399704
H    -4.490185  -3.269548  2.616973
H    -3.457989  -1.904675  2.941439
H    -2.514604  -4.814222  2.667747
H    -2.783161  -3.938650  4.176712
H    -0.533975  -3.895489  3.744292
H    -0.666405  -3.484220  2.203266
N    -4.616152  1.056041  2.153644
C    -5.171449  1.618149  3.385510
H    -5.188467  1.136023  1.315443
H    -6.057712  1.048521  3.691204
H    -5.459835  2.661189  3.211975
H    -4.415685  1.573579  4.172317
Sr    -0.622499  -0.728698  3.673500
