34
Energy: -105400.019786 eV PBE+vdW (tier 2 basis)
C    -1.998007  -1.356188  -0.562213
C    -0.990038  -1.811186  0.445174
O    -0.973096  -3.016061  0.847926
H    -2.526604  -2.224134  -0.965302
H    -1.519343  -0.803265  -1.378910
H    -2.731660  -0.680939  -0.094358
N    -0.095354  -0.934901  0.956177
C    -0.448749  0.428841  1.407763
C    -1.709678  0.335322  2.319169
O    -1.905263  -0.820030  2.910541
H    0.622481  -1.388991  1.518033
H    0.383381  0.699650  2.076946
C    -0.506978  1.493291  0.300265
C    -0.034584  2.870547  0.808141
C    -0.664487  4.075770  0.097799
C    -2.187916  4.144460  0.178008
N    -2.677406  3.915114  1.585710
H    0.135228  1.168891  -0.528573
H    -1.528588  1.545557  -0.099015
H    1.056956  2.939526  0.705769
H    -0.221654  2.947772  1.891074
H    -0.396885  4.083200  -0.968912
H    -0.235403  4.998124  0.517430
H    -2.674482  3.377502  -0.437354
H    -2.553300  5.120786  -0.161503
H    -2.213240  4.552926  2.243040
H    -3.683314  4.104810  1.649513
N    -2.471989  1.371386  2.473817
C    -3.591168  1.238585  3.409982
H    -2.498804  2.849556  1.917504
H    -4.090417  2.208155  3.525698
H    -3.257289  0.909385  4.403657
H    -4.339831  0.518432  3.047661
Sr    -1.805437  -3.043521  3.036157
