34
Energy: -105399.638511 eV PBE+vdW (tier 2 basis)
C    0.150670  2.656669  0.727416
C    0.296271  1.331384  1.400212
O    1.355375  1.040261  2.045533
H    -0.215844  3.412788  1.439813
H    -0.533991  2.625182  -0.126313
H    1.142320  2.984432  0.394395
N    -0.704809  0.428589  1.355528
C    -2.113358  0.771711  1.519657
C    -2.303893  1.277118  2.979905
O    -1.336402  1.237090  3.812122
H    -0.451016  -0.509586  1.668997
H    -2.359646  1.597286  0.834214
C    -3.002287  -0.444473  1.189166
C    -2.803452  -0.950002  -0.239806
C    -3.668142  -2.169728  -0.573215
C    -3.191495  -2.859353  -1.859501
N    -1.820456  -3.362911  -1.693313
H    -4.054739  -0.164491  1.350032
H    -2.793015  -1.248354  1.916642
H    -1.754022  -1.245342  -0.402152
H    -3.017223  -0.134193  -0.950409
H    -4.725844  -1.883564  -0.674834
H    -3.619709  -2.897799  0.254420
H    -3.190805  -2.130983  -2.683964
H    -3.920040  -3.640257  -2.135094
H    -1.829710  -4.283506  -1.252705
H    -1.372187  -3.490214  -2.599736
N    -3.497599  1.734133  3.310426
C    -3.909370  2.224054  4.626547
H    -4.213410  1.723796  2.586100
H    -4.686481  1.568494  5.038282
H    -4.312573  3.238707  4.528321
H    -3.047376  2.234054  5.296109
Sr    0.901359  0.923943  4.307943
