34
Energy: -105400.427261 eV PBE+vdW (tier 2 basis)
C    -0.319758  -0.079524  0.285309
C    -0.445254  -0.019351  1.782823
O    0.557784  -0.377071  2.501015
H    0.002488  0.896438  -0.109305
H    -1.259337  -0.341596  -0.216156
H    0.455953  -0.805686  0.022600
N    -1.524723  0.427241  2.459435
C    -2.504919  1.300683  1.810318
C    -2.112167  2.766960  2.132634
O    -1.176549  3.008413  2.951366
H    -2.154061  -1.172544  3.064460
H    -2.477090  1.199793  0.710866
C    -3.933223  0.963946  2.285401
C    -4.415731  -0.401235  1.740458
C    -4.959563  -1.393587  2.780099
C    -4.014126  -1.741955  3.926335
N    -2.623860  -2.069331  3.417738
H    -4.631968  1.750928  1.974638
H    -3.938455  0.990348  3.386187
H    -3.598565  -0.876888  1.172812
H    -5.205237  -0.241447  0.995469
H    -5.259012  -2.318390  2.263974
H    -5.878272  -1.002809  3.241548
H    -4.376671  -2.607786  4.491798
H    -3.880449  -0.910098  4.628953
H    -2.660135  -2.749058  2.647190
H    -2.040777  -2.482081  4.154702
N    -2.777411  3.737862  1.519594
C    -2.550887  5.171212  1.708454
H    -3.496216  3.469854  0.852409
H    -2.205889  5.621646  0.769906
H    -1.792865  5.312070  2.481770
H    -3.484801  5.655406  2.016730
Sr    0.263442  1.450908  3.962064
