34
Energy: -105398.858506 eV PBE+vdW (tier 2 basis)
C    0.250076  -0.110898  -0.493804
C    -0.164376  0.428707  0.831878
O    0.695558  1.035170  1.582352
H    -0.590828  -0.510284  -1.069155
H    0.978239  -0.918630  -0.326106
H    0.763924  0.663837  -1.076951
N    -1.409638  0.285731  1.237541
C    -1.972874  0.597560  2.549098
C    -3.443877  0.078000  2.419065
O    -3.910611  -0.071919  1.286454
H    -2.149102  -0.098441  0.619796
H    -1.449571  -0.010544  3.303001
C    -1.898817  2.088154  2.992151
C    -1.831009  3.170713  1.893471
C    -3.131670  3.400380  1.091470
C    -4.275607  4.030329  1.895117
N    -4.783018  3.121942  2.937980
H    -1.070290  2.181427  3.738139
H    -2.804430  2.323667  3.581817
H    -1.053343  2.939650  1.128776
H    -1.575741  4.142441  2.370386
H    -3.460615  2.447354  0.650673
H    -2.895792  4.063626  0.247357
H    -5.051186  4.349513  1.178676
H    -3.918318  4.947327  2.388319
H    -5.366848  3.640147  3.595723
H    -5.396403  2.421759  2.515738
N    -4.080963  -0.185984  3.566249
C    -5.467992  -0.643579  3.626486
H    -3.594845  -0.042222  4.445186
H    -5.537444  -1.537546  4.256203
H    -5.796878  -0.888890  2.613108
H    -6.115039  0.139116  4.043582
Sr    1.019197  2.952955  2.607598
