34
Energy: -105399.926509 eV PBE+vdW (tier 2 basis)
C    0.856339  1.541290  -0.413532
C    0.521996  0.192577  0.125959
O    0.806129  -0.853291  -0.542105
H    1.414417  2.128545  0.325046
H    -0.055080  2.109816  -0.649765
H    1.452286  1.430568  -1.323290
N    -0.086801  0.038191  1.326632
C    -1.276875  0.775347  1.806425
C    -2.347592  0.765665  0.682187
O    -2.252527  -0.118278  -0.253376
H    -0.063782  -0.932331  1.635973
H    -1.692785  0.089497  2.562333
C    -1.061128  2.095702  2.569471
C    -0.802661  3.411069  1.806721
C    -1.437877  4.633279  2.494849
C    -2.890522  4.906376  2.105665
N    -3.801177  3.758486  2.389042
H    -0.249615  1.910747  3.286434
H    -1.956842  2.209872  3.193630
H    -1.186032  3.359996  0.775438
H    0.278935  3.574059  1.720441
H    -0.865998  5.534559  2.234963
H    -1.347043  4.536257  3.589143
H    -2.950081  5.102048  1.024474
H    -3.236246  5.818874  2.613829
H    -4.756610  4.036495  2.148305
H    -3.832431  3.591763  3.399289
N    -3.352615  1.599681  0.748589
C    -4.454749  1.560243  -0.211115
H    -3.433861  2.400626  1.498334
H    -4.949075  0.581108  -0.202274
H    -4.101071  1.771120  -1.228517
H    -5.182377  2.325318  0.073955
Sr    -1.150312  -1.715343  -1.442907
