34
Energy: -105400.290253 eV PBE+vdW (tier 2 basis)
C    -3.389142  -0.295671  -0.554454
C    -2.568263  0.414171  0.473160
O    -1.387079  0.023939  0.724567
H    -2.842469  -0.317920  -1.506211
H    -4.375183  0.152023  -0.714712
H    -3.518672  -1.340147  -0.237080
N    -3.115956  1.457980  1.110207
C    -2.593957  2.221962  2.269975
C    -1.440023  3.155469  1.870170
O    -0.287871  2.687837  1.610677
H    -4.068178  1.682806  0.836252
H    -3.443235  2.851202  2.570543
C    -2.225455  1.377119  3.499487
C    -3.372173  0.495088  4.011508
C    -3.107753  -0.121251  5.394488
C    -3.156287  0.862866  6.569240
N    -2.025902  1.817057  6.554104
H    -1.917342  2.056920  4.313441
H    -1.347513  0.732756  3.301029
H    -3.583243  -0.308025  3.288421
H    -4.290599  1.104460  4.067785
H    -2.139367  -0.651860  5.395088
H    -3.866491  -0.896938  5.570968
H    -3.215621  0.286001  7.507271
H    -4.086926  1.446717  6.508456
H    -2.227326  2.595407  7.183452
H    -1.195487  1.367937  6.945798
N    -1.686936  4.455831  1.850783
C    -0.712806  5.505874  1.553475
H    -2.631813  4.757488  2.075801
H    -1.015862  6.045855  0.648204
H    0.268759  5.052992  1.400295
H    -0.668366  6.209834  2.392758
Sr    0.686535  0.631222  1.391052
