34
Energy: -105400.20893 eV PBE+vdW (tier 2 basis)
C    0.122794  3.148656  1.139305
C    -0.037081  2.018072  2.103540
O    0.929610  1.225185  2.318881
H    -0.760533  3.790800  1.063586
H    0.346787  2.731622  0.147101
H    0.988796  3.756716  1.431974
N    -1.220300  1.876345  2.718746
C    -1.698801  0.785362  3.599635
C    -1.002801  0.800119  4.972369
O    0.198327  0.407663  5.097720
H    -1.921361  2.569755  2.472563
H    -2.757973  1.022909  3.764204
C    -1.651274  -0.612409  2.954303
C    -2.287176  -1.710772  3.812609
C    -3.788547  -1.544498  4.076284
C    -4.428919  -2.863423  4.547609
N    -4.245592  -3.904938  3.536411
H    -0.611733  -0.884782  2.698447
H    -2.170371  -0.541360  1.986812
H    -1.747092  -1.815873  4.769824
H    -2.166492  -2.669131  3.284446
H    -4.291937  -1.222977  3.148271
H    -3.995090  -0.767301  4.831398
H    -5.482819  -2.668719  4.811721
H    -3.932727  -3.194545  5.472489
H    -4.326852  -4.834153  3.945552
H    -4.960179  -3.844911  2.810775
N    -1.720201  1.198193  6.010515
C    -1.262779  1.241995  7.399089
H    -2.678862  1.487788  5.832850
H    -1.978352  0.705476  8.032585
H    -1.196221  2.283544  7.737251
H    -0.281238  0.768882  7.470130
Sr    1.966265  -0.168206  3.765941
