34
Energy: -105399.578757 eV PBE+vdW (tier 2 basis)
C    -1.119889  -0.515490  -0.641767
C    -0.631163  -0.060106  0.679908
O    0.537922  0.454141  0.788782
H    -2.065833  0.012841  -0.940915
H    -1.376055  -1.582674  -0.645270
H    -0.347189  -0.326857  -1.392439
N    -1.380877  -0.111978  1.815135
C    -2.170078  -1.242642  2.318935
C    -1.170811  -2.335263  2.778623
O    0.049932  -2.290213  2.398696
H    -0.964593  0.448307  2.558653
H    -2.678285  -0.857408  3.216698
C    -3.260011  -1.779041  1.364225
C    -4.188823  -0.668282  0.860883
C    -4.988741  -1.050749  -0.394651
C    -5.189524  0.156507  -1.318915
N    -3.899897  0.581959  -1.906872
H    -3.835713  -2.544444  1.900910
H    -2.794842  -2.307609  0.521789
H    -3.587062  0.219417  0.622088
H    -4.870181  -0.362486  1.668800
H    -5.964168  -1.477618  -0.124606
H    -4.460290  -1.835903  -0.960822
H    -5.599620  0.997858  -0.742600
H    -5.936104  -0.089721  -2.089625
H    -3.736270  0.076949  -2.779803
H    -3.933368  1.569354  -2.162057
N    -1.567820  -3.312524  3.577686
C    -2.877618  -3.541988  4.194704
H    -0.846297  -4.001534  3.790979
H    -3.434841  -2.606294  4.294824
H    -2.716201  -3.955616  5.195613
H    -3.463797  -4.259050  3.606472
Sr    1.923998  -1.116612  1.715336
