34
Energy: -105398.427371 eV PBE+vdW (tier 2 basis)
C    -0.503901  1.030285  -0.161120
C    -0.552772  0.348247  1.168631
O    0.557993  0.191555  1.839422
H    -0.103037  2.046404  -0.041322
H    -1.490585  1.098052  -0.629817
H    0.166549  0.480399  -0.836061
N    -1.695914  -0.077157  1.625890
C    -2.040552  -0.763472  2.875037
C    -3.378608  -1.457454  2.469911
O    -4.031359  -0.912626  1.569329
H    -2.581278  0.018203  1.074777
H    -1.249272  -1.480430  3.133121
C    -2.254117  0.289194  3.992021
C    -2.652203  -0.269403  5.361919
C    -2.887523  0.812180  6.431235
C    -4.200906  1.594696  6.294879
N    -4.205933  2.505957  5.147756
H    -3.018209  1.005559  3.655890
H    -1.317384  0.863516  4.090368
H    -1.874651  -0.962393  5.723637
H    -3.574584  -0.862149  5.268384
H    -2.038940  1.517313  6.456490
H    -2.896869  0.322779  7.415766
H    -4.389018  2.122076  7.248189
H    -5.033370  0.887559  6.165746
H    -5.148751  2.796244  4.892552
H    -3.659244  3.348288  5.326227
N    -3.787685  -2.577375  3.087139
C    -3.121367  -3.406890  4.082270
H    -4.692565  -2.903657  2.749928
H    -3.641220  -3.362901  5.048091
H    -2.089395  -3.079337  4.234123
H    -3.104055  -4.448866  3.740055
Sr    2.620475  0.188585  2.474376
