34
Energy: -105400.072804 eV PBE+vdW (tier 2 basis)
C    -1.516937  4.190403  0.067479
C    -1.133992  3.386590  1.266991
O    0.084022  3.106765  1.484301
H    -1.277529  3.603589  -0.831503
H    -0.907900  5.102151  0.026431
H    -2.577712  4.459537  0.039984
N    -2.112768  2.968472  2.081825
C    -2.033637  2.025890  3.220570
C    -1.296765  2.656770  4.412832
O    -0.025049  2.695691  4.434400
H    -3.052885  3.227939  1.797978
H    -3.078750  1.871010  3.513986
C    -1.456591  0.634492  2.879326
C    -2.362062  -0.264469  2.030350
C    -2.641010  0.177178  0.588999
C    -3.101392  -1.014181  -0.272779
N    -2.035454  -2.015637  -0.363646
H    -1.250507  0.131682  3.837203
H    -0.487415  0.736636  2.358596
H    -3.311243  -0.429333  2.565970
H    -1.868300  -1.246901  1.968493
H    -1.723157  0.592613  0.135212
H    -3.408373  0.966637  0.541493
H    -3.440633  -0.639687  -1.252857
H    -3.979855  -1.476622  0.200418
H    -1.461655  -1.870617  -1.193408
H    -2.415450  -2.957336  -0.437615
N    -1.987323  3.127128  5.440118
C    -3.443396  3.178939  5.625440
H    -1.413851  3.486674  6.203803
H    -3.866241  2.172750  5.735763
H    -3.930397  3.708106  4.798545
H    -3.643068  3.735363  6.545244
Sr    1.702129  2.506790  2.951572
