34
Energy: -105400.427166 eV PBE+vdW (tier 2 basis)
C    -1.000859  2.263135  -0.867330
C    -0.727966  1.276285  0.218056
O    0.441611  0.902186  0.505519
H    -2.005906  2.166838  -1.291141
H    -0.249416  2.126683  -1.653719
H    -0.876516  3.288053  -0.484042
N    -1.749675  0.780054  0.971962
C    -2.951438  1.494549  1.380338
C    -2.514234  2.810313  2.059985
O    -1.372399  2.855696  2.615090
H    -1.531856  -0.071244  1.486609
H    -3.585973  1.685463  0.504594
C    -3.740335  0.665232  2.435191
C    -3.736594  -0.870685  2.235120
C    -2.938738  -1.708042  3.255496
C    -1.404712  -1.633287  3.290211
N    -0.830565  -0.447484  4.046756
H    -4.770690  1.040608  2.423142
H    -3.355172  0.915819  3.435082
H    -3.426423  -1.130415  1.210715
H    -4.776055  -1.216696  2.298484
H    -3.183460  -2.761489  3.056437
H    -3.322161  -1.518259  4.272357
H    -0.976262  -1.651917  2.272558
H    -1.030177  -2.547914  3.766039
H    -0.240507  -0.835420  4.790200
H    -1.601217  -0.017360  4.568762
N    -3.334784  3.848689  2.110018
C    -4.691804  3.985018  1.575320
H    -2.977566  4.640401  2.646331
H    -4.863847  3.283673  0.754347
H    -4.816033  5.002462  1.190330
H    -5.435375  3.811235  2.363557
Sr    0.539084  1.468525  2.831646
