34
Energy: -105399.475031 eV PBE+vdW (tier 2 basis)
C    0.059644  1.489706  0.533741
C    -0.031485  0.862072  1.888861
O    1.038006  0.537587  2.501363
H    1.111789  1.572941  0.247067
H    -0.378005  2.497058  0.551306
H    -0.484087  0.914315  -0.227305
N    -1.215569  0.634401  2.506936
C    -2.399643  0.033495  1.877328
C    -2.006683  -1.389110  1.399957
O    -0.776058  -1.757108  1.388493
H    -1.086340  0.367038  3.483086
H    -3.114987  -0.111724  2.702299
C    -3.122288  0.896069  0.804081
C    -4.430408  1.504096  1.319533
C    -5.200448  2.296381  0.252891
C    -5.487786  1.536987  -1.047551
N    -6.029135  0.186701  -0.790656
H    -2.454383  1.699146  0.476043
H    -3.317902  0.281933  -0.084604
H    -4.215524  2.164709  2.173765
H    -5.073835  0.698706  1.703058
H    -4.658734  3.220326  -0.000885
H    -6.149549  2.625608  0.702491
H    -4.561829  1.413282  -1.630670
H    -6.153107  2.159700  -1.668760
H    -6.931960  0.264782  -0.315171
H    -6.238426  -0.267365  -1.681758
N    -2.949806  -2.238432  1.037157
C    -4.409859  -2.073685  1.087581
H    -2.603321  -3.143042  0.719756
H    -4.786383  -1.340440  0.347878
H    -4.720748  -1.763077  2.093189
H    -4.855031  -3.050082  0.878875
Sr    1.380430  -1.721132  2.181564
