34
Energy: -105398.73707 eV PBE+vdW (tier 2 basis)
C    -0.244534  -1.063185  1.823888
C    0.023793  0.073150  2.751295
O    1.049663  -0.017771  3.563983
H    -0.968028  -0.812107  1.043429
H    -0.638428  -1.914979  2.397738
H    0.693497  -1.388629  1.357716
N    -0.706286  1.149330  2.803067
C    -1.863276  1.584542  2.010551
C    -1.879990  3.112356  2.342366
O    -1.112080  3.513676  3.238553
H    -0.457259  1.980358  3.412140
H    -1.646767  1.443630  0.940991
C    -3.172274  0.858052  2.388399
C    -3.747514  1.236964  3.754309
C    -5.083440  0.546483  4.069621
C    -6.198464  0.772158  3.040539
N    -6.369567  2.192826  2.715198
H    -2.999035  -0.227870  2.327131
H    -3.904143  1.085042  1.603420
H    -3.894453  2.326067  3.791407
H    -3.027685  0.995764  4.552542
H    -5.424180  0.900976  5.054662
H    -4.937141  -0.539521  4.177785
H    -7.120483  0.303931  3.430500
H    -5.969738  0.243081  2.102473
H    -7.116934  2.321530  2.032766
H    -6.631768  2.733022  3.541680
N    -2.698621  3.924974  1.670763
C    -3.690695  3.596212  0.647933
H    -2.659994  4.891270  1.988637
H    -3.307031  2.834481  -0.041073
H    -3.886174  4.499069  0.061313
H    -4.629884  3.250466  1.106471
Sr    2.762760  -0.039796  4.856075
