34
Energy: -105398.364601 eV PBE+vdW (tier 2 basis)
C    -0.051911  0.665635  -0.016700
C    0.218687  0.086787  1.328865
O    1.429145  0.103094  1.794681
H    -0.180300  1.753866  0.089368
H    -0.960532  0.264396  -0.475763
H    0.800509  0.478812  -0.678509
N    -0.736398  -0.445715  2.061617
C    -2.196988  -0.314645  1.869655
C    -2.507096  1.208655  1.817253
O    -1.798567  1.981584  2.464451
H    -0.453554  -0.770858  2.986129
H    -2.467158  -0.821705  0.932958
C    -2.853585  -1.051678  3.058430
C    -4.384750  -1.169458  3.063745
C    -5.140344  0.008423  3.691346
C    -6.648984  -0.256564  3.807953
N    -6.930203  -1.377294  4.689483
H    -2.520876  -0.556740  3.986680
H    -2.424211  -2.066127  3.059919
H    -4.643788  -2.067492  3.641807
H    -4.755007  -1.370298  2.045968
H    -4.996661  0.940369  3.126482
H    -4.733645  0.204585  4.697425
H    -7.064641  -0.496008  2.817629
H    -7.145017  0.676635  4.137360
H    -6.784262  -1.177903  5.677353
H    -7.845172  -1.799532  4.554041
N    -3.521884  1.636461  1.030516
C    -4.466439  0.895308  0.202713
H    -3.676559  2.640100  1.110964
H    -4.041788  -0.056561  -0.131677
H    -4.696775  1.488873  -0.688961
H    -5.405588  0.689768  0.734670
Sr    3.415268  0.655208  2.494772
