34
Energy: -105401.294724 eV PBE+vdW (tier 2 basis)
C    -0.378795  0.502349  -0.321568
C    -0.686766  0.042092  1.071123
O    -0.131776  -0.992321  1.529418
H    0.704193  0.652708  -0.419884
H    -0.896370  1.422562  -0.611084
H    -0.654907  -0.297876  -1.022003
N    -1.564910  0.779272  1.777391
C    -2.174005  0.598286  3.120145
C    -1.141810  0.643043  4.260326
O    -0.233368  -0.224509  4.386557
H    -1.927554  1.584485  1.275580
H    -2.778740  1.509117  3.224043
C    -3.208345  -0.553737  3.212266
C    -2.764193  -2.027564  3.277736
C    -2.598099  -2.606155  4.692842
C    -2.043208  -4.032294  4.709223
N    -0.535646  -4.063538  4.636408
H    -3.861502  -0.414853  2.339227
H    -3.842728  -0.335731  4.085549
H    -1.872878  -2.180904  2.646884
H    -3.538042  -2.623238  2.772147
H    -3.586508  -2.618637  5.174455
H    -1.973821  -1.962213  5.334341
H    -2.426448  -4.598027  3.849559
H    -2.376178  -4.561926  5.611351
H    -0.261928  -5.002311  4.327018
H    -0.193956  -4.028563  5.604005
N    -1.288526  1.630526  5.138598
C    -0.458226  1.831396  6.325040
H    -2.021009  2.314342  4.969405
H    -1.099733  2.099071  7.171400
H    0.262669  2.640744  6.152004
H    0.080459  0.907668  6.548562
Sr    0.703655  -2.101265  3.377935
