34
Energy: -105399.359272 eV PBE+vdW (tier 2 basis)
C    -0.326253  0.323233  1.827788
C    -1.450847  0.463895  2.794677
O    -1.225933  0.775593  4.009692
H    -0.405397  1.122656  1.074862
H    -0.360611  -0.626006  1.277000
H    0.630001  0.414827  2.349014
N    -2.736403  0.280593  2.411303
C    -3.225222  -0.824338  1.570838
C    -2.743009  -2.151032  2.233273
O    -2.304154  -2.152120  3.431950
H    -3.405620  0.611922  3.104122
H    -4.316818  -0.814403  1.726218
C    -3.014017  -0.711040  0.047059
C    -3.597600  0.563999  -0.590846
C    -2.713931  1.810710  -0.503764
C    -3.307011  3.027755  -1.227086
N    -2.438156  4.188137  -1.037513
H    -3.535396  -1.569948  -0.405731
H    -1.952701  -0.823922  -0.215842
H    -4.591269  0.768876  -0.158291
H    -3.782333  0.335760  -1.650782
H    -1.726186  1.587910  -0.943701
H    -2.542183  2.116540  0.538341
H    -4.287930  3.261748  -0.786935
H    -3.494557  2.767279  -2.286516
H    -1.665514  4.186155  -1.703699
H    -2.948316  5.056423  -1.192336
N    -2.843878  -3.272384  1.546858
C    -2.518813  -4.603568  2.067694
H    -3.178101  -3.207112  0.588622
H    -2.776476  -5.343365  1.305716
H    -3.096332  -4.807372  2.976622
H    -1.447535  -4.677011  2.290342
Sr    -1.547884  -1.079029  5.339796
