34
Energy: -105398.354571 eV PBE+vdW (tier 2 basis)
C    -0.226838  1.400205  -0.070687
C    -0.219185  0.982790  1.365948
O    0.775182  1.346345  2.125519
H    -0.211017  2.497009  -0.136732
H    -1.106198  1.031945  -0.608291
H    0.673587  1.018605  -0.571707
N    -1.207743  0.261625  1.820576
C    -1.468902  -0.284889  3.158238
C    -2.419476  -1.470971  2.808148
O    -3.116577  -1.338532  1.794250
H    -1.988524  -0.046262  1.199345
H    -0.525393  -0.619463  3.609018
C    -2.139019  0.815701  4.023203
C    -2.548004  0.441696  5.458326
C    -3.941821  -0.183001  5.588989
C    -4.308657  -0.506268  7.041325
N    -5.575574  -1.207046  7.113556
H    -3.016743  1.183268  3.470308
H    -1.424887  1.653081  4.056363
H    -2.526386  1.367536  6.052916
H    -1.787970  -0.212164  5.916213
H    -4.031988  -1.104730  4.998751
H    -4.685620  0.515967  5.172993
H    -4.298569  0.430849  7.636410
H    -3.540334  -1.157417  7.487658
H    -6.373851  -0.676507  6.769579
H    -5.787030  -1.602722  8.026424
N    -2.446672  -2.578212  3.568509
C    -1.710035  -2.914658  4.778206
H    -3.128716  -3.261608  3.241734
H    -1.368338  -3.954164  4.714839
H    -2.337515  -2.806910  5.673656
H    -0.828660  -2.276195  4.889728
Sr    2.628678  2.245780  2.817941
