34
Energy: -105400.218439 eV PBE+vdW (tier 2 basis)
C    0.187581  0.921212  0.788348
C    -0.091290  0.041505  1.977173
O    0.569322  -1.052732  2.079833
H    0.464037  1.939800  1.085709
H    -0.699581  1.001176  0.142707
H    1.004385  0.487613  0.205209
N    -1.043262  0.240895  2.920233
C    -2.210220  1.113394  2.692962
C    -3.141808  0.397841  1.678038
O    -3.044652  -0.858766  1.539083
H    -0.397436  0.660539  4.422209
H    -2.784998  1.046577  3.635800
C    -1.987600  2.622223  2.433082
C    -0.900288  3.292757  3.285718
C    -1.076411  3.245780  4.823818
C    0.024721  2.494532  5.561197
N    -0.115397  0.986846  5.428720
H    -2.940639  3.140067  2.630728
H    -1.748708  2.804459  1.376487
H    -0.853915  4.342298  2.968891
H    0.083352  2.876416  3.021138
H    -2.063543  2.850986  5.115925
H    -1.060617  4.268358  5.223483
H    0.024733  2.717122  6.634913
H    1.014053  2.751810  5.163142
H    -0.843033  0.650482  6.069736
H    0.758149  0.516150  5.693415
N    -4.044729  1.108751  1.017237
C    -5.045310  0.561291  0.099963
H    -4.051807  2.114201  1.163868
H    -4.908306  0.992898  -0.898601
H    -6.051108  0.806470  0.461220
H    -4.927710  -0.523098  0.050076
Sr    -1.391081  -2.274051  2.440782
