34
Energy: -105399.535824 eV PBE+vdW (tier 2 basis)
C    -0.811953  0.064370  -0.811320
C    -0.339872  -0.230520  0.573273
O    0.829556  -0.683059  0.783182
H    -1.901879  0.115613  -0.890712
H    -0.430741  -0.720478  -1.476934
H    -0.382615  1.013824  -1.168009
N    -1.145935  0.006778  1.632843
C    -1.935621  1.234000  1.794537
C    -0.958209  2.425481  1.664213
O    0.283567  2.237724  1.933310
H    -0.805848  -0.382959  2.513168
H    -2.706047  1.285828  1.013454
C    -2.612803  1.183448  3.187656
C    -3.609707  2.300839  3.473639
C    -4.216331  2.235886  4.877944
C    -5.085990  3.468678  5.162179
N    -4.307915  4.708922  5.005560
H    -1.819680  1.184010  3.956230
H    -3.111538  0.203003  3.244908
H    -4.421395  2.271683  2.728092
H    -3.133779  3.288682  3.396261
H    -3.407987  2.182220  5.627176
H    -4.821670  1.326121  5.005857
H    -5.544357  3.356906  6.159101
H    -5.915457  3.499265  4.440056
H    -4.935623  5.507869  4.917666
H    -3.753357  4.886139  5.844789
N    -1.363580  3.624587  1.287579
C    -2.684273  4.097499  0.861046
H    -0.630459  4.335140  1.310727
H    -3.343319  3.259638  0.623988
H    -2.554180  4.715478  -0.034387
H    -3.143928  4.699057  1.655424
Sr    2.137249  0.875648  1.905216
