34
Energy: -105398.43917 eV PBE+vdW (tier 2 basis)
C    -0.323944  1.318989  -0.349757
C    -0.208002  0.871521  1.071955
O    0.968917  0.872020  1.640507
H    0.035711  2.353119  -0.443488
H    -1.353810  1.273162  -0.717350
H    0.304354  0.684184  -0.989874
N    -1.276943  0.487561  1.710627
C    -1.461404  0.009251  3.086697
C    -2.808216  -0.761890  2.948723
O    -3.590070  -0.353763  2.077772
H    -2.218764  0.476627  1.253759
H    -0.629071  -0.650465  3.364640
C    -1.543682  1.231107  4.038808
C    -1.890563  0.948562  5.511478
C    -3.388992  1.016816  5.836456
C    -3.701882  0.638277  7.290835
N    -3.556979  -0.804109  7.522778
H    -2.276031  1.933523  3.612394
H    -0.566125  1.735692  3.977931
H    -1.377684  1.706269  6.122910
H    -1.476156  -0.017423  5.835100
H    -3.973122  0.367259  5.166721
H    -3.749228  2.040898  5.654221
H    -4.715194  0.995796  7.540522
H    -3.011774  1.166156  7.964542
H    -3.302267  -1.015248  8.486097
H    -4.422823  -1.304426  7.322260
N    -3.069010  -1.820726  3.729216
C    -2.262201  -2.453544  4.767911
H    -3.990730  -2.218252  3.555098
H    -2.450765  -3.532538  4.743267
H    -2.512374  -2.062891  5.767585
H    -1.193953  -2.301577  4.577953
Sr    3.061782  1.113625  2.101195
