34
Energy: -105400.167586 eV PBE+vdW (tier 2 basis)
C    -0.460126  -0.692627  0.272201
C    -0.364055  -0.654899  1.762417
O    0.502231  -1.362081  2.362653
H    -1.162216  0.038855  -0.140739
H    -0.784344  -1.700723  -0.025652
H    0.533198  -0.533056  -0.165381
N    -1.222500  0.129207  2.427918
C    -1.469963  0.218324  3.885229
C    -0.305855  0.906594  4.618869
O    0.777324  0.282894  4.845534
H    -1.881303  0.639217  1.846702
H    -2.348634  0.873165  3.967454
C    -1.843875  -1.117222  4.565488
C    -3.234190  -1.666936  4.227361
C    -3.478558  -2.126996  2.785598
C    -4.674836  -3.095206  2.711971
N    -4.388348  -4.313532  3.474280
H    -1.781697  -0.947581  5.651927
H    -1.096892  -1.893416  4.320836
H    -3.995917  -0.927034  4.523029
H    -3.393386  -2.546983  4.869958
H    -2.587783  -2.654975  2.399921
H    -3.666990  -1.277998  2.108898
H    -4.920710  -3.283467  1.653624
H    -5.556509  -2.604829  3.149797
H    -5.235335  -4.704658  3.882048
H    -3.994384  -5.039330  2.876957
N    -0.498779  2.146298  5.040890
C    0.462003  2.948494  5.799176
H    -1.391602  2.583172  4.824979
H    -0.040975  3.383438  6.670060
H    0.853138  3.757682  5.169772
H    1.283758  2.309664  6.129552
Sr    1.793283  -1.660267  4.194624
