34
Energy: -105399.314419 eV PBE+vdW (tier 2 basis)
C    0.170298  0.025802  0.172632
C    -0.193205  -0.354705  1.568683
O    0.699705  -0.686902  2.409692
H    0.616300  1.032405  0.153048
H    -0.678275  -0.004317  -0.516979
H    0.949400  -0.665148  -0.175436
N    -1.485335  -0.327474  1.969149
C    -2.407289  0.776247  1.670803
C    -1.724830  2.078777  2.148232
O    -0.856564  2.012970  3.089810
H    -1.651763  -0.768846  2.874741
H    -2.596600  0.818628  0.589930
C    -3.731109  0.492925  2.421187
C    -4.900059  1.443844  2.146213
C    -6.203599  0.974615  2.810407
C    -6.226867  1.094786  4.338342
N    -7.479043  0.562164  4.855781
H    -3.510360  0.466023  3.501547
H    -4.025050  -0.528022  2.131344
H    -5.065086  1.509719  1.060130
H    -4.662997  2.460150  2.501022
H    -6.419936  -0.067973  2.531610
H    -7.028537  1.574529  2.397405
H    -6.019718  2.151754  4.615872
H    -5.415559  0.492495  4.780752
H    -8.277839  1.130703  4.573775
H    -7.483599  0.519962  5.873485
N    -2.011649  3.251170  1.610246
C    -2.888250  3.592480  0.486352
H    -1.536982  4.039328  2.053553
H    -3.179124  2.699964  -0.071083
H    -2.346529  4.271313  -0.181942
H    -3.792353  4.094383  0.850186
Sr    0.866658  0.875516  4.123521
