34
Energy: -105400.052256 eV PBE+vdW (tier 2 basis)
C    -1.968616  -0.299223  0.888483
C    -1.160645  -0.162404  2.138679
O    0.100837  -0.297515  2.098431
H    -3.038643  -0.120438  1.034981
H    -1.827470  -1.315302  0.493026
H    -1.586517  0.393729  0.127641
N    -1.809276  0.101447  3.280933
C    -1.307775  0.098262  4.672600
C    -0.401864  1.296057  4.978207
O    0.757853  1.386986  4.459904
H    -2.820210  0.166475  3.196794
H    -2.217317  0.203931  5.272865
C    -0.643312  -1.225317  5.110589
C    -1.525364  -2.462234  4.893096
C    -2.899438  -2.386191  5.563184
C    -3.711301  -3.682650  5.433835
N    -5.065008  -3.473631  5.938922
H    -0.404142  -1.116420  6.180309
H    0.321059  -1.366376  4.594998
H    -0.971168  -3.329070  5.283012
H    -1.644968  -2.650323  3.813705
H    -3.522070  -1.585407  5.128472
H    -2.780698  -2.139602  6.632507
H    -3.157354  -4.506122  5.925343
H    -3.786793  -3.951792  4.369116
H    -5.698211  -4.197602  5.602481
H    -5.094288  -3.514651  6.957960
N    -0.811261  2.219318  5.834646
C    -2.091549  2.313344  6.549871
H    -0.125520  2.950707  6.024444
H    -2.935826  2.334380  5.851286
H    -2.091968  3.252730  7.109285
H    -2.209903  1.488971  7.263558
Sr    2.095040  0.413992  2.890180
