34
Energy: -105398.97775 eV PBE+vdW (tier 2 basis)
C    -1.464140  -1.818865  1.360558
C    -1.810630  -1.826393  2.810569
O    -1.901918  -2.988516  3.424597
H    -0.996533  -0.878182  1.052825
H    -2.378681  -1.952876  0.763146
H    -0.792182  -2.652591  1.130283
N    -2.035498  -0.753128  3.506953
C    -1.928581  0.676382  3.181710
C    -2.072630  1.303526  4.609205
O    -2.034262  0.516672  5.582370
H    -2.139541  -0.766860  4.570619
H    -0.897454  0.877553  2.846538
C    -2.913402  1.225113  2.145503
C    -4.397039  1.235370  2.562267
C    -5.172401  2.448521  2.020059
C    -4.998640  3.754394  2.803205
N    -3.608231  4.280881  2.790379
H    -2.785447  0.697037  1.190188
H    -2.575349  2.249707  1.945343
H    -4.486390  1.223466  3.660656
H    -4.881504  0.311823  2.213891
H    -6.246875  2.216830  2.029809
H    -4.918919  2.610435  0.958616
H    -5.269841  3.582681  3.856393
H    -5.715934  4.492818  2.410200
H    -3.344461  4.523554  1.831536
H    -3.591975  5.171521  3.293535
N    -2.199779  2.620049  4.694886
C    -2.307471  3.284600  5.991431
H    -2.499261  3.182662  3.861843
H    -2.176484  4.360190  5.840013
H    -1.528633  2.919730  6.668968
H    -3.285880  3.101080  6.457383
Sr    -1.962616  -4.780809  4.575867
