34
Energy: -105398.59643 eV PBE+vdW (tier 2 basis)
C    0.956899  3.066450  2.541945
C    1.001943  1.820316  3.375388
O    1.947461  1.590740  4.152897
H    1.774918  3.019456  1.809247
H    1.152557  3.935021  3.181503
H    0.011821  3.208115  2.006492
N    -0.048326  0.952727  3.251836
C    -0.077879  -0.451080  3.685927
C    -0.011717  -0.643925  5.200024
O    -0.804551  -1.515097  5.757877
H    -0.774642  1.215188  2.594364
H    -1.065974  -0.822654  3.386663
C    1.006229  -1.336877  3.008234
C    0.975481  -1.299511  1.475450
C    -0.314750  -1.814587  0.833925
C    -0.262187  -1.794219  -0.700600
N    -1.516019  -2.254867  -1.274141
H    0.856950  -2.370356  3.361638
H    1.995859  -1.020559  3.364872
H    1.826954  -1.900807  1.123228
H    1.182923  -0.274107  1.131134
H    -1.189113  -1.214511  1.137517
H    -0.513225  -2.845830  1.174037
H    -0.090562  -0.764371  -1.045550
H    0.611398  -2.385598  -1.039222
H    -1.644115  -3.264069  -1.226903
H    -1.663409  -1.945706  -2.232091
N    0.875346  0.017512  5.887828
C    1.081736  -0.098518  7.323569
H    1.474559  0.687526  5.279273
H    1.856765  0.613501  7.620256
H    1.420601  -1.109289  7.591824
H    0.162006  0.143274  7.874649
Sr    -2.050213  -2.894088  6.859347
