34
Energy: -105399.72055 eV PBE+vdW (tier 2 basis)
C    -1.373698  -0.580924  -0.581486
C    -0.319331  -0.197102  0.406459
O    0.509200  -1.064312  0.835815
H    -1.159451  -1.581233  -0.967844
H    -1.423367  0.132869  -1.411645
H    -2.368119  -0.594353  -0.108398
N    -0.243611  1.065370  0.882368
C    -1.401233  1.867335  1.299237
C    -2.173799  1.062247  2.350792
O    -1.651744  0.031650  2.907361
H    0.607780  1.249474  1.412957
H    -0.942927  2.741847  1.850988
C    -2.249606  2.500617  0.167658
C    -2.701846  3.942092  0.484485
C    -1.698190  5.049987  0.107800
C    -0.254275  4.881473  0.586736
N    -0.168071  4.536763  2.024759
H    -3.119702  1.868501  -0.061652
H    -1.634900  2.510903  -0.742849
H    -2.951839  4.038990  1.555773
H    -3.638078  4.141819  -0.053725
H    -2.096991  6.005210  0.481586
H    -1.672416  5.150501  -0.987426
H    0.296915  5.803528  0.343321
H    0.242559  4.074452  0.023819
H    0.800214  4.619577  2.340853
H    -0.690286  5.219016  2.580363
N    -3.372283  1.483265  2.716090
C    -4.183968  0.878526  3.774394
H    -3.741745  2.305872  2.245160
H    -3.642586  0.890338  4.727634
H    -4.445390  -0.154740  3.516828
H    -5.102901  1.460894  3.878381
Sr    -0.047682  -1.605490  3.015330
