34
Energy: -105400.220511 eV PBE+vdW (tier 2 basis)
C    0.822789  0.313540  0.433366
C    0.372603  0.261260  1.856097
O    1.130041  0.679680  2.788943
H    1.785554  -0.203240  0.329900
H    0.994804  1.365209  0.162285
H    0.101841  -0.120267  -0.267044
N    -0.843857  -0.223466  2.127011
C    -1.535399  -0.173773  3.427262
C    -1.025878  -1.301770  4.349362
O    0.090250  -1.153851  4.947001
H    -1.406693  -0.522575  1.333336
H    -1.223477  0.760998  3.919405
C    -3.054145  -0.124803  3.205110
C    -3.541493  1.114861  2.442414
C    -3.226759  2.457009  3.109643
C    -4.085109  3.594147  2.522883
N    -5.504765  3.318879  2.737285
H    -3.536644  -0.146968  4.194163
H    -3.384641  -1.031531  2.665836
H    -4.635753  1.042367  2.355695
H    -3.159228  1.112129  1.407729
H    -2.162311  2.729722  3.002460
H    -3.431703  2.390113  4.192767
H    -3.906515  3.654087  1.438832
H    -3.741630  4.553686  2.947885
H    -6.085017  3.783264  2.041498
H    -5.817187  3.650153  3.649447
N    -1.764145  -2.384372  4.501507
C    -1.439086  -3.537775  5.340208
H    -2.653751  -2.406442  4.006252
H    -1.284476  -4.422508  4.710236
H    -2.270587  -3.730692  6.027883
H    -0.531900  -3.327075  5.909949
Sr    1.928500  0.203333  4.854576
