34
Energy: -105400.168214 eV PBE+vdW (tier 2 basis)
C    -0.603856  1.695679  0.543705
C    -0.874309  0.381279  1.197868
O    -0.132268  -0.624357  0.962446
H    0.391311  2.042665  0.857336
H    -1.342250  2.465081  0.791307
H    -0.567000  1.564966  -0.545528
N    -1.903465  0.285513  2.049373
C    -2.205039  -0.878271  2.905127
C    -2.895186  -1.970896  2.058866
O    -2.172769  -2.783966  1.395901
H    -2.456075  1.125365  2.208289
H    -1.236853  -1.314123  3.198598
C    -2.926966  -0.423787  4.184855
C    -2.818094  -1.414270  5.355204
C    -3.411144  -2.805065  5.121959
C    -3.276239  -3.737486  6.331254
N    -3.743167  -5.079544  5.978778
H    -3.982861  -0.175869  3.977045
H    -2.463183  0.525909  4.492069
H    -3.304562  -0.946312  6.223339
H    -1.754477  -1.508528  5.631434
H    -2.921766  -3.320189  4.277114
H    -4.479635  -2.721496  4.855652
H    -3.794767  -3.286881  7.198630
H    -2.214137  -3.810405  6.609951
H    -4.761097  -5.137409  6.028894
H    -3.391424  -5.768755  6.642618
N    -4.211039  -2.017811  2.002971
C    -4.977641  -3.025381  1.268045
H    -4.725898  -1.383955  2.608428
H    -6.009480  -2.677132  1.173142
H    -4.962856  -3.979970  1.811238
H    -4.549290  -3.169997  0.271681
Sr    -0.047522  -2.859601  0.562412
