34
Energy: -105398.58115 eV PBE+vdW (tier 2 basis)
C    -0.431167  0.610296  -0.349234
C    -0.145164  0.636495  1.118054
O    0.815287  1.403488  1.561390
H    -0.693781  1.620337  -0.693292
H    -1.252479  -0.068165  -0.600051
H    0.466312  0.290536  -0.896781
N    -0.854360  -0.106076  1.920118
C    -0.787704  -0.292675  3.369708
C    -1.500777  -1.675607  3.524179
O    -2.228927  -2.045615  2.593494
H    -1.583263  -0.775115  1.563815
H    0.262504  -0.341021  3.694719
C    -1.547779  0.838957  4.103262
C    -1.382572  0.833750  5.626186
C    -2.198194  1.927442  6.333725
C    -3.711628  1.665624  6.355571
N    -4.018600  0.387760  6.989283
H    -1.193890  1.802129  3.699773
H    -2.609407  0.760320  3.826590
H    -0.316156  0.948758  5.881664
H    -1.716167  -0.129088  6.039460
H    -2.016408  2.912276  5.874553
H    -1.840417  2.008708  7.371636
H    -4.116970  1.637267  5.333204
H    -4.202051  2.523805  6.852053
H    -3.848921  0.396282  7.994991
H    -4.978805  0.089242  6.829669
N    -1.285590  -2.361668  4.651880
C    -1.956563  -3.622968  4.963295
H    -0.683919  -1.955497  5.359959
H    -2.392232  -4.021672  4.043398
H    -2.754493  -3.463811  5.700018
H    -1.229183  -4.337085  5.364041
Sr    2.488201  2.758467  1.731874
