34
Energy: -105399.845626 eV PBE+vdW (tier 2 basis)
C    0.774805  0.410309  0.409325
C    0.364786  -0.184460  1.712634
O    0.885620  -1.277707  2.104931
H    1.129244  -0.366023  -0.275711
H    1.625612  1.082424  0.608197
H    -0.006160  1.012857  -0.061814
N    -0.544216  0.423512  2.511279
C    -1.855365  0.950461  2.060906
C    -2.417377  -0.001115  0.973685
O    -2.054648  -1.241242  1.017431
H    -0.559284  0.020887  3.447112
H    -2.516436  0.718966  2.914450
C    -1.959925  2.483131  1.932535
C    -1.134331  3.267132  0.900148
C    -1.496062  3.165962  -0.590271
C    -2.846372  3.758393  -1.005316
N    -4.019758  2.992604  -0.478947
H    -1.677490  2.857245  2.927662
H    -3.029286  2.717360  1.847349
H    -0.069249  3.029377  1.037169
H    -1.212461  4.325642  1.193008
H    -1.438980  2.128958  -0.960030
H    -0.725649  3.715056  -1.151690
H    -2.905462  3.752323  -2.100546
H    -2.906266  4.811949  -0.695346
H    -4.443647  3.491823  0.305134
H    -4.752326  2.965215  -1.190660
N    -3.306758  0.428141  0.119675
C    -3.974100  -0.468399  -0.822211
H    -3.573877  1.490447  -0.004581
H    -4.515830  -1.261407  -0.292490
H    -3.253223  -0.928472  -1.510373
H    -4.689230  0.121477  -1.402905
Sr    -0.680775  -2.934858  1.672183
