34
Energy: -105399.368776 eV PBE+vdW (tier 2 basis)
C    -0.218232  0.324722  -0.469260
C    -0.174669  -0.019450  0.981078
O    0.913957  -0.370496  1.536353
H    0.355589  1.241859  -0.667840
H    -1.233535  0.433703  -0.860100
H    0.292472  -0.480613  -1.016413
N    -1.295525  0.051044  1.735451
C    -2.232529  1.184429  1.708208
C    -1.393885  2.464114  1.904912
O    -0.296340  2.393423  2.564903
H    -1.208146  -0.383364  2.655581
H    -2.745086  1.217908  0.738107
C    -3.279009  0.929612  2.824120
C    -4.412153  1.941290  3.017566
C    -4.115172  3.141810  3.922935
C    -5.408271  3.872351  4.332416
N    -6.297340  2.965600  5.056599
H    -2.735625  0.808564  3.778202
H    -3.704328  -0.054874  2.576820
H    -5.242958  1.404804  3.500909
H    -4.812891  2.265632  2.044063
H    -3.429384  3.871347  3.463779
H    -3.612591  2.784026  4.838278
H    -5.931724  4.211559  3.425297
H    -5.138970  4.784415  4.893981
H    -6.081871  2.945971  6.052867
H    -7.271600  3.248624  4.972120
N    -1.763578  3.619864  1.381289
C    -2.937706  3.961020  0.575419
H    -1.150270  4.400371  1.620405
H    -3.686094  4.471544  1.194119
H    -3.388516  3.067712  0.137619
H    -2.621535  4.631777  -0.230778
Sr    1.600025  1.200477  3.104602
