34
Energy: -105399.473756 eV PBE+vdW (tier 2 basis)
C    -0.497409  0.590480  -0.168617
C    -0.029707  0.176144  1.187704
O    1.214223  0.190632  1.463760
H    -1.383278  1.231898  -0.116037
H    -0.763487  -0.290752  -0.773228
H    0.315561  1.119475  -0.674865
N    -0.890397  -0.223458  2.153507
C    -2.010707  -1.161842  1.980155
C    -1.400608  -2.534360  1.570191
O    -0.136332  -2.679143  1.445186
H    -0.438396  -0.292404  3.065247
H    -2.415329  -1.301643  2.995350
C    -3.190035  -0.652635  1.117987
C    -4.510255  -1.407168  1.344535
C    -5.749756  -0.568308  1.007118
C    -7.047677  -1.293071  1.389375
N    -7.051486  -1.624729  2.819925
H    -2.932271  -0.654285  0.051011
H    -3.332678  0.397246  1.413315
H    -4.618349  -1.719585  2.397704
H    -4.553416  -2.317473  0.719231
H    -5.771548  -0.314544  -0.063378
H    -5.694014  0.386089  1.556699
H    -7.120007  -2.234072  0.823003
H    -7.902109  -0.672497  1.069071
H    -7.322041  -0.812267  3.375942
H    -7.745706  -2.343828  3.019696
N    -2.223244  -3.548567  1.398843
C    -1.812158  -4.913586  1.062432
H    -3.220813  -3.358458  1.501867
H    -2.710408  -5.529270  0.971015
H    -1.175022  -5.327391  1.853225
H    -1.268864  -4.928076  0.110369
Sr    2.048433  -1.958049  1.579925
