34
Energy: -105399.701159 eV PBE+vdW (tier 2 basis)
C    -1.548040  0.030876  -0.920501
C    -0.559465  0.744054  -0.075381
O    0.460517  1.314349  -0.596103
H    -1.338334  0.244379  -1.972816
H    -2.604936  0.293433  -0.668014
H    -1.479238  -1.058420  -0.766730
N    -0.681443  0.796654  1.273475
C    -1.120250  -0.316995  2.121433
C    -0.166131  -1.515861  1.846403
O    0.905213  -1.354155  1.173154
H    -0.032183  1.447610  1.711338
H    -0.891197  0.007491  3.150177
C    -2.631310  -0.618743  2.069857
C    -3.472887  0.608756  2.449101
C    -4.972263  0.455787  2.136646
C    -5.389977  0.984789  0.763539
N    -4.723337  0.276548  -0.353792
H    -2.854035  -1.425955  2.786024
H    -2.916636  -0.990823  1.078988
H    -3.089024  1.493095  1.917357
H    -3.332556  0.811537  3.521570
H    -5.551137  1.009698  2.888229
H    -5.283575  -0.596414  2.248354
H    -5.112881  2.046840  0.689122
H    -6.488991  0.940863  0.686905
H    -4.978541  0.733208  -1.232275
H    -5.107275  -0.669384  -0.430134
N    -0.472870  -2.689438  2.365292
C    0.362899  -3.889643  2.269261
H    -1.350277  -2.761720  2.873984
H    -0.107258  -4.684284  2.853886
H    1.362462  -3.690309  2.672269
H    0.448070  -4.215189  1.225594
Sr    2.260885  -0.057869  -0.196044
