34
Energy: -105401.118089 eV PBE+vdW (tier 2 basis)
C    1.155244  -0.375541  3.047006
C    0.037706  0.483285  2.555567
O    0.143713  1.742531  2.524533
H    1.383807  -0.106599  4.087311
H    2.056603  -0.158470  2.458031
H    0.937828  -1.447154  2.992559
N    -1.096744  -0.111943  2.132588
C    -2.219690  0.644021  1.576460
C    -3.114284  1.216113  2.695102
O    -2.883992  2.403601  3.072162
H    -1.148739  -1.127197  2.158224
H    -1.750463  1.539042  1.158526
C    -2.901904  -0.060422  0.389548
C    -2.238659  0.360966  -0.936800
C    -2.727305  1.702309  -1.528202
C    -2.695890  2.965123  -0.656938
N    -1.321919  3.417513  -0.207395
H    -3.970790  0.198515  0.369222
H    -2.855150  -1.153011  0.512092
H    -2.431846  -0.408983  -1.695155
H    -1.142242  0.355463  -0.807251
H    -3.774943  1.578684  -1.843756
H    -2.164877  1.896072  -2.454272
H    -3.331450  2.837388  0.233303
H    -3.147962  3.788836  -1.222632
H    -0.635740  2.711188  -0.494736
H    -1.064527  4.234838  -0.768292
N    -4.068235  0.461914  3.219419
C    -4.970233  0.866184  4.299751
H    -4.198422  -0.470181  2.833305
H    -4.845266  0.193710  5.156771
H    -6.008695  0.815228  3.951822
H    -4.732128  1.889719  4.596995
Sr    -1.041806  3.754257  2.421134
