34
Energy: -105400.160041 eV PBE+vdW (tier 2 basis)
C    -3.123742  1.660744  0.730292
C    -1.752984  1.208716  1.140111
O    -0.729059  1.594789  0.551834
H    -3.127811  2.753327  0.639952
H    -3.920364  1.344617  1.412392
H    -3.334104  1.257001  -0.270007
N    -1.679374  0.353948  2.209640
C    -0.519618  -0.441016  2.625135
C    0.710757  0.347921  3.079646
O    1.428976  -0.166542  4.024568
H    -2.556007  0.110274  2.657824
H    -0.852430  -0.968876  3.528516
C    -0.112839  -1.492826  1.550302
C    0.866498  -2.586252  2.002323
C    0.291921  -3.587851  3.016567
C    1.288911  -4.635415  3.521634
N    1.999365  -4.184307  4.777424
H    0.293285  -0.965402  0.677399
H    -1.043550  -1.974224  1.215824
H    1.811276  -2.120976  2.360554
H    1.180688  -3.145012  1.108502
H    -0.544045  -4.112511  2.532775
H    -0.163406  -3.077744  3.884846
H    2.057118  -4.836702  2.762920
H    0.780120  -5.587524  3.720076
H    1.355651  -4.364144  5.558106
H    2.763131  -4.848506  4.951691
N    1.035686  1.455196  2.468788
C    2.183071  2.292351  2.793274
H    0.420467  1.672922  1.622305
H    2.384437  2.269079  3.869380
H    1.957977  3.319994  2.492304
H    3.074992  1.961275  2.242721
Sr    2.751464  -1.702710  4.907589
