34
Energy: -105399.729682 eV PBE+vdW (tier 2 basis)
C    0.543743  -0.711355  0.279856
C    0.873950  0.282812  1.344364
O    2.038816  0.788739  1.425785
H    0.239795  -0.195134  -0.644803
H    -0.260347  -1.394223  0.573015
H    1.448816  -1.283548  0.046220
N    -0.069970  0.677476  2.225028
C    -1.448376  0.989458  1.849618
C    -1.405049  2.233856  0.921268
O    -0.297075  2.854413  0.733482
H    0.285505  1.236552  3.001826
H    -1.860357  0.148115  1.272184
C    -2.318219  1.204592  3.104020
C    -1.956515  2.434541  3.947739
C    -3.010059  2.754416  5.025585
C    -4.212612  3.570954  4.541673
N    -5.022872  2.872037  3.519218
H    -2.246593  0.286737  3.705615
H    -3.364168  1.294221  2.793005
H    -1.844635  3.321035  3.297727
H    -0.984065  2.285698  4.448757
H    -2.531459  3.327849  5.831483
H    -3.353528  1.818405  5.496142
H    -3.853122  4.509156  4.091233
H    -4.806077  3.858625  5.425923
H    -5.511515  2.085615  3.955970
H    -5.769136  3.497717  3.208251
N    -2.501517  2.651431  0.318591
C    -3.862253  2.105120  0.390871
H    -2.380341  3.496251  -0.239610
H    -3.843420  1.010832  0.332643
H    -4.418830  2.484076  -0.470839
H    -4.354735  2.421875  1.328659
Sr    1.987726  3.033900  0.856649
