34
Energy: -105398.935615 eV PBE+vdW (tier 2 basis)
C    -0.298129  -1.567322  0.330581
C    -0.080118  -0.507105  1.355760
O    1.151113  -0.277394  1.764380
H    0.567790  -1.627905  -0.337168
H    -1.202400  -1.389279  -0.260316
H    -0.406020  -2.543732  0.826793
N    -1.033869  0.204412  1.878073
C    -2.473095  0.297286  1.587722
C    -2.847433  1.570886  2.421042
O    -1.896618  2.270200  2.837474
H    -0.837867  1.061495  2.482501
H    -2.586279  0.582044  0.527853
C    -3.324718  -0.945533  1.861861
C    -3.522178  -1.312523  3.337810
C    -4.794814  -2.140794  3.592220
C    -6.074529  -1.592714  2.947074
N    -6.235314  -0.132283  3.150754
H    -2.937623  -1.802834  1.292960
H    -4.297479  -0.726932  1.400076
H    -3.572819  -0.393303  3.938977
H    -2.651129  -1.868408  3.715678
H    -4.936991  -2.220536  4.680536
H    -4.659800  -3.172544  3.234265
H    -6.931168  -2.167294  3.334319
H    -6.062059  -1.767652  1.861292
H    -7.116483  0.165075  2.725721
H    -6.344369  0.060392  4.150304
N    -4.132542  1.850442  2.597310
C    -4.543630  3.054741  3.316646
H    -4.852709  1.093994  2.534699
H    -4.041309  3.933294  2.898538
H    -4.296477  2.990702  4.385586
H    -5.625342  3.170515  3.201959
Sr    3.096262  0.296096  2.421084
