34
Energy: -105400.075835 eV PBE+vdW (tier 2 basis)
C    0.268983  1.382591  0.602889
C    0.046905  0.785713  1.953778
O    0.945945  0.866158  2.850405
H    0.391857  2.469149  0.720229
H    -0.551744  1.192599  -0.096311
H    1.205542  1.000607  0.177110
N    -1.119645  0.180267  2.200705
C    -1.612506  -0.291120  3.505233
C    -0.995888  -1.663778  3.865536
O    0.225343  -1.707237  4.227631
H    -1.797545  0.148445  1.441451
H    -1.200307  0.390969  4.266132
C    -3.149734  -0.191042  3.554381
C    -3.940789  -0.741640  2.352590
C    -5.437060  -0.856735  2.666580
C    -6.277833  -1.311728  1.468339
N    -7.653133  -1.546899  1.890630
H    -3.401552  0.871429  3.681729
H    -3.484624  -0.674845  4.484894
H    -3.568832  -1.727950  2.017839
H    -3.817879  -0.077081  1.478565
H    -5.808720  0.115967  3.028166
H    -5.596787  -1.570207  3.490488
H    -5.878528  -2.265645  1.088494
H    -6.164039  -0.576107  0.645003
H    -8.157187  -0.672181  2.037367
H    -8.171991  -2.071067  1.187841
N    -1.751313  -2.743638  3.824834
C    -1.331743  -4.101547  4.169848
H    -2.716741  -2.617558  3.525928
H    -2.014545  -4.510181  4.923811
H    -0.315165  -4.077533  4.567059
H    -1.364814  -4.737459  3.276473
Sr    2.068755  -0.362611  4.386340
