34
Energy: -105399.558278 eV PBE+vdW (tier 2 basis)
C    0.082263  0.438387  -0.059706
C    -0.114943  0.015422  1.357990
O    0.873136  -0.340335  2.075875
H    0.543331  1.437136  -0.102531
H    -0.844737  0.445527  -0.640162
H    0.797979  -0.253970  -0.522414
N    -1.348542  0.030470  1.907817
C    -2.306335  1.131061  1.738835
C    -1.574194  2.434082  2.113584
O    -0.586868  2.379644  2.933883
H    -1.421454  -0.447097  2.807220
H    -2.657541  1.165486  0.699024
C    -3.501413  0.848150  2.680077
C    -4.725286  1.758612  2.538898
C    -5.936247  1.253026  3.344850
C    -6.619996  0.003328  2.779283
N    -5.765543  -1.197680  2.876805
H    -3.136689  0.879675  3.722306
H    -3.834550  -0.188796  2.487371
H    -5.018196  1.821859  1.477819
H    -4.487520  2.782367  2.867468
H    -6.682054  2.059784  3.380556
H    -5.641702  1.075001  4.392874
H    -6.845186  0.166115  1.714439
H    -7.592606  -0.120780  3.285136
H    -5.783297  -1.559143  3.832617
H    -6.147287  -1.944761  2.295422
N    -1.951917  3.608061  1.635875
C    -2.964760  3.940598  0.630577
H    -1.438489  4.400454  2.024398
H    -3.816316  4.443820  1.102719
H    -3.322155  3.043249  0.121999
H    -2.515270  4.614764  -0.107471
Sr    1.222506  1.223210  3.757915
