34
Energy: -105400.376859 eV PBE+vdW (tier 2 basis)
C    -1.166178  -0.626106  -0.012344
C    -1.221508  -0.845304  1.474378
O    -0.410608  -1.684973  2.008044
H    -2.154847  -0.456559  -0.457446
H    -0.690465  -1.490845  -0.485111
H    -0.548676  0.255369  -0.244870
N    -2.035883  -0.188231  2.326745
C    -2.634470  1.092341  1.943222
C    -1.632007  2.202672  2.333084
O    -0.649559  1.923866  3.086940
H    -3.194628  -1.406823  2.793910
H    -2.790186  1.160261  0.853054
C    -3.997044  1.298470  2.650957
C    -5.227225  0.843952  1.850360
C    -5.337905  -0.631502  1.429225
C    -5.333807  -1.646722  2.574452
N    -3.941032  -2.187725  2.839161
H    -4.142292  2.360369  2.889427
H    -3.940689  0.797174  3.631185
H    -5.301915  1.456073  0.938719
H    -6.119567  1.098529  2.441927
H    -4.566299  -0.903147  0.689479
H    -6.289141  -0.750044  0.893249
H    -5.966963  -2.513866  2.356675
H    -5.685506  -1.203882  3.514664
H    -3.895261  -2.673993  3.741877
H    -3.682891  -2.873975  2.119046
N    -1.788271  3.444020  1.885245
C    -2.821659  3.983738  1.003230
H    -1.092295  4.103596  2.233130
H    -3.623840  4.461585  1.580992
H    -3.249197  3.196702  0.375045
H    -2.366619  4.734734  0.349079
Sr    0.064256  -0.200331  3.784854
