34
Energy: -105398.713672 eV PBE+vdW (tier 2 basis)
C    -0.517504  -0.396056  -0.415494
C    -0.281341  0.223945  0.920288
O    0.946637  0.506679  1.267303
H    -0.008247  0.194854  -1.187610
H    -1.578247  -0.477006  -0.667303
H    -0.076886  -1.403184  -0.430709
N    -1.241183  0.497837  1.760608
C    -2.695455  0.322098  1.676790
C    -3.179970  1.314583  2.778134
O    -2.360290  1.666835  3.641026
H    -1.054790  0.971670  2.679409
H    -3.056121  0.634788  0.687265
C    -3.081473  -1.147873  1.980394
C    -4.578839  -1.480774  1.940205
C    -5.271614  -1.212642  0.600578
C    -6.736217  -1.670156  0.590529
N    -7.388361  -1.306215  -0.655511
H    -2.675016  -1.402514  2.970524
H    -2.553520  -1.782289  1.250768
H    -5.103374  -0.955557  2.753050
H    -4.669620  -2.549729  2.185236
H    -4.725518  -1.724794  -0.210289
H    -5.262061  -0.140764  0.335484
H    -7.279890  -1.178841  1.411182
H    -6.773606  -2.757580  0.802268
H    -7.079559  -1.852115  -1.458061
H    -8.404271  -1.330418  -0.606078
N    -4.455120  1.711988  2.720061
C    -5.075574  2.593182  3.707114
H    -5.029604  1.376989  1.952947
H    -5.506402  3.469557  3.209101
H    -4.307487  2.916298  4.414271
H    -5.866720  2.061846  4.250552
Sr    2.955382  1.020583  1.870124
