34
Energy: -105399.924016 eV PBE+vdW (tier 2 basis)
C    -0.927297  1.643881  -0.133191
C    -0.860154  1.484906  1.348786
O    -0.014723  2.141000  2.035293
H    -1.169328  2.691417  -0.363208
H    -1.671000  0.994816  -0.606502
H    0.060234  1.442253  -0.568681
N    -1.714364  0.645919  1.951003
C    -1.868572  0.511619  3.409216
C    -0.672690  -0.269702  4.005704
O    0.286905  0.418981  4.494236
H    -2.397184  0.168395  1.366549
H    -1.745683  1.520378  3.832705
C    -3.279236  0.034180  3.771764
C    -3.496782  -0.102963  5.285897
C    -4.848403  -0.733133  5.645701
C    -6.074587  0.111564  5.279088
N    -7.289379  -0.614937  5.625322
H    -3.514332  -0.915164  3.269480
H    -3.975333  0.778583  3.357826
H    -3.408771  0.890254  5.757178
H    -2.695579  -0.719541  5.726092
H    -4.859884  -0.921544  6.729907
H    -4.949003  -1.720481  5.167154
H    -6.103705  0.286678  4.191483
H    -5.976023  1.110992  5.754359
H    -7.419757  -0.668656  6.635813
H    -8.118072  -0.162203  5.242965
N    -0.582291  -1.589522  4.007528
C    -1.506133  -2.610857  3.502911
H    0.263142  -1.937564  4.460984
H    -2.328065  -2.784228  4.208422
H    -0.941644  -3.540824  3.389003
H    -1.904329  -2.333683  2.522543
Sr    1.343299  2.344008  3.850674
