34
Energy: -105400.07156 eV PBE+vdW (tier 2 basis)
C    0.904091  3.219343  2.263879
C    -0.079367  2.446241  3.080344
O    -0.774474  3.027897  3.973179
H    0.352231  3.965393  1.673477
H    1.491006  2.594194  1.583174
H    1.581985  3.774536  2.924363
N    -0.219307  1.138442  2.839216
C    -1.258442  0.239988  3.371919
C    -0.912809  -0.223379  4.807435
O    -0.978039  0.624566  5.757829
H    0.374558  0.735536  2.116909
H    -2.168658  0.847781  3.501406
C    -1.552623  -0.870851  2.349336
C    -0.323700  -1.596901  1.750374
C    -0.620388  -3.047315  1.333202
C    -0.746251  -3.994741  2.545031
N    -0.973781  -5.401323  2.294600
H    -2.137291  -0.423346  1.534010
H    -2.237823  -1.584265  2.829333
H    0.523892  -1.613097  2.461155
H    0.036992  -1.039531  0.872017
H    0.193906  -3.405547  0.687687
H    -1.538002  -3.087422  0.725811
H    -1.574102  -3.654867  3.198477
H    0.184374  -3.912381  3.141244
H    -0.225612  -5.822844  1.745631
H    -1.854906  -5.575078  1.813229
N    -0.602304  -1.481807  5.040853
C    -0.308640  -2.033515  6.365592
H    -0.578599  -2.129490  4.253409
H    0.646856  -1.645969  6.739959
H    -0.246994  -3.121230  6.275970
H    -1.105595  -1.771062  7.070171
Sr    -1.380187  2.839044  6.147778
