34
Energy: -105400.198929 eV PBE+vdW (tier 2 basis)
C    -0.664351  -2.099580  1.920342
C    -0.560752  -0.873678  2.767781
O    0.469094  -0.657200  3.480553
H    -0.197073  -1.922114  0.938332
H    -1.701111  -2.410773  1.756563
H    -0.104981  -2.908259  2.403777
N    -1.557442  0.039062  2.760044
C    -2.212721  0.498986  1.530981
C    -1.113487  1.041645  0.582516
O    0.032324  1.377328  1.071796
H    -1.462508  0.761379  3.475439
H    -2.714873  -0.347256  1.041469
C    -3.260433  1.569600  1.915570
C    -4.166265  2.075325  0.789226
C    -5.134943  1.027486  0.190078
C    -5.048723  0.893925  -1.328091
N    -3.773019  0.244509  -1.751259
H    -2.730178  2.425106  2.366926
H    -3.877554  1.124095  2.711181
H    -3.557072  2.529665  -0.006003
H    -4.746431  2.908872  1.205939
H    -6.168082  1.294635  0.447097
H    -4.981327  0.034742  0.647450
H    -5.083377  1.888612  -1.793445
H    -5.915681  0.333170  -1.706756
H    -3.845480  -0.763055  -1.582120
H    -3.679552  0.327295  -2.767334
N    -1.400850  1.146069  -0.687661
C    -0.478993  1.708904  -1.671179
H    -2.372712  0.794720  -1.063036
H    -0.138128  2.704796  -1.364145
H    0.396063  1.060238  -1.809762
H    -1.006118  1.792627  -2.626094
Sr    1.684806  1.130931  2.616115
