34
Energy: -105399.076191 eV PBE+vdW (tier 2 basis)
C    -0.658761  0.572011  0.259390
C    -0.297224  0.068805  1.615012
O    0.866200  -0.533522  1.762525
H    -0.790096  -0.278738  -0.424532
H    0.161520  1.185181  -0.136049
H    -1.579450  1.161582  0.261362
N    -1.056721  0.188057  2.660022
C    -2.379004  0.787538  2.863729
C    -2.383823  0.918088  4.421678
O    -1.521610  0.255263  5.045824
H    -0.771110  -0.123402  3.645297
H    -2.427611  1.781171  2.396918
C    -3.492229  -0.142816  2.321777
C    -4.918028  0.402905  2.449801
C    -5.224102  1.670565  1.622190
C    -6.000186  2.727164  2.408907
N    -5.145666  3.336964  3.460340
H    -3.413603  -1.105253  2.849351
H    -3.273101  -0.346494  1.261252
H    -5.140666  0.583790  3.510178
H    -5.600256  -0.403168  2.148057
H    -5.798202  1.403010  0.724780
H    -4.296946  2.135182  1.242453
H    -6.859624  2.256005  2.905855
H    -6.407514  3.485761  1.722900
H    -5.736527  3.810633  4.146848
H    -4.579567  4.080422  3.044236
N    -3.289581  1.707550  4.974658
C    -3.390550  1.857250  6.423991
H    -3.959360  2.258628  4.376521
H    -2.449986  2.232933  6.845606
H    -3.624597  0.897983  6.902051
H    -4.191553  2.570297  6.639754
Sr    2.708908  -1.515455  2.183443
