34
Energy: -105400.425328 eV PBE+vdW (tier 2 basis)
C    -1.144368  0.120711  0.103132
C    -0.894059  0.213977  1.573505
O    0.231811  0.669522  1.987340
H    -2.092084  -0.368853  -0.134549
H    -0.324033  -0.435753  -0.368408
H    -1.133771  1.130529  -0.330539
N    -1.842069  -0.172400  2.422198
C    -1.659990  -0.004035  3.869064
C    -0.500894  -0.871565  4.417611
O    0.553338  -0.256512  4.801978
H    -2.847930  -0.352974  2.011575
H    -1.264193  1.011803  4.029197
C    -2.975109  -0.068504  4.689680
C    -4.090564  -1.057978  4.276394
C    -5.361784  -0.388799  3.731657
C    -5.164230  0.460569  2.477368
N    -4.404303  -0.282710  1.436051
H    -3.384095  0.951594  4.678477
H    -2.683537  -0.240212  5.735024
H    -4.372553  -1.662244  5.148032
H    -3.726002  -1.776367  3.532437
H    -5.817384  0.244416  4.507071
H    -6.100750  -1.177534  3.521289
H    -4.590564  1.373098  2.704892
H    -6.144216  0.794590  2.107138
H    -4.868124  -1.174885  1.241326
H    -4.444561  0.238452  0.556775
N    -0.526541  -2.192526  4.518640
C    -1.544690  -3.166835  4.126668
H    0.309561  -2.575652  4.959855
H    -1.046812  -4.131065  3.986187
H    -2.010567  -2.878004  3.180929
H    -2.308918  -3.277762  4.904610
Sr    1.837149  1.122422  3.499127
