34
Energy: -105399.424284 eV PBE+vdW (tier 2 basis)
C    0.216870  0.565248  0.561548
C    -0.345406  -0.293770  1.646111
O    -0.206612  -1.558896  1.603109
H    -0.584944  0.966333  -0.078089
H    0.885822  -0.035604  -0.061121
H    0.763034  1.421839  0.973667
N    -1.025829  0.240482  2.686117
C    -2.048885  1.291450  2.578718
C    -3.138424  0.784763  1.595987
O    -3.162654  -0.437316  1.225199
H    -1.178648  -0.420160  3.446848
H    -2.528232  1.301986  3.570927
C    -1.531744  2.724012  2.330737
C    -0.413855  3.133864  3.300329
C    -0.791202  3.027296  4.779124
C    0.304412  3.535573  5.725766
N    -0.055176  3.239271  7.110261
H    -2.381136  3.410308  2.483304
H    -1.214515  2.851699  1.286854
H    -0.137240  4.170210  3.056868
H    0.486935  2.529549  3.105243
H    -0.993138  1.982065  5.069991
H    -1.722166  3.589364  4.969036
H    0.491750  4.607098  5.518175
H    1.243365  3.006708  5.501704
H    0.756853  3.313576  7.721575
H    -0.744308  3.902806  7.465523
N    -4.059367  1.637119  1.189358
C    -5.198825  1.293576  0.333401
H    -3.974573  2.601964  1.499539
H    -5.829536  2.179880  0.228576
H    -5.785714  0.486614  0.786870
H    -4.852484  0.981430  -0.659157
Sr    -2.232521  -2.550925  1.097057
