34
Energy: -105401.09341 eV PBE+vdW (tier 2 basis)
C    -1.000293  1.729309  2.120458
C    -1.375349  0.284991  2.151045
O    -0.640756  -0.593750  1.615746
H    -0.009604  1.848560  2.579862
H    -1.717070  2.376795  2.635788
H    -0.906305  2.054711  1.075601
N    -2.516107  -0.074151  2.772856
C    -2.932299  -1.469923  2.917382
C    -3.669334  -1.963257  1.655742
O    -2.977931  -2.545382  0.767756
H    -3.080203  0.653898  3.204176
H    -1.998518  -2.037911  2.894055
C    -3.570552  -1.769404  4.277501
C    -2.521864  -1.849852  5.401389
C    -1.574012  -3.068665  5.405787
C    -0.432763  -3.147898  4.368919
N    -0.739346  -3.962497  3.121893
H    -4.110842  -2.726107  4.206803
H    -4.329475  -1.010432  4.528747
H    -3.065938  -1.863211  6.355411
H    -1.925355  -0.923246  5.423549
H    -2.156970  -4.005435  5.378382
H    -1.092742  -3.073813  6.393559
H    0.445204  -3.603509  4.840861
H    -0.123472  -2.137497  4.060738
H    -1.677369  -4.362633  3.231524
H    -0.135336  -4.789800  3.148916
N    -4.972836  -1.760385  1.540561
C    -5.792751  -2.149437  0.391475
H    -5.450515  -1.311481  2.318415
H    -6.586680  -2.830839  0.719011
H    -5.159282  -2.649489  -0.344282
H    -6.247251  -1.258118  -0.057324
Sr    -0.616083  -2.759142  0.749700
