34
Energy: -105399.516991 eV PBE+vdW (tier 2 basis)
C    -1.298870  1.506863  1.332944
C    -2.063032  1.228435  2.583277
O    -1.852179  1.944250  3.617439
H    -1.764378  1.088566  0.439041
H    -0.265035  1.139603  1.413438
H    -1.231156  2.599333  1.237063
N    -3.033811  0.281988  2.660045
C    -2.926089  -1.150525  2.332056
C    -2.255372  -1.840822  3.540294
O    -1.519892  -1.169506  4.347804
H    -3.622691  0.436284  3.480157
H    -3.958995  -1.525041  2.265776
C    -2.219060  -1.530184  1.019935
C    -3.102786  -1.320339  -0.212385
C    -2.535499  -1.970960  -1.483386
C    -2.109081  -3.437402  -1.326623
N    -3.094050  -4.226340  -0.557474
H    -1.995215  -2.601933  1.085484
H    -1.243373  -1.033402  0.936424
H    -3.286623  -0.250672  -0.396300
H    -4.087528  -1.760362  0.006427
H    -1.671088  -1.401485  -1.856999
H    -3.303639  -1.891538  -2.267184
H    -1.150009  -3.497053  -0.787899
H    -1.913195  -3.845761  -2.332011
H    -3.993544  -4.225600  -1.044935
H    -2.801979  -5.205440  -0.548163
N    -2.455441  -3.132335  3.732464
C    -3.348921  -4.039869  2.992389
H    -1.961447  -3.527179  4.532282
H    -3.205219  -3.980201  1.901278
H    -4.397105  -3.823645  3.238690
H    -3.122660  -5.059272  3.316262
Sr    -0.929363  0.786403  5.392314
