34
Energy: -105399.514022 eV PBE+vdW (tier 2 basis)
C    -1.428131  2.209488  1.504600
C    -0.677221  1.558959  2.618310
O    -0.220044  2.242182  3.589273
H    -0.992494  3.200589  1.328918
H    -2.478847  2.371651  1.793082
H    -1.404739  1.626112  0.578403
N    -0.489465  0.220708  2.622310
C    -1.542566  -0.740305  2.299942
C    -2.648028  -0.601948  3.370720
O    -2.422472  0.071299  4.437654
H    0.177023  -0.108336  3.322437
H    -1.967515  -0.484175  1.318185
C    -0.947016  -2.161950  2.231197
C    0.035144  -2.338388  1.064137
C    -0.587870  -2.094970  -0.311215
C    0.380873  -2.334946  -1.477083
N    -0.242332  -1.925640  -2.733823
H    -1.768188  -2.884757  2.135290
H    -0.460024  -2.386928  3.195161
H    0.427877  -3.364220  1.123969
H    0.907031  -1.678348  1.201566
H    -0.943147  -1.054991  -0.416400
H    -1.473937  -2.741168  -0.439683
H    0.721064  -3.388165  -1.454395
H    1.277971  -1.715325  -1.327513
H    0.458454  -1.793173  -3.461777
H    -0.883839  -2.639633  -3.080128
N    -3.827275  -1.170716  3.189920
C    -4.321781  -1.934657  2.040308
H    -4.474415  -1.067422  3.972296
H    -3.730546  -1.725601  1.144856
H    -5.359714  -1.640660  1.850815
H    -4.291964  -3.010553  2.254286
Sr    -1.288185  1.722350  5.581859
