34
Energy: -105399.59741 eV PBE+vdW (tier 2 basis)
C    -0.447685  2.149808  -0.373222
C    -0.196006  1.477137  0.935850
O    0.800838  1.802135  1.656504
H    -1.000333  3.090504  -0.219734
H    -1.016334  1.524506  -1.068874
H    0.518587  2.415552  -0.817637
N    -1.044972  0.528585  1.387829
C    -2.500415  0.642234  1.307435
C    -2.915416  1.904001  2.110024
O    -2.082172  2.478353  2.891557
H    -0.706145  0.006178  2.197265
H    -2.796736  0.784580  0.257879
C    -3.133518  -0.661152  1.847647
C    -4.651723  -0.811228  1.703733
C    -5.209580  -0.676073  0.277127
C    -4.539616  -1.585813  -0.767403
N    -4.404148  -2.950320  -0.257556
H    -2.855776  -0.772631  2.909033
H    -2.652886  -1.486928  1.301635
H    -5.185319  -0.134378  2.389370
H    -4.879329  -1.822884  2.064325
H    -5.158381  0.364261  -0.101504
H    -6.285653  -0.901649  0.319311
H    -3.523422  -1.220398  -0.995286
H    -5.106252  -1.497786  -1.712188
H    -5.317902  -3.398844  -0.171238
H    -3.869078  -3.526401  -0.906960
N    -4.150315  2.339056  1.952043
C    -4.775382  3.461392  2.650965
H    -4.739707  1.811874  1.306882
H    -5.080853  4.224979  1.925470
H    -4.065460  3.889642  3.360980
H    -5.662292  3.107171  3.189797
Sr    0.083767  2.878171  3.579107
