34
Energy: -105400.675279 eV PBE+vdW (tier 2 basis)
C    0.303854  -0.166899  1.046345
C    -0.241003  -0.123911  2.434160
O    0.497886  -0.310993  3.440948
H    1.201805  0.455911  0.957544
H    -0.425206  0.101039  0.275951
H    0.623111  -1.205154  0.862044
N    -1.569294  0.097886  2.639101
C    -2.350819  1.150779  1.987686
C    -1.495592  2.431895  1.896091
O    -0.556835  2.621380  2.732330
H    -1.868671  -0.130760  3.583575
H    -2.655115  0.826003  0.983614
C    -3.632935  1.444533  2.815564
C    -3.446969  2.189855  4.155138
C    -2.984048  1.357492  5.367806
C    -2.494241  2.176601  6.559552
N    -1.209184  2.904355  6.258956
H    -4.155638  0.487293  2.964669
H    -4.295254  2.042251  2.175829
H    -4.417745  2.633252  4.417948
H    -2.776247  3.049100  3.996063
H    -2.175740  0.645085  5.117951
H    -3.811383  0.716448  5.705606
H    -2.296942  1.505621  7.404581
H    -3.267763  2.886754  6.887015
H    -1.449523  3.790682  5.801053
H    -0.817583  3.204355  7.158153
N    -1.768731  3.346949  0.976991
C    -2.807872  3.346311  -0.056312
H    -1.184822  4.182030  1.029819
H    -3.700269  3.883122  0.290074
H    -3.084995  2.326502  -0.337588
H    -2.414658  3.852379  -0.943765
Sr    0.569152  1.766957  4.623880
