34
Energy: -105399.502487 eV PBE+vdW (tier 2 basis)
C    -0.556195  3.231778  -0.695479
C    -0.147887  2.328211  0.421272
O    0.865587  2.597634  1.144212
H    -1.207738  4.037089  -0.319717
H    -1.088277  2.702823  -1.493032
H    0.342098  3.710034  -1.102425
N    -0.869168  1.222483  0.700010
C    -2.330605  1.187909  0.715271
C    -2.806639  2.211869  1.775860
O    -1.974300  2.677774  2.630417
H    -0.424572  0.570813  1.347488
H    -2.711602  1.489387  -0.271661
C    -2.834154  -0.236548  1.043001
C    -2.686680  -1.260912  -0.086636
C    -1.265870  -1.692618  -0.465200
C    -1.283300  -2.992471  -1.294736
N    -1.887741  -4.081410  -0.528510
H    -3.893876  -0.165645  1.322871
H    -2.314459  -0.584043  1.953727
H    -3.219913  -0.896322  -0.980491
H    -3.215333  -2.172000  0.235141
H    -0.676261  -1.881024  0.450998
H    -0.734230  -0.915952  -1.036561
H    -0.257602  -3.204302  -1.642345
H    -1.888227  -2.827532  -2.198549
H    -2.326257  -4.769984  -1.136492
H    -1.194490  -4.578947  0.028850
N    -4.069880  2.599070  1.811366
C    -5.181084  2.220557  0.933612
H    -4.300354  3.229458  2.580263
H    -4.815215  1.828136  -0.018636
H    -5.785620  3.112112  0.735570
H    -5.811984  1.464948  1.418867
Sr    0.186190  3.158257  3.286078
