34
Energy: -105398.54894 eV PBE+vdW (tier 2 basis)
C    0.106843  0.112222  0.061322
C    -0.038867  0.042547  1.544100
O    1.031731  -0.156349  2.265105
H    0.866577  0.862230  -0.195115
H    -0.826081  0.358599  -0.451949
H    0.465513  -0.857093  -0.312564
N    -1.184388  0.172562  2.157365
C    -2.547170  0.393559  1.646442
C    -3.234090  1.000901  2.904042
O    -2.779607  0.663897  4.009142
H    -1.253993  0.132435  3.199492
H    -2.520324  1.105417  0.811811
C    -3.149089  -0.963123  1.196535
C    -4.578002  -0.951318  0.630966
C    -5.697893  -1.128172  1.663538
C    -7.085381  -1.243649  1.015612
N    -7.181054  -2.418667  0.163099
H    -3.087919  -1.655974  2.050265
H    -2.465136  -1.357359  0.429597
H    -4.658880  -1.783274  -0.082696
H    -4.746846  -0.044546  0.028511
H    -5.723002  -0.304089  2.390580
H    -5.502623  -2.039091  2.253622
H    -7.280321  -0.359215  0.390250
H    -7.849430  -1.234183  1.816307
H    -7.235938  -3.295911  0.677832
H    -7.936924  -2.376862  -0.516047
N    -4.256074  1.860265  2.773589
C    -4.883953  2.411103  1.578621
H    -4.636125  2.159699  3.670339
H    -5.067682  3.480369  1.732719
H    -5.841422  1.917775  1.364116
H    -4.232648  2.303716  0.706690
Sr    2.802273  -0.456796  3.470072
