34
Energy: -105400.237015 eV PBE+vdW (tier 2 basis)
C    0.531710  0.256540  0.491856
C    0.001886  0.350331  1.884961
O    0.664360  0.955004  2.787900
H    0.625977  1.274884  0.087688
H    -0.104267  -0.332680  -0.176657
H    1.540887  -0.174593  0.506482
N    -1.184385  -0.202295  2.158640
C    -1.966029  -0.045440  3.400120
C    -1.430995  -0.993082  4.494960
O    -0.347990  -0.695102  5.098057
H    -1.666658  -0.659424  1.387445
H    -1.764645  0.969518  3.777796
C    -3.460098  -0.175057  3.085514
C    -4.024938  0.943649  2.195976
C    -3.934662  2.360059  2.787102
C    -4.450708  2.500579  4.227640
N    -5.719282  1.791435  4.409393
H    -4.029009  -0.164433  4.027899
H    -3.654335  -1.148240  2.599413
H    -5.078827  0.689687  2.026598
H    -3.553404  0.935248  1.200506
H    -4.511286  3.027119  2.128991
H    -2.902222  2.747159  2.743008
H    -4.485482  3.577072  4.476536
H    -3.727958  2.055981  4.936253
H    -6.050316  1.885381  5.369706
H    -6.448647  2.200655  3.822314
N    -2.117563  -2.081374  4.782977
C    -1.768311  -3.079551  5.792745
H    -2.988620  -2.220196  4.273462
H    -2.596857  -3.182545  6.503322
H    -0.867564  -2.761073  6.321057
H    -1.591535  -4.047832  5.308633
Sr    1.395576  0.770946  4.923082
