34
Energy: -105400.714906 eV PBE+vdW (tier 2 basis)
C    -0.966325  0.694477  0.201411
C    -0.225458  0.375148  1.461898
O    0.988946  0.008057  1.405223
H    -1.983225  1.063513  0.369599
H    -1.016894  -0.218481  -0.409372
H    -0.403916  1.435443  -0.380579
N    -0.887042  0.485195  2.621114
C    -0.505423  0.065751  3.987393
C    0.570802  0.951893  4.631282
O    1.701176  1.146499  4.060044
H    -1.847763  0.803580  2.532513
H    -1.421863  0.222773  4.568792
C    -0.147499  -1.430079  4.105815
C    -0.184673  -1.946906  5.553001
C    -1.586074  -1.978178  6.216866
C    -1.771621  -1.099281  7.456555
N    -1.911184  0.351318  7.137419
H    0.844101  -1.621954  3.667197
H    -0.864661  -1.993686  3.490855
H    0.514933  -1.369777  6.177719
H    0.223546  -2.965573  5.535244
H    -1.801581  -3.009295  6.525615
H    -2.374369  -1.741965  5.480996
H    -0.904009  -1.208154  8.122622
H    -2.647628  -1.455225  8.018941
H    -2.824705  0.508397  6.701417
H    -1.961231  0.873356  8.017127
N    0.288256  1.424165  5.820329
C    1.231041  2.205430  6.615031
H    -0.620755  1.077205  6.296585
H    2.121472  1.614209  6.867390
H    0.732693  2.510606  7.539494
H    1.546872  3.102083  6.068955
Sr    2.995455  0.488269  2.337924
