34
Energy: -105398.500736 eV PBE+vdW (tier 2 basis)
C    0.147593  1.082513  0.514621
C    -0.100491  -0.034975  1.475926
O    0.905314  -0.766979  1.869096
H    -0.771654  1.613218  0.248154
H    0.603446  0.687694  -0.403764
H    0.852073  1.800583  0.956971
N    -1.314009  -0.254267  1.900440
C    -1.829073  -1.283513  2.802887
C    -3.357584  -1.237585  2.486347
O    -3.776926  -0.275952  1.826311
H    -2.140599  0.275587  1.529068
H    -1.408325  -2.255844  2.506233
C    -1.503790  -1.007999  4.296884
C    -2.410592  -0.013982  5.031955
C    -2.336263  1.451194  4.589154
C    -3.343901  2.331412  5.344070
N    -4.712242  1.922363  5.061802
H    -0.452364  -0.680197  4.354793
H    -1.545860  -1.974492  4.818219
H    -2.152481  -0.071672  6.100897
H    -3.458842  -0.343235  4.968083
H    -2.543895  1.548685  3.511718
H    -1.323640  1.853478  4.753744
H    -3.152109  3.390924  5.088192
H    -3.179294  2.238434  6.427402
H    -5.390223  2.267854  5.736937
H    -5.023961  2.152868  4.119572
N    -4.152060  -2.218579  2.935989
C    -3.807089  -3.379478  3.747095
H    -5.136354  -2.074430  2.718982
H    -4.543043  -4.167227  3.558015
H    -3.816108  -3.146955  4.821193
H    -2.823838  -3.776877  3.469255
Sr    2.840433  -1.681607  2.195657
