34
Energy: -105399.361105 eV PBE+vdW (tier 2 basis)
C    0.008267  -0.656176  0.225698
C    -0.081088  -0.214934  1.648537
O    0.976431  0.073109  2.298441
H    1.012603  -0.439619  -0.150002
H    -0.741088  -0.157426  -0.401327
H    -0.165133  -1.740395  0.140788
N    -1.268894  -0.109493  2.290665
C    -2.356570  -1.099487  2.257212
C    -1.790653  -2.427867  2.841643
O    -0.618554  -2.472814  3.345052
H    -1.187304  0.382788  3.179437
H    -3.087417  -0.729231  2.994274
C    -3.103102  -1.247489  0.917837
C    -3.636779  0.085006  0.374269
C    -4.316168  -0.058095  -0.992919
C    -3.352149  -0.324444  -2.155489
N    -4.096981  -0.496875  -3.392817
H    -3.965986  -1.911954  1.085267
H    -2.472682  -1.760048  0.179546
H    -2.817122  0.818661  0.304904
H    -4.351452  0.502574  1.100153
H    -4.866924  0.871954  -1.198589
H    -5.073452  -0.856691  -0.969641
H    -2.795954  -1.262161  -1.983996
H    -2.594136  0.491892  -2.179178
H    -3.498086  -0.791115  -4.162383
H    -4.557741  0.366551  -3.680799
N    -2.567921  -3.493251  2.830805
C    -2.209680  -4.797135  3.397505
H    -3.483794  -3.402947  2.397874
H    -3.069227  -5.464215  3.295128
H    -1.959501  -4.694710  4.459750
H    -1.356530  -5.227300  2.859507
Sr    1.436096  -1.550275  3.874418
