34
Energy: -105400.024205 eV PBE+vdW (tier 2 basis)
C    1.115689  1.768881  1.763607
C    -0.001331  1.536734  2.727550
O    -0.612587  2.520349  3.255538
H    0.728360  2.346363  0.912278
H    1.564742  0.841949  1.392527
H    1.892019  2.382855  2.238697
N    -0.344913  0.276839  3.010275
C    -1.538305  -0.169318  3.753230
C    -1.349767  0.000068  5.278857
O    -1.467255  1.163793  5.785390
H    0.150705  -0.458734  2.502242
H    -2.350683  0.533073  3.505441
C    -1.948163  -1.563763  3.250845
C    -0.912703  -2.713756  3.395095
C    -0.721040  -3.535292  2.110815
C    0.185813  -2.848258  1.083183
N    0.249235  -3.617497  -0.140740
H    -2.203296  -1.435944  2.188868
H    -2.893169  -1.833746  3.741818
H    -1.236297  -3.400637  4.193336
H    0.077800  -2.332956  3.707232
H    -1.705036  -3.748525  1.663374
H    -0.281745  -4.511386  2.353544
H    1.205627  -2.792290  1.498221
H    -0.153156  -1.786012  0.937895
H    1.009577  -3.331009  -0.753219
H    -0.618703  -3.591609  -0.673598
N    -1.105794  -1.060542  6.023407
C    -0.940015  -1.064269  7.476601
H    -1.015441  -1.953456  5.539935
H    -1.521147  -1.891001  7.899445
H    -1.296464  -0.116987  7.886642
H    0.117754  -1.203546  7.734189
Sr    -1.501310  3.359627  5.157479
