34
Energy: -105400.043713 eV PBE+vdW (tier 2 basis)
C    -0.200425  0.070311  -0.114580
C    -0.116761  0.107330  1.375699
O    0.874056  0.657657  1.953466
H    0.714154  -0.375985  -0.525692
H    -0.245551  1.104448  -0.485839
H    -1.071341  -0.478174  -0.487672
N    -1.109713  -0.437164  2.087874
C    -1.299777  -0.332516  3.545561
C    -0.377720  -1.326626  4.286652
O    0.845871  -1.010685  4.456626
H    -1.875816  -0.861506  1.568766
H    -0.915235  0.656727  3.839651
C    -2.803738  -0.354101  3.882705
C    -3.650696  -1.562172  3.429282
C    -5.140292  -1.214445  3.281040
C    -5.840147  -0.835211  4.592204
N    -7.231648  -0.502761  4.322279
H    -3.222822  0.553011  3.420158
H    -2.901151  -0.199891  4.966424
H    -3.578010  -2.398648  4.149390
H    -3.296803  -1.968787  2.465853
H    -5.654364  -2.082009  2.840697
H    -5.262043  -0.388958  2.562465
H    -5.371110  0.061789  5.026633
H    -5.689050  -1.654943  5.328350
H    -7.782167  -1.331690  4.097662
H    -7.674246  -0.059240  5.125353
N    -0.875277  -2.462430  4.733070
C    -0.138094  -3.492936  5.463553
H    -1.865141  -2.630484  4.551168
H    -0.722328  -3.797424  6.338887
H    0.825202  -3.092330  5.786265
H    0.021801  -4.367362  4.819900
Sr    2.386407  0.463142  3.629366
