34
Energy: -105400.061795 eV PBE+vdW (tier 2 basis)
C    1.166199  2.763765  2.142803
C    0.118284  2.215488  3.054426
O    -0.563223  2.992795  3.796010
H    0.677993  3.422928  1.410239
H    1.723471  1.989343  1.605928
H    1.866455  3.386376  2.714131
N    -0.095691  0.895232  3.062655
C    -1.197037  0.186830  3.734270
C    -0.895849  0.006523  5.240059
O    -1.031321  1.011417  6.012467
H    0.481441  0.324699  2.447508
H    -2.064143  0.866371  3.719966
C    -1.582770  -1.075789  2.935075
C    -0.468692  -2.039099  2.491073
C    -1.039525  -3.231618  1.714065
C    0.035920  -4.213006  1.232142
N    -0.575007  -5.258319  0.422418
H    -2.108645  -0.726275  2.034406
H    -2.343314  -1.618106  3.517298
H    0.135531  -2.419248  3.335589
H    0.256473  -1.524355  1.834646
H    -1.600415  -2.874946  0.837205
H    -1.766623  -3.766295  2.347730
H    0.611946  -4.582169  2.107387
H    0.754066  -3.673536  0.595191
H    -1.051474  -5.955175  0.994420
H    0.118829  -5.753384  -0.134911
N    -0.536862  -1.178914  5.691686
C    -0.247984  -1.517625  7.084711
H    -0.450166  -1.923213  5.000957
H    -0.834401  -2.398327  7.370460
H    -0.513589  -0.674890  7.726018
H    0.818985  -1.746924  7.198466
Sr    -1.343863  3.275449  5.903508
