34
Energy: -105400.126945 eV PBE+vdW (tier 2 basis)
C    0.539796  1.077103  0.048652
C    0.182398  1.399238  1.461016
O    0.039834  2.606885  1.835284
H    -0.252825  1.458648  -0.610632
H    0.667896  0.005127  -0.132277
H    1.463357  1.604249  -0.224618
N    0.003052  0.397726  2.330980
C    -0.510377  0.562899  3.700994
C    0.566978  1.196948  4.611332
O    0.490383  2.455466  4.825150
H    0.069958  -0.554165  1.976890
H    -1.290180  1.339708  3.655061
C    -1.186541  -0.723074  4.183572
C    -1.765952  -0.613209  5.600978
C    -2.628265  -1.821991  6.002755
C    -4.012469  -1.885900  5.347876
N    -3.936572  -2.086704  3.886275
H    -0.497854  -1.578274  4.120755
H    -2.023023  -0.943710  3.497592
H    -2.382611  0.299786  5.672440
H    -0.955831  -0.490017  6.338941
H    -2.773800  -1.794433  7.091999
H    -2.077564  -2.756450  5.801050
H    -4.536947  -0.934461  5.525342
H    -4.602845  -2.664558  5.860645
H    -3.709984  -3.063253  3.685217
H    -4.856204  -1.933969  3.470279
N    1.555934  0.511904  5.162259
C    1.899028  -0.909576  5.060511
H    2.157607  1.075870  5.763225
H    2.951328  -1.018348  5.339056
H    1.779551  -1.271749  4.035589
H    1.290877  -1.512849  5.745584
Sr    0.051108  4.219290  3.437843
