34
Energy: -105398.405432 eV PBE+vdW (tier 2 basis)
C    -1.017406  0.232291  0.458314
C    -0.138416  0.040579  1.645974
O    1.073375  0.517883  1.570008
H    -1.962229  -0.303612  0.515801
H    -0.487785  -0.121655  -0.433967
H    -1.208963  1.310894  0.344180
N    -0.507503  -0.472215  2.809478
C    -1.638491  -1.365101  3.123753
C    -1.444068  -2.651830  2.256368
O    -0.919461  -2.570695  1.145368
H    0.229702  -0.454740  3.512211
H    -1.487680  -1.626730  4.180817
C    -3.021587  -0.674268  3.028238
C    -4.207399  -1.555021  3.460753
C    -4.817334  -2.392038  2.327405
C    -5.728426  -3.510868  2.836802
N    -6.139100  -4.384549  1.749769
H    -3.207472  -0.305420  2.011916
H    -2.961292  0.212749  3.674624
H    -4.980116  -0.898566  3.883994
H    -3.905810  -2.205167  4.300788
H    -4.037209  -2.849520  1.702492
H    -5.387582  -1.726846  1.658896
H    -6.582441  -3.068685  3.388936
H    -5.181790  -4.127510  3.569088
H    -6.683097  -3.912462  1.028731
H    -6.647333  -5.209581  2.062198
N    -1.871859  -3.792612  2.828708
C    -1.949903  -5.064534  2.115041
H    -2.306848  -3.740239  3.743599
H    -2.972852  -5.246409  1.754076
H    -1.650195  -5.879123  2.782908
H    -1.271347  -5.025771  1.258603
Sr    3.014429  1.181640  0.866985
