34
Energy: -105400.654235 eV PBE+vdW (tier 2 basis)
C    0.219342  0.442386  1.175559
C    -0.924600  0.002073  2.025281
O    -0.744747  -0.521653  3.160186
H    0.949893  -0.377908  1.148146
H    0.730804  1.296667  1.641739
H    -0.068681  0.700398  0.152364
N    -2.204958  0.167757  1.592194
C    -2.722186  1.352492  0.910845
C    -2.266020  2.608235  1.690673
O    -1.960337  2.501049  2.919791
H    -2.894100  -0.342179  2.142859
H    -2.345123  1.390461  -0.119974
C    -4.270393  1.290045  0.881021
C    -4.948212  1.216362  2.268093
C    -5.276605  -0.195122  2.803765
C    -5.401094  -0.274772  4.325842
N    -4.067689  -0.469080  5.010741
H    -4.561883  0.431944  0.257804
H    -4.623404  2.179221  0.343986
H    -5.892523  1.773876  2.216925
H    -4.347938  1.777959  3.003772
H    -4.563844  -0.968516  2.463699
H    -6.229344  -0.521933  2.364905
H    -6.069930  -1.099956  4.605319
H    -5.846286  0.647291  4.723349
H    -3.780936  -1.436363  4.810916
H    -4.270502  -0.496025  6.017976
N    -2.229772  3.789429  1.091407
C    -2.553454  4.141649  -0.293060
H    -1.970122  4.562401  1.705192
H    -2.462361  3.275052  -0.953381
H    -1.849182  4.908601  -0.631792
H    -3.572612  4.543507  -0.361109
Sr    -1.841616  0.939212  4.691613
