34
Energy: -105400.087548 eV PBE+vdW (tier 2 basis)
C    -0.360936  0.601630  0.011266
C    -0.316663  0.406227  1.489434
O    0.724269  0.710367  2.155002
H    0.477101  0.067784  -0.455738
H    -0.219820  1.670345  -0.204516
H    -1.300741  0.269573  -0.441227
N    -1.395166  -0.086290  2.110304
C    -1.560081  -0.158776  3.571206
C    -0.705189  -1.299318  4.165689
O    0.438012  -0.984319  4.644553
H    -2.226371  -0.251240  1.545925
H    -1.092835  0.749286  3.984600
C    -3.048002  -0.111723  3.949532
C    -3.657283  1.265979  3.670301
C    -5.170703  1.322267  3.899650
C    -5.793982  2.558009  3.236133
N    -5.595002  2.510529  1.778782
H    -3.607563  -0.879147  3.394492
H    -3.143334  -0.372031  5.014744
H    -3.486811  1.556968  2.619949
H    -3.156261  2.022945  4.296508
H    -5.404829  1.317056  4.974461
H    -5.643566  0.420653  3.474300
H    -5.301491  3.464974  3.617727
H    -6.852659  2.628982  3.536753
H    -6.315478  1.933004  1.342948
H    -5.703539  3.440083  1.374439
N    -1.089746  -2.564672  4.202711
C    -2.305041  -3.208893  3.693810
H    -0.421252  -3.179150  4.668731
H    -2.597333  -2.789534  2.727075
H    -3.130784  -3.116050  4.409155
H    -2.082824  -4.270589  3.550984
Sr    2.089571  0.440877  3.950225
