34
Energy: -105398.989036 eV PBE+vdW (tier 2 basis)
C    -0.573859  1.257228  0.979476
C    -0.239775  0.924814  2.393771
O    0.808079  1.493790  2.889410
H    0.300972  1.041414  0.351418
H    -0.765814  2.334918  0.894250
H    -1.437830  0.699376  0.608889
N    -1.022503  0.094202  3.063172
C    -0.793394  -0.630820  4.322903
C    -0.308873  0.174188  5.518137
O    -0.720781  -0.233863  6.706228
H    -1.819195  -0.386830  2.518105
H    -1.788064  -1.007111  4.602096
C    0.141710  -1.853088  4.106247
C    -0.222634  -2.737842  2.905444
C    -1.639884  -3.360885  2.894509
C    -2.551339  -2.879149  1.762444
N    -3.016031  -1.474564  1.947297
H    0.122353  -2.448560  5.032212
H    1.171817  -1.486284  3.982449
H    0.527226  -3.539401  2.877006
H    -0.062284  -2.169320  1.977139
H    -2.148888  -3.212756  3.862787
H    -1.550908  -4.450372  2.790260
H    -3.406746  -3.564332  1.663217
H    -2.001613  -2.920415  0.811912
H    -3.786089  -1.464008  2.621496
H    -3.433642  -1.142670  1.074635
N    0.518023  1.155796  5.367970
C    1.000167  1.854810  6.535770
H    0.819982  1.388389  3.965569
H    1.673414  2.668551  6.245250
H    1.594455  1.188209  7.199396
H    0.171524  2.330728  7.105021
Sr    -0.593428  0.065075  8.828712
