34
Energy: -105398.540427 eV PBE+vdW (tier 2 basis)
C    -0.069285  0.665313  0.021264
C    0.011799  0.143823  1.415152
O    1.194489  -0.116466  1.890550
H    -1.088592  0.806203  -0.335833
H    0.446760  -0.021554  -0.658628
H    0.448517  1.636754  -0.004447
N    -1.013797  0.097215  2.260278
C    -2.404573  -0.209390  1.899835
C    -2.341025  -1.555571  1.098305
O    -1.270983  -1.912713  0.591841
H    -0.748450  -0.189948  3.200884
H    -2.906673  -0.381598  2.862340
C    -3.173930  0.923491  1.173011
C    -4.668007  0.959406  1.515327
C    -5.386466  2.159869  0.889139
C    -6.863623  2.251046  1.294088
N    -7.014564  2.449653  2.729925
H    -3.051961  0.836642  0.083784
H    -2.717446  1.878156  1.474117
H    -4.803706  0.995794  2.607654
H    -5.165863  0.039739  1.164157
H    -5.327478  2.111345  -0.208944
H    -4.873943  3.090774  1.184510
H    -7.381837  1.318776  1.025278
H    -7.339739  3.053569  0.699908
H    -6.764663  3.389055  3.035781
H    -7.945922  2.227133  3.074003
N    -3.495963  -2.230937  1.010751
C    -3.657585  -3.472473  0.258006
H    -4.309827  -1.859209  1.489676
H    -3.906482  -4.300281  0.933414
H    -2.717247  -3.692637  -0.253485
H    -4.457244  -3.362307  -0.484078
Sr    3.173489  -0.986341  2.038488
