34
Energy: -105400.191321 eV PBE+vdW (tier 2 basis)
C    1.782789  3.185106  3.038272
C    1.241820  2.243718  4.063027
O    1.468640  2.435475  5.300842
H    1.344923  4.178314  3.215239
H    1.563305  2.878866  2.010451
H    2.868189  3.288470  3.163550
N    0.502094  1.209255  3.652560
C    -0.286849  0.303261  4.507332
C    0.640681  -0.756235  5.145453
O    1.330153  -0.439463  6.168974
H    0.320549  1.141938  2.653022
H    -0.663446  0.901835  5.352851
C    -1.487826  -0.259113  3.731773
C    -2.588574  0.751060  3.373984
C    -2.275598  1.790851  2.289487
C    -3.569545  2.361277  1.674079
N    -4.349152  1.294399  1.049120
H    -1.935682  -1.046043  4.357305
H    -1.137893  -0.751047  2.804909
H    -2.935786  1.253719  4.291457
H    -3.443518  0.166973  2.999908
H    -1.694052  1.321138  1.473325
H    -1.675977  2.630150  2.677322
H    -3.304188  3.186079  0.990169
H    -4.174694  2.807732  2.477022
H    -5.343027  1.514442  1.038841
H    -4.071421  1.145227  0.079673
N    0.690683  -1.961989  4.612253
C    1.505938  -3.080183  5.086042
H    0.084434  -2.136232  3.812811
H    0.860091  -3.946401  5.271035
H    2.010218  -2.794114  6.011123
H    2.249481  -3.345508  4.324386
Sr    2.033202  1.445525  7.256433
