34
Energy: -105398.548449 eV PBE+vdW (tier 2 basis)
C    -0.743067  -2.107303  0.775427
C    -0.248058  -0.862066  1.430995
O    0.976807  -0.841185  1.880874
H    -1.756479  -2.011389  0.377631
H    -0.729588  -2.929233  1.504894
H    -0.062613  -2.384807  -0.040487
N    -0.981670  0.208863  1.575628
C    -2.365317  0.503590  1.175131
C    -2.344718  2.062239  1.163963
O    -1.518406  2.614158  1.909525
H    -0.607783  1.074746  2.029113
H    -2.563418  0.083427  0.180744
C    -3.352283  -0.056915  2.228525
C    -4.838695  0.109249  1.891025
C    -5.766760  -0.609590  2.881398
C    -5.851634  0.045383  4.264709
N    -6.738857  -0.704529  5.131344
H    -3.113052  0.418349  3.191523
H    -3.133505  -1.130482  2.346087
H    -5.029714  -0.292993  0.884416
H    -5.102909  1.177114  1.858598
H    -5.460143  -1.660330  3.000981
H    -6.776695  -0.636079  2.444120
H    -6.161326  1.105001  4.140005
H    -4.863167  0.069498  4.749126
H    -7.696262  -0.778877  4.792367
H    -6.734118  -0.405631  6.103281
N    -3.196890  2.750789  0.391908
C    -4.139882  2.292974  -0.622891
H    -3.112157  3.759064  0.513897
H    -5.177080  2.425077  -0.289910
H    -3.989097  2.870770  -1.542396
H    -3.982791  1.236696  -0.856352
Sr    3.026099  -0.777471  2.578065
