34
Energy: -105398.673671 eV PBE+vdW (tier 2 basis)
C    -0.351296  -0.056586  -0.279642
C    -0.104501  0.385850  1.123237
O    1.130967  0.520204  1.524705
H    0.221177  0.578173  -0.968300
H    -1.407384  -0.027240  -0.559992
H    0.013719  -1.086108  -0.403768
N    -1.064225  0.645777  1.969694
C    -2.525938  0.601387  1.832439
C    -2.965071  1.529946  3.003398
O    -2.176091  1.686699  3.946899
H    -0.862238  0.984649  2.939666
H    -2.826349  1.030298  0.865696
C    -3.037641  -0.853904  1.965312
C    -4.562133  -1.047259  1.861093
C    -5.298821  -1.130727  3.203762
C    -6.796541  -1.427506  3.043322
N    -7.020083  -2.718160  2.409439
H    -2.668573  -1.258993  2.920091
H    -2.541430  -1.432740  1.172295
H    -4.756528  -1.982037  1.317963
H    -5.009096  -0.260542  1.227759
H    -5.187657  -0.205063  3.787026
H    -4.840537  -1.926809  3.813819
H    -7.264742  -0.657748  2.411397
H    -7.278149  -1.350216  4.036854
H    -6.822891  -3.512260  3.016210
H    -7.947451  -2.824497  2.005550
N    -4.170002  2.103644  2.903532
C    -4.755445  2.939447  3.948550
H    -4.733865  1.898835  2.085107
H    -5.157598  3.857809  3.506779
H    -3.974021  3.191571  4.670127
H    -5.563184  2.405403  4.466532
Sr    3.175407  0.782579  2.176862
