34
Energy: -105399.500885 eV PBE+vdW (tier 2 basis)
C    -1.486175  1.941416  -0.820264
C    -0.813926  1.264383  0.328566
O    0.191931  1.793311  0.899447
H    -0.726080  2.489009  -1.389771
H    -2.211867  2.685979  -0.456101
H    -2.008661  1.241407  -1.480125
N    -1.278560  0.082985  0.792027
C    -2.697281  -0.202467  0.987682
C    -3.193943  0.705592  2.152097
O    -2.386475  1.476477  2.767965
H    -0.660086  -0.375322  1.463279
H    -3.243575  0.088905  0.077254
C    -2.917938  -1.703809  1.253060
C    -2.518025  -2.595949  0.073458
C    -2.730091  -4.081442  0.380073
C    -2.329494  -4.997232  -0.784071
N    -2.476080  -6.393391  -0.398710
H    -3.979717  -1.869438  1.489939
H    -2.363944  -1.991470  2.163497
H    -1.460925  -2.422457  -0.185747
H    -3.103271  -2.305338  -0.815014
H    -3.788588  -4.259677  0.633215
H    -2.146321  -4.377696  1.265239
H    -1.270253  -4.826891  -1.029665
H    -2.909507  -4.714060  -1.686197
H    -1.969470  -7.020866  -1.019800
H    -3.449582  -6.694406  -0.376317
N    -4.472328  0.654115  2.476711
C    -5.093720  1.434430  3.551474
H    -5.068757  0.016597  1.955137
H    -6.160402  1.198082  3.575921
H    -4.968999  2.507542  3.365299
H    -4.646607  1.175922  4.518581
Sr    -0.325624  2.509178  3.043969
