34
Energy: -105398.564485 eV PBE+vdW (tier 2 basis)
C    0.311234  -1.175094  0.371644
C    -0.167551  -0.030349  1.205426
O    0.473203  1.107635  1.143944
H    0.284341  -0.895432  -0.690734
H    -0.298261  -2.073338  0.511140
H    1.351913  -1.414335  0.630830
N    -1.205468  -0.189878  1.975846
C    -1.877545  0.733898  2.890684
C    -2.596047  -0.268481  3.849852
O    -2.788165  -1.417486  3.433011
H    -1.683386  -1.119220  2.077947
H    -1.131041  1.338264  3.428852
C    -2.874561  1.627036  2.113622
C    -3.564595  2.706560  2.955491
C    -4.545854  3.588686  2.162712
C    -5.891821  2.931350  1.828586
N    -5.770212  1.851084  0.846290
H    -3.633694  0.990337  1.636307
H    -2.319749  2.111346  1.292408
H    -2.801866  3.353119  3.423603
H    -4.122814  2.239126  3.781093
H    -4.070446  3.949006  1.234118
H    -4.758162  4.488479  2.757911
H    -6.589794  3.722882  1.499122
H    -6.323301  2.504238  2.745763
H    -6.588836  1.244281  0.842911
H    -5.649105  2.209421  -0.101020
N    -2.961026  0.184150  5.056352
C    -3.687749  -0.626498  6.032641
H    -2.749130  1.145909  5.298555
H    -3.169187  -0.602277  6.997749
H    -3.727169  -1.655316  5.665494
H    -4.710363  -0.250372  6.161969
Sr    1.873619  2.692310  0.726261
