34
Energy: -105399.943749 eV PBE+vdW (tier 2 basis)
C    -0.332560  -1.306955  -0.137042
C    -0.380550  -0.769563  1.253953
O    0.655653  -0.267216  1.792910
H    -0.058992  -0.489815  -0.819883
H    -1.280558  -1.743787  -0.467045
H    0.460580  -2.062620  -0.210955
N    -1.538695  -0.813484  1.927322
C    -1.772552  -0.177680  3.234481
C    -1.085983  -0.991239  4.358060
O    0.071254  -0.600985  4.734876
H    -2.350681  -1.191652  1.443982
H    -1.210094  0.768701  3.229577
C    -3.254966  0.171646  3.416454
C    -3.562798  0.857446  4.752471
C    -5.063339  1.096863  4.941830
C    -5.402140  1.804340  6.258657
N    -6.848510  1.862688  6.435212
H    -3.883225  -0.722418  3.296385
H    -3.524022  0.845152  2.588065
H    -3.018372  1.814934  4.806798
H    -3.188078  0.247449  5.592991
H    -5.607305  0.139305  4.918934
H    -5.450851  1.691103  4.097819
H    -4.892923  2.790152  6.282007
H    -4.988112  1.221710  7.096826
H    -7.096042  2.115286  7.390605
H    -7.275261  2.560112  5.825135
N    -1.615089  -2.067027  4.917526
C    -2.893989  -2.741515  4.671304
H    -1.035607  -2.466016  5.656777
H    -2.819632  -3.752661  5.081765
H    -3.097025  -2.824751  3.599691
H    -3.719304  -2.220290  5.172026
Sr    1.911329  0.198944  3.632942
