34
Energy: -105400.105376 eV PBE+vdW (tier 2 basis)
C    -0.458218  -0.249083  -0.463200
C    -0.434388  -0.302759  1.028589
O    0.663133  -0.454550  1.653010
H    0.128281  0.622462  -0.788582
H    -1.467618  -0.172474  -0.880063
H    0.038207  -1.137924  -0.873344
N    -1.587910  -0.173298  1.695458
C    -1.740122  -0.011586  3.154429
C    -1.614996  -1.385118  3.854241
O    -0.453227  -1.864003  4.065190
H    -2.431236  -0.045434  1.139766
H    -0.873217  0.570265  3.506612
C    -3.019238  0.773819  3.456796
C    -3.148904  1.213000  4.925582
C    -4.564887  1.683552  5.281654
C    -5.587317  0.546575  5.399538
N    -6.912699  1.087621  5.653284
H    -3.903040  0.193051  3.136743
H    -3.019622  1.667860  2.815263
H    -2.429519  2.024104  5.111050
H    -2.863061  0.392181  5.605547
H    -4.928260  2.414458  4.543607
H    -4.520914  2.218593  6.241741
H    -5.222014  -0.178979  6.162625
H    -5.651942  -0.007746  4.444909
H    -7.633314  0.368409  5.620881
H    -6.969510  1.531172  6.570222
N    -2.713422  -2.024224  4.205621
C    -2.777035  -3.320621  4.878645
H    -3.598069  -1.546440  4.040982
H    -3.380084  -3.223604  5.788987
H    -1.767392  -3.644507  5.138993
H    -3.245323  -4.060402  4.217621
Sr    1.697108  -1.544034  3.350359
