34
Energy: -105401.404165 eV PBE+vdW (tier 2 basis)
C    -0.041716  1.148780  0.926525
C    -0.360153  -0.090194  1.702416
O    0.560101  -0.879329  2.053806
H    -0.917003  1.767128  0.702815
H    0.440840  0.857842  -0.016787
H    0.688772  1.746505  1.487319
N    -1.655247  -0.324220  1.998612
C    -2.237256  -1.509422  2.664989
C    -1.877829  -1.513846  4.166236
O    -0.727578  -1.857541  4.559630
H    -2.316379  0.375515  1.674780
H    -3.323914  -1.370801  2.587226
C    -1.868589  -2.818026  1.930334
C    -2.111070  -4.116507  2.707429
C    -1.522842  -5.355487  2.010906
C    -0.027662  -5.325986  1.689704
N    0.839982  -5.059658  2.896995
H    -0.820067  -2.753538  1.608177
H    -2.438224  -2.831140  0.990047
H    -3.189880  -4.278268  2.843889
H    -1.699484  -4.038695  3.726173
H    -2.047106  -5.532522  1.059936
H    -1.738826  -6.238842  2.631419
H    0.206817  -4.559115  0.936243
H    0.246981  -6.290135  1.240606
H    1.747514  -5.501713  2.711571
H    0.464521  -5.616746  3.673832
N    -2.834311  -1.149470  5.011377
C    -2.693953  -1.074892  6.465276
H    -3.737049  -0.890234  4.622353
H    -3.502477  -1.643118  6.939012
H    -2.750677  -0.029550  6.793401
H    -1.728467  -1.496299  6.753166
Sr    1.262407  -2.526162  3.542768
