34
Energy: -105401.099481 eV PBE+vdW (tier 2 basis)
C    0.296300  1.221941  -0.294108
C    -0.635335  1.568916  0.819318
O    -1.033782  2.755595  0.994743
H    -0.154053  1.533607  -1.246235
H    0.540043  0.155718  -0.342238
H    1.224058  1.798709  -0.178358
N    -1.059231  0.585056  1.638113
C    -2.012754  0.815092  2.722973
C    -1.327337  1.409440  3.970714
O    -1.381292  2.666969  4.116305
H    -0.733493  -0.362199  1.463079
H    -2.630930  1.650890  2.380293
C    -2.989198  -0.350535  2.942476
C    -4.235938  -0.216856  2.044454
C    -4.945065  1.151420  2.198234
C    -4.629840  2.176951  1.090163
N    -4.489525  3.578005  1.632746
H    -3.315193  -0.337000  3.992901
H    -2.495000  -1.322129  2.786468
H    -4.927284  -1.025285  2.311048
H    -3.972345  -0.389851  0.989910
H    -4.687761  1.583329  3.182035
H    -6.030801  0.998047  2.233693
H    -5.416852  2.149792  0.324349
H    -3.692241  1.932740  0.571359
H    -4.726887  4.224399  0.870867
H    -5.246630  3.725649  2.309611
N    -0.718409  0.605637  4.828491
C    -0.020866  1.033038  6.042906
H    -0.754371  -0.394189  4.644272
H    -0.112728  2.116671  6.142718
H    1.038171  0.755578  5.979714
H    -0.468938  0.543533  6.915509
Sr    -2.042495  4.252322  2.477474
