34
Energy: -105399.990586 eV PBE+vdW (tier 2 basis)
C    -1.892097  -2.834864  1.184934
C    -1.559327  -1.686658  2.075655
O    -0.742166  -0.785759  1.703709
H    -0.975992  -3.253330  0.751879
H    -2.502374  -2.453214  0.351392
H    -2.455500  -3.624680  1.692419
N    -2.163969  -1.598322  3.267563
C    -2.126193  -0.409695  4.134440
C    -0.768571  -0.326315  4.867368
O    0.133618  0.411890  4.343364
H    -2.859229  -2.306736  3.491290
H    -2.104512  0.465025  3.465170
C    -3.397867  -0.292385  4.997108
C    -4.577628  0.372888  4.269107
C    -5.069224  -0.343655  3.008649
C    -6.316462  0.295048  2.385285
N    -6.632445  -0.368573  1.119499
H    -3.151931  0.300374  5.890210
H    -3.694649  -1.287230  5.364460
H    -4.305705  1.413299  4.024454
H    -5.401043  0.448031  4.994889
H    -5.292519  -1.401081  3.240718
H    -4.299346  -0.350580  2.219979
H    -6.105029  1.353293  2.169932
H    -7.140394  0.285780  3.123684
H    -7.149565  -1.234090  1.278182
H    -7.235781  0.218166  0.544378
N    -0.499047  -0.980691  5.984990
C    -1.318709  -1.919326  6.757616
H    0.431105  -0.787368  6.358098
H    -0.641545  -2.565662  7.324053
H    -1.920165  -2.550982  6.098416
H    -1.969748  -1.388468  7.462550
Sr    0.797485  0.812897  2.185859
