34
Energy: -105399.463336 eV PBE+vdW (tier 2 basis)
C    -0.751298  0.076258  -0.004766
C    -0.838957  -0.378070  1.413853
O    0.165529  -0.894771  1.997496
H    -0.148050  0.994014  -0.078189
H    -1.728883  0.249958  -0.463400
H    -0.213052  -0.694100  -0.573077
N    -1.988099  -0.223754  2.108635
C    -2.796103  1.002743  2.093038
C    -1.846811  2.176225  2.416767
O    -0.787916  1.942747  3.103712
H    -2.016140  -0.724863  2.997912
H    -3.262065  1.131853  1.107716
C    -3.884491  0.856289  3.187415
C    -5.101721  1.779842  3.104414
C    -6.006589  1.574064  1.877394
C    -6.353012  0.110679  1.561040
N    -6.708865  -0.628195  2.776598
H    -3.399503  0.970863  4.170948
H    -4.260840  -0.178356  3.132732
H    -4.814352  2.837898  3.195547
H    -5.685714  1.563439  4.008771
H    -5.574255  2.023642  0.967836
H    -6.933876  2.139264  2.054791
H    -5.480057  -0.396869  1.115182
H    -7.131029  0.104583  0.776974
H    -7.566189  -0.254211  3.188001
H    -6.910525  -1.603340  2.554688
N    -2.105604  3.413442  2.031845
C    -3.171276  3.936818  1.174477
H    -1.438774  4.104604  2.379016
H    -2.717942  4.545307  0.383365
H    -3.852147  4.564992  1.760719
H    -3.741947  3.125526  0.719534
Sr    0.921220  0.512692  3.685278
