34
Energy: -105400.255483 eV PBE+vdW (tier 2 basis)
C    -0.435860  0.359032  -0.249556
C    -0.674596  -0.024991  1.177843
O    0.098583  -0.846560  1.745623
H    -0.468727  -0.548821  -0.867390
H    0.577094  0.772334  -0.344564
H    -1.156712  1.083745  -0.641313
N    -1.726882  0.537455  1.798155
C    -2.297484  0.365943  3.159896
C    -1.307012  0.737723  4.277871
O    -0.250773  0.079094  4.499892
H    -2.259387  1.176079  1.214185
H    -3.074702  1.141564  3.185874
C    -3.089231  -0.952940  3.370402
C    -2.396986  -2.329531  3.362298
C    -1.864049  -2.824799  4.716513
C    -1.070642  -4.138176  4.642869
N    -1.843729  -5.237223  4.162704
H    -3.849909  -0.946057  2.576718
H    -3.651827  -0.834625  4.309933
H    -1.623096  -2.364157  2.575295
H    -3.152380  -3.053894  3.026062
H    -2.711484  -2.988395  5.398393
H    -1.251668  -2.054591  5.225616
H    -0.695917  -4.388387  5.644660
H    -0.115334  -3.958917  4.019420
H    -1.463604  -6.150678  4.396202
H    -2.092109  -5.212263  3.177396
N    -1.644216  1.776181  5.033841
C    -0.877271  2.265155  6.179561
H    -2.490789  2.285931  4.796209
H    -0.264571  3.127727  5.887239
H    -0.228722  1.467196  6.548956
H    -1.572262  2.570653  6.968470
Sr    0.985254  -1.688804  3.674726
