34
Energy: -105398.656367 eV PBE+vdW (tier 2 basis)
C    0.263754  -0.348401  0.274191
C    0.413038  0.537774  1.464526
O    1.263834  1.527681  1.399753
H    0.078565  0.265256  -0.616992
H    -0.543318  -1.077845  0.380170
H    1.204785  -0.891685  0.107352
N    -0.264933  0.373028  2.567751
C    -1.292876  -0.606447  2.942627
C    -2.001746  0.138247  4.113711
O    -1.366121  1.024175  4.705601
H    -0.166815  1.030635  3.377922
H    -1.987868  -0.760723  2.104756
C    -0.647016  -1.948633  3.364609
C    -1.641210  -3.064873  3.740936
C    -1.906899  -3.237458  5.245890
C    -0.770845  -3.952791  5.991365
N    -0.547891  -5.288705  5.459722
H    0.047499  -1.748926  4.195060
H    -0.025458  -2.280381  2.520152
H    -1.241329  -4.019056  3.369849
H    -2.589759  -2.922014  3.197893
H    -2.831295  -3.821602  5.376587
H    -2.088551  -2.271553  5.739817
H    -1.010539  -3.950545  7.071998
H    0.171133  -3.391165  5.889831
H    -1.323726  -5.927499  5.629925
H    0.314239  -5.719343  5.785896
N    -3.255789  -0.229646  4.397679
C    -4.022790  0.311236  5.516915
H    -3.672363  -0.978710  3.854377
H    -3.508369  1.198484  5.894943
H    -4.104246  -0.428926  6.323973
H    -5.027933  0.585553  5.178394
Sr    2.622913  3.200481  1.266119
