34
Energy: -105399.81569 eV PBE+vdW (tier 2 basis)
C    -0.068503  1.553910  1.803356
C    -0.465776  0.589348  2.870985
O    0.020853  0.677066  4.044419
H    -0.577014  2.519319  1.950329
H    -0.291276  1.189204  0.796458
H    1.007347  1.746800  1.900154
N    -1.368570  -0.377866  2.609472
C    -2.594792  -0.143045  1.847479
C    -3.438544  0.879102  2.639511
O    -3.130860  1.155660  3.855853
H    -1.452492  -1.080441  3.345835
H    -2.360016  0.258719  0.844948
C    -3.352997  -1.467843  1.628934
C    -2.501905  -2.585098  1.002378
C    -1.765348  -2.277206  -0.311234
C    -2.619876  -1.740433  -1.465454
N    -2.762189  -0.261828  -1.406206
H    -4.215321  -1.249460  0.987030
H    -3.768281  -1.818403  2.588302
H    -3.183378  -3.433789  0.839920
H    -1.765304  -2.949642  1.735943
H    -1.291059  -3.214584  -0.633687
H    -0.925300  -1.582971  -0.135167
H    -3.628098  -2.178630  -1.425608
H    -2.180212  -2.066774  -2.420708
H    -1.891972  0.158696  -1.743243
H    -3.458883  0.027281  -2.097448
N    -4.481348  1.465381  2.082617
C    -4.971297  1.353907  0.706126
H    -5.011249  2.074146  2.707239
H    -5.167526  2.362857  0.325652
H    -5.908656  0.783141  0.689161
H    -4.224270  0.866489  0.066406
Sr    -1.611928  1.292728  5.571210
