34
Energy: -105400.052009 eV PBE+vdW (tier 2 basis)
C    -0.909052  -1.443685  0.419668
C    -1.029505  -0.949645  1.820748
O    -0.564817  -1.663202  2.792317
H    -1.251477  -0.718364  -0.323500
H    -1.466041  -2.382596  0.295943
H    0.147776  -1.677293  0.228931
N    -1.598177  0.202047  2.121982
C    -2.611605  1.005941  1.435646
C    -2.858628  2.156088  2.457459
O    -2.558095  1.955402  3.645934
H    -1.570874  0.535749  3.107611
H    -2.225792  1.400153  0.485045
C    -3.920415  0.207425  1.183918
C    -4.667448  -0.338783  2.417691
C    -3.909626  -1.408291  3.220271
C    -4.691781  -2.120853  4.317376
N    -3.813239  -3.181367  4.941057
H    -3.696027  -0.616299  0.488908
H    -4.604182  0.871960  0.637155
H    -5.609058  -0.777338  2.054817
H    -4.952395  0.484286  3.089194
H    -3.051032  -0.906507  3.706647
H    -3.508420  -2.164728  2.519024
H    -5.615860  -2.570897  3.929640
H    -4.979363  -1.413432  5.105388
H    -4.148035  -3.357331  5.894151
H    -4.006125  -4.066261  4.457910
N    -3.431177  3.265936  1.982176
C    -3.780489  4.420960  2.808265
H    -3.584724  3.339481  0.980952
H    -4.849131  4.645469  2.710222
H    -3.198599  5.296920  2.497401
H    -3.548937  4.185040  3.849907
Sr    -1.226256  -2.655625  4.693391
