34
Energy: -105400.075487 eV PBE+vdW (tier 2 basis)
C    0.194351  -0.276341  -0.215930
C    0.136399  -0.112992  1.267595
O    1.158105  0.285347  1.912920
H    1.040377  -0.920846  -0.486347
H    0.387584  0.708719  -0.665233
H    -0.725960  -0.686097  -0.644536
N    -1.013599  -0.380567  1.895101
C    -1.342960  -0.097723  3.303052
C    -0.755754  -1.180311  4.239301
O    0.502821  -1.195418  4.445030
H    -1.790975  -0.701553  1.321356
H    -0.795354  0.817706  3.579509
C    -2.849691  0.174098  3.441880
C    -3.798483  -0.840150  2.763169
C    -5.192115  -0.884677  3.404616
C    -5.202141  -1.496808  4.812166
N    -6.558170  -1.621977  5.300201
H    -3.045993  1.175479  3.034566
H    -3.067748  0.257006  4.516275
H    -3.378145  -1.863071  2.771645
H    -3.914966  -0.578878  1.699490
H    -5.851477  -1.480338  2.756569
H    -5.633731  0.121489  3.446392
H    -4.665751  -0.841518  5.519039
H    -4.629033  -2.463072  4.775859
H    -7.093784  -2.327304  4.796047
H    -6.604698  -1.838128  6.293491
N    -1.551720  -2.040685  4.840781
C    -1.098068  -3.073210  5.775030
H    -2.553423  -1.993197  4.648387
H    -1.979757  -3.554024  6.206418
H    -0.500486  -2.623592  6.576020
H    -0.494644  -3.826200  5.253520
Sr    2.425016  -0.185234  3.729832
