34
Energy: -105400.026934 eV PBE+vdW (tier 2 basis)
C    -0.963964  -0.319758  -0.020775
C    -0.757983  -0.365814  1.458664
O    0.309549  -0.853609  1.937890
H    -1.902775  0.157230  -0.320005
H    -0.946818  -1.348720  -0.407459
H    -0.123682  0.209653  -0.488824
N    -1.731658  0.116397  2.245837
C    -1.854836  0.058991  3.720331
C    -0.855171  0.999593  4.410079
O    0.373645  0.679323  4.494161
H    -2.549260  0.469147  1.756787
H    -2.866643  0.432476  3.916283
C    -1.777689  -1.359705  4.318096
C    -2.816189  -2.340413  3.768868
C    -2.610602  -3.749685  4.330878
C    -3.606908  -4.781431  3.787134
N    -3.247803  -6.113342  4.264238
H    -1.892755  -1.258100  5.408562
H    -0.774890  -1.795715  4.161869
H    -2.756382  -2.376111  2.669116
H    -3.826914  -1.975752  4.014249
H    -2.677684  -3.724749  5.431319
H    -1.596023  -4.109358  4.090078
H    -3.548648  -4.791617  2.687772
H    -4.636928  -4.462419  4.042814
H    -3.542309  -6.256673  5.230466
H    -3.703384  -6.837497  3.710930
N    -1.281101  2.127794  4.957632
C    -2.639362  2.686355  4.984180
H    -0.555619  2.663109  5.435640
H    -2.579190  3.689009  5.416201
H    -3.305827  2.082356  5.612243
H    -3.050488  2.779539  3.972635
Sr    1.830662  -0.850456  3.617308
