34
Energy: -105398.660711 eV PBE+vdW (tier 2 basis)
C    -0.687310  0.741429  0.241176
C    -0.451099  0.656243  1.720013
O    0.692254  0.760728  2.203277
H    -0.180254  1.629422  -0.153952
H    -1.746133  0.766332  -0.038385
H    -0.217208  -0.131738  -0.232782
N    -1.549508  0.470496  2.513128
C    -1.549516  0.031834  3.917024
C    -0.934354  1.039694  4.887317
O    -1.545040  1.282569  6.012657
H    -2.440200  0.387670  2.035524
H    -2.609388  -0.037672  4.195885
C    -0.900223  -1.361850  4.136620
C    -1.595076  -2.476676  3.352207
C    -0.947372  -3.847383  3.579359
C    -1.669921  -4.978551  2.835025
N    -3.024781  -5.176227  3.336737
H    -0.939611  -1.582701  5.216173
H    0.164827  -1.305568  3.868445
H    -1.562878  -2.244446  2.275974
H    -2.660271  -2.534869  3.628387
H    -0.928455  -4.080916  4.657258
H    0.102854  -3.828879  3.250521
H    -1.054011  -5.894237  2.907924
H    -1.736609  -4.734509  1.764891
H    -3.054117  -5.661881  4.232027
H    -3.631743  -5.661579  2.679811
N    0.215411  1.580613  4.598260
C    0.940766  2.514008  5.446754
H    0.601776  1.271662  3.632594
H    1.846742  2.827296  4.920753
H    1.237298  2.037460  6.391882
H    0.336659  3.408131  5.655810
Sr    -2.430772  1.831057  7.905930
