34
Energy: -105398.799921 eV PBE+vdW (tier 2 basis)
C    -1.200840  0.191785  -0.557625
C    -0.654444  0.390280  0.799974
O    0.651355  0.469790  0.968666
H    -2.080149  0.826917  -0.726465
H    -1.557113  -0.866871  -0.695138
H    -0.443131  0.409062  -1.315556
N    -1.393949  0.467743  1.874245
C    -2.844127  0.402927  2.067867
C    -2.964961  0.856919  3.553799
O    -1.923481  0.929990  4.229213
H    -0.981377  0.618598  2.831743
H    -3.335838  1.136455  1.410941
C    -3.426444  -1.019446  1.823515
C    -4.323308  -1.125633  0.585682
C    -4.605623  -2.569572  0.147350
C    -3.372815  -3.392046  -0.236792
N    -2.515897  -2.688958  -1.218923
H    -3.979458  -1.347163  2.714862
H    -2.574341  -1.708266  1.742960
H    -3.865996  -0.583310  -0.253684
H    -5.281593  -0.622456  0.781470
H    -5.298545  -2.537091  -0.707784
H    -5.142242  -3.111108  0.941167
H    -3.716291  -4.372679  -0.605830
H    -2.754279  -3.600955  0.649429
H    -1.777833  -3.322581  -1.532255
H    -3.062837  -2.483374  -2.059692
N    -4.177163  1.136207  4.047702
C    -5.467808  1.104503  3.367150
H    -4.173313  1.374531  5.037166
H    -6.138331  1.814813  3.860766
H    -5.927385  0.107329  3.405691
H    -5.369552  1.414924  2.321070
Sr    2.734082  0.723941  1.311494
