34
Energy: -105400.228553 eV PBE+vdW (tier 2 basis)
C    -0.499695  2.108634  1.900138
C    -0.775376  0.654371  2.106422
O    0.139291  -0.201140  1.902873
H    -1.346576  2.756170  2.148858
H    -0.227376  2.265883  0.846699
H    0.370532  2.403398  2.500969
N    -2.003351  0.294144  2.505259
C    -2.585738  -1.062849  2.628627
C    -2.011948  -1.834865  3.827117
O    -0.838062  -2.318205  3.788936
H    -2.660211  1.059037  2.631059
H    -3.647917  -0.875133  2.833765
C    -2.521062  -1.902114  1.339993
C    -3.224806  -1.271313  0.132849
C    -4.735173  -1.035812  0.304805
C    -5.528931  -2.249165  0.812758
N    -5.129269  -3.475903  0.115851
H    -2.980589  -2.881180  1.546685
H    -1.472068  -2.105349  1.060896
H    -3.066322  -1.960227  -0.706820
H    -2.734911  -0.326684  -0.149108
H    -5.130460  -0.727022  -0.674442
H    -4.936402  -0.178886  0.969707
H    -6.604897  -2.010179  0.740292
H    -5.335770  -2.410293  1.888602
H    -5.375567  -3.419752  -0.874477
H    -5.645208  -4.276543  0.481739
N    -2.805644  -2.012109  4.872022
C    -2.468664  -2.761856  6.082361
H    -3.732652  -1.595603  4.833035
H    -3.260670  -3.490742  6.288313
H    -2.382394  -2.075871  6.934237
H    -1.520193  -3.281515  5.931660
Sr    1.002251  -2.223662  2.433291
