34
Energy: -105399.352318 eV PBE+vdW (tier 2 basis)
C    0.019400  -0.250465  3.182404
C    -0.937560  -0.568199  4.283465
O    -0.512511  -0.751376  5.469604
H    -0.356963  0.549566  2.535076
H    0.189851  -1.134604  2.547864
H    0.977831  0.044433  3.619846
N    -2.268179  -0.679659  4.058448
C    -2.887888  -1.407291  2.939121
C    -2.420094  -2.889829  3.036757
O    -1.759652  -3.300207  4.048327
H    -2.807705  -0.713708  4.922461
H    -3.963215  -1.413154  3.179690
C    -2.745287  -0.769733  1.543815
C    -3.178156  0.702517  1.505336
C    -2.948951  1.358440  0.138064
C    -3.849360  0.839061  -0.988779
N    -3.493081  1.486898  -2.243851
H    -3.386997  -1.339961  0.854226
H    -1.720696  -0.883489  1.162353
H    -2.624406  1.266630  2.271201
H    -4.241067  0.777047  1.789049
H    -1.897649  1.244067  -0.171690
H    -3.113414  2.440855  0.249865
H    -4.910284  0.967444  -0.686858
H    -3.696104  -0.243426  -1.133049
H    -3.978366  1.071440  -3.037293
H    -3.722366  2.480971  -2.236054
N    -2.754627  -3.713607  2.062371
C    -2.449607  -5.147293  2.036717
H    -3.259501  -3.323832  1.270354
H    -1.366598  -5.307983  1.973648
H    -2.926913  -5.584750  1.156294
H    -2.840633  -5.635182  2.936761
Sr    -0.632065  -2.986673  6.048054
