34
Energy: -105401.28956 eV PBE+vdW (tier 2 basis)
C    -0.609037  0.440102  -0.023316
C    -0.771615  0.056645  1.414648
O    0.060702  -0.711717  1.969698
H    -0.590212  -0.471263  -0.635598
H    0.365805  0.929981  -0.151416
H    -1.394555  1.105704  -0.395358
N    -1.827683  0.566766  2.077380
C    -2.224188  0.386060  3.492053
C    -1.040474  0.586176  4.464259
O    -0.336528  -0.385130  4.860246
H    -2.442360  1.162125  1.529735
H    -2.909521  1.223987  3.677488
C    -3.016096  -0.910820  3.807679
C    -2.699479  -2.176076  2.990857
C    -3.056098  -3.480286  3.717007
C    -2.125503  -3.877426  4.861073
N    -0.733914  -4.201583  4.378090
H    -4.083746  -0.688809  3.678159
H    -2.885738  -1.101485  4.882655
H    -1.644912  -2.204178  2.672244
H    -3.246736  -2.136390  2.039233
H    -3.097137  -4.303594  2.986404
H    -4.075440  -3.407093  4.124225
H    -2.550323  -4.745119  5.384246
H    -2.034991  -3.071941  5.605190
H    -0.825563  -4.904414  3.634679
H    -0.268447  -4.718318  5.133152
N    -0.840328  1.822067  4.906303
C    0.198106  2.212410  5.859920
H    -1.453806  2.555965  4.562397
H    -0.194536  3.003282  6.506663
H    1.084537  2.589417  5.333194
H    0.472633  1.347064  6.468755
Sr    0.722181  -2.110111  3.718055
