34
Energy: -105399.465243 eV PBE+vdW (tier 2 basis)
C    -0.490368  1.531683  -1.738422
C    0.044113  0.485491  -0.816939
O    1.057038  -0.213109  -1.143056
H    0.084551  2.465622  -1.636351
H    -1.548331  1.753360  -1.565773
H    -0.350573  1.183493  -2.768910
N    -0.529320  0.271698  0.386977
C    -0.960295  1.342764  1.278089
C    0.327162  2.040338  1.822854
O    1.482683  1.659421  1.439668
H    -0.209268  -0.570840  0.867018
H    -1.507408  2.090133  0.684086
C    -1.880579  0.807757  2.391358
C    -1.229883  -0.213403  3.333576
C    -2.177116  -0.703533  4.439149
C    -2.544999  0.359225  5.482908
N    -3.439654  -0.217401  6.473378
H    -2.763173  0.370815  1.901861
H    -2.265263  1.663121  2.965997
H    -0.324632  0.221347  3.795123
H    -0.899580  -1.099266  2.762839
H    -1.697281  -1.550005  4.953058
H    -3.102493  -1.103237  3.998035
H    -3.089611  1.189252  5.004594
H    -1.606892  0.794655  5.896199
H    -2.961313  -0.879024  7.084253
H    -3.864903  0.493136  7.065850
N    0.158525  3.035311  2.672445
C    1.212844  3.828238  3.305627
H    -0.799263  3.259323  2.935993
H    1.038891  4.891830  3.105141
H    2.182467  3.532399  2.901013
H    1.199645  3.661574  4.389747
Sr    2.879870  0.315563  0.176286
