34
Energy: -105399.284945 eV PBE+vdW (tier 2 basis)
C    0.802513  3.302860  1.725495
C    1.235194  1.876920  1.643455
O    2.251923  1.571746  0.935620
H    0.400304  3.566948  2.708351
H    0.025435  3.517974  0.975559
H    1.668122  3.932859  1.493463
N    0.613302  0.875110  2.314125
C    -0.831206  0.593969  2.347402
C    -1.219391  0.051822  0.946787
O    -0.441368  0.236916  -0.053444
H    1.177644  0.024500  2.311618
H    -0.945406  -0.231654  3.067244
C    -1.743461  1.741979  2.818742
C    -1.484554  2.149900  4.276218
C    -2.372949  3.310496  4.739844
C    -2.014539  4.674592  4.138540
N    -2.958116  5.683069  4.595929
H    -2.782365  1.396040  2.731642
H    -1.670678  2.595265  2.132865
H    -0.422844  2.408775  4.420554
H    -1.664325  1.274159  4.919351
H    -2.297726  3.378953  5.835620
H    -3.431263  3.097181  4.524182
H    -2.092429  4.639376  3.038044
H    -0.947994  4.895667  4.372772
H    -2.874949  5.849350  5.599153
H    -2.814882  6.577867  4.130543
N    -2.348070  -0.616552  0.780174
C    -3.359225  -1.007064  1.767970
H    -2.535443  -0.895384  -0.183400
H    -3.726703  -2.004580  1.505035
H    -4.202581  -0.305126  1.755819
H    -2.932443  -1.049812  2.773778
Sr    1.635747  0.519810  -1.017201
