34
Energy: -105400.739947 eV PBE+vdW (tier 2 basis)
C    0.530557  1.983895  1.064998
C    0.171307  1.066975  2.190189
O    1.025361  0.794735  3.092554
H    0.748719  2.976360  1.485425
H    -0.260991  2.084387  0.315274
H    1.450204  1.635754  0.578363
N    -1.065259  0.560437  2.223910
C    -1.712868  -0.173312  3.326834
C    -1.328608  -1.669979  3.311072
O    -0.087400  -1.961815  3.477225
H    -1.682413  0.816024  1.456326
H    -1.272298  0.210981  4.261712
C    -3.215264  0.140992  3.325062
C    -3.925037  0.008855  1.958646
C    -5.425249  -0.321766  2.071283
C    -5.730435  -1.818197  2.071272
N    -5.019902  -2.547017  3.158834
H    -3.345565  1.164253  3.703950
H    -3.684527  -0.506035  4.076139
H    -3.446026  -0.765407  1.335293
H    -3.820659  0.955697  1.406727
H    -5.963325  0.117699  1.220848
H    -5.849296  0.158457  2.967892
H    -5.398303  -2.258533  1.119757
H    -6.818758  -1.969734  2.131095
H    -5.403366  -2.257441  4.063721
H    -5.255491  -3.540563  3.088647
N    -2.238553  -2.604004  3.185758
C    -1.883392  -4.022865  3.212824
H    -3.307786  -2.417644  3.140525
H    -2.789091  -4.604126  3.019245
H    -1.479068  -4.309826  4.192263
H    -1.138416  -4.252748  2.442218
Sr    1.917225  -1.076695  4.018948
