34
Energy: -105398.591524 eV PBE+vdW (tier 2 basis)
C    0.744989  0.129717  -0.033845
C    0.399732  -0.461731  1.294511
O    1.110306  -1.456967  1.749102
H    0.068930  0.943246  -0.314569
H    0.700635  -0.647217  -0.809372
H    1.772170  0.519426  -0.008366
N    -0.602495  0.026910  1.971221
C    -1.164981  -0.383255  3.255862
C    -2.571276  0.295654  3.217769
O    -2.785145  1.136877  2.335177
H    -1.232823  0.767481  1.577300
H    -1.276238  -1.478255  3.259562
C    -0.320783  0.060074  4.479260
C    -0.414224  1.533513  4.894032
C    0.154363  2.570592  3.920009
C    0.000033  4.003916  4.452229
N    -1.402885  4.358460  4.611088
H    0.729010  -0.219330  4.286836
H    -0.642857  -0.563225  5.327506
H    0.113721  1.629056  5.855777
H    -1.460184  1.796268  5.111197
H    -0.355093  2.515096  2.944747
H    1.223482  2.380124  3.730533
H    0.543043  4.693583  3.778147
H    0.483317  4.086189  5.436556
H    -1.555986  5.153756  5.226604
H    -1.889609  4.514686  3.729845
N    -3.448232  -0.072351  4.158460
C    -4.777224  0.523840  4.292184
H    -3.162453  -0.753765  4.853519
H    -5.511084  -0.261547  4.501358
H    -5.032087  1.021132  3.352579
H    -4.792709  1.261592  5.104858
Sr    2.506305  -3.078958  2.070419
