34
Energy: -105400.652944 eV PBE+vdW (tier 2 basis)
C    -1.994423  -0.904757  0.860896
C    -1.238411  -0.540837  2.099897
O    0.014813  -0.292046  2.010772
H    -3.040509  -1.155058  1.060313
H    -1.497099  -1.750888  0.368812
H    -1.960506  -0.061585  0.157124
N    -1.913930  -0.483135  3.239919
C    -1.393197  -0.332756  4.612662
C    -0.602508  0.959057  4.867751
O    0.609452  1.099975  4.517122
H    -2.872187  -0.987722  3.275919
H    -2.305690  -0.244348  5.214977
C    -0.637967  -1.588214  5.104738
C    -1.310609  -2.926447  4.753833
C    -2.636447  -3.299515  5.444396
C    -3.883430  -2.430386  5.226353
N    -4.104826  -2.050623  3.802260
H    -0.503268  -1.495605  6.193291
H    0.376662  -1.591651  4.673012
H    -0.589933  -3.714412  5.014699
H    -1.423540  -3.000006  3.661370
H    -2.478580  -3.370245  6.531211
H    -2.874213  -4.324989  5.122103
H    -3.824380  -1.498339  5.807633
H    -4.747509  -2.978159  5.632331
H    -4.164293  -2.899290  3.231948
H    -5.022540  -1.606984  3.713641
N    -1.230177  1.919160  5.532569
C    -0.630849  3.196108  5.921191
H    -2.203341  1.764442  5.780360
H    0.425358  3.046757  6.163744
H    -1.156351  3.575749  6.802152
H    -0.720108  3.928986  5.108625
Sr    1.956538  0.477764  2.782379
