34
Energy: -105400.243381 eV PBE+vdW (tier 2 basis)
C    -0.192822  -0.116828  0.044354
C    -0.150352  -0.237947  1.533404
O    0.905285  -0.647389  2.107528
H    -0.019475  -1.111080  -0.391351
H    0.630446  0.526618  -0.292621
H    -1.139472  0.278449  -0.337650
N    -1.248514  0.094361  2.225275
C    -1.537984  -0.070174  3.669603
C    -0.723018  0.901671  4.540810
O    0.517702  0.714237  4.740605
H    -2.037237  0.403752  1.663729
H    -2.596264  0.211225  3.760176
C    -1.442058  -1.519369  4.172221
C    -1.963214  -1.664147  5.605103
C    -2.098501  -3.122769  6.068492
C    -2.959411  -4.003093  5.149376
N    -4.189495  -3.307421  4.748096
H    -0.414064  -1.914220  4.084052
H    -2.059541  -2.127561  3.496961
H    -2.956870  -1.193640  5.650194
H    -1.317904  -1.118223  6.312592
H    -2.533890  -3.110212  7.078956
H    -1.107246  -3.591265  6.178882
H    -3.128629  -4.968145  5.658306
H    -2.402994  -4.245573  4.229969
H    -4.702314  -3.866801  4.066066
H    -4.818555  -3.207275  5.547422
N    -1.376549  1.906036  5.101581
C    -0.801166  2.904466  6.002284
H    -2.371557  1.984154  4.905268
H    -1.382637  2.932292  6.931079
H    -0.833811  3.894026  5.529952
H    0.233756  2.636220  6.223917
Sr    2.223485  -0.574287  3.938514
