34
Energy: -105400.037052 eV PBE+vdW (tier 2 basis)
C    0.310456  -0.765520  -0.002657
C    0.260330  -0.038179  1.301670
O    1.329197  0.346363  1.872984
H    -0.399388  -0.340978  -0.722071
H    0.041623  -1.825310  0.131503
H    1.324777  -0.713172  -0.407646
N    -0.923061  0.203221  1.912025
C    -2.008273  -0.788392  2.038948
C    -1.394498  -2.077222  2.660402
O    -0.290997  -1.965825  3.321374
H    -0.841273  0.843281  2.700326
H    -2.654669  -0.370902  2.828028
C    -2.891808  -0.989331  0.795272
C    -4.366231  -1.228565  1.178548
C    -5.163511  -2.041570  0.152747
C    -4.582293  -3.425700  -0.144242
N    -4.185577  -4.131815  1.105654
H    -2.501682  -1.817485  0.188279
H    -2.815953  -0.087899  0.173829
H    -4.857084  -0.257211  1.331977
H    -4.419314  -1.736652  2.154297
H    -5.247836  -1.492760  -0.796588
H    -6.192827  -2.148536  0.526616
H    -3.681828  -3.351160  -0.771391
H    -5.313437  -4.008437  -0.723333
H    -5.006325  -4.230779  1.711403
H    -3.918039  -5.090540  0.867695
N    -2.005831  -3.228155  2.539613
C    -1.503338  -4.433962  3.198401
H    -2.907417  -3.411011  1.941349
H    -2.239491  -5.229996  3.054579
H    -1.366888  -4.265080  4.272976
H    -0.547662  -4.755129  2.763474
Sr    1.697380  -0.953322  3.767996
