34
Energy: -105400.778975 eV PBE+vdW (tier 2 basis)
C    -0.138581  -0.247259  -0.167065
C    -0.219133  -0.223994  1.325403
O    0.839986  -0.277979  2.026538
H    0.413269  0.644666  -0.497369
H    -1.117824  -0.258711  -0.656537
H    0.441350  -1.119497  -0.494138
N    -1.425355  -0.130517  1.896555
C    -1.727625  0.108868  3.322906
C    -1.654062  -1.223191  4.102862
O    -0.488169  -1.731658  4.289254
H    -2.225210  -0.096514  1.268261
H    -0.911705  0.732254  3.723650
C    -3.050517  0.871351  3.409743
C    -3.415335  1.346105  4.825203
C    -4.920551  1.595361  5.016749
C    -5.823554  0.436347  4.585089
N    -5.316771  -0.877282  5.069342
H    -3.844770  0.228562  2.998773
H    -2.984634  1.738400  2.736308
H    -2.865581  2.269620  5.054644
H    -3.079738  0.610107  5.570685
H    -5.234663  2.491547  4.462121
H    -5.095438  1.826065  6.077992
H    -5.883800  0.373738  3.489167
H    -6.848234  0.630636  4.935256
H    -5.341017  -0.885560  6.093710
H    -5.975439  -1.607023  4.784832
N    -2.738320  -1.812331  4.543564
C    -2.679950  -3.086459  5.259796
H    -3.713652  -1.340160  4.576480
H    -3.703873  -3.389836  5.495596
H    -2.110085  -2.990229  6.193311
H    -2.211586  -3.859406  4.639436
Sr    1.693640  -1.433161  3.786683
