34
Energy: -105398.419075 eV PBE+vdW (tier 2 basis)
C    0.053688  0.073663  -0.367556
C    0.190150  -0.258011  1.077695
O    1.373130  -0.481429  1.567582
H    -0.948189  -0.132865  -0.755917
H    0.790067  -0.493277  -0.947575
H    0.253016  1.147769  -0.502965
N    -0.851972  -0.340239  1.875707
C    -2.209775  0.190931  1.625996
C    -2.036753  1.691885  1.254624
O    -1.091829  2.319700  1.742175
H    -0.643868  -0.534671  2.855257
H    -2.661456  -0.382961  0.805165
C    -3.011834  -0.052639  2.922978
C    -4.490430  0.368597  2.921144
C    -4.759298  1.804137  3.390105
C    -6.242921  2.189070  3.284354
N    -6.660845  2.383804  1.891254
H    -2.485952  0.461124  3.746045
H    -2.948008  -1.133671  3.122753
H    -5.022875  -0.315263  3.598119
H    -4.937904  0.199820  1.931119
H    -4.162415  2.533553  2.821137
H    -4.445312  1.905885  4.440599
H    -6.421483  3.092410  3.890693
H    -6.858014  1.391494  3.724322
H    -7.613223  2.069505  1.717607
H    -6.597334  3.359111  1.603398
N    -2.906042  2.239870  0.379125
C    -4.062436  1.666430  -0.306525
H    -2.746827  3.237298  0.249014
H    -4.989855  1.795708  0.275049
H    -3.913496  0.599692  -0.508046
H    -4.173607  2.170494  -1.272946
Sr    3.428033  -0.279026  2.225263
