34
Energy: -105401.338374 eV PBE+vdW (tier 2 basis)
C    -0.834254  -0.073363  -0.357510
C    -1.024567  -0.400452  1.093105
O    -0.359157  -1.333673  1.619270
H    0.222163  0.167409  -0.535397
H    -1.454175  0.756413  -0.712120
H    -1.062092  -0.968846  -0.951583
N    -1.920322  0.340957  1.771155
C    -2.427502  0.285766  3.165626
C    -1.328587  0.476265  4.225831
O    -0.348460  -0.307244  4.358531
H    -2.377196  1.051501  1.206903
H    -3.046757  1.191147  3.223097
C    -3.430752  -0.867175  3.443076
C    -2.978581  -2.338030  3.421351
C    -2.430439  -2.878943  4.751601
C    -1.879650  -4.303075  4.678058
N    -0.708680  -4.417829  3.736110
H    -4.220764  -0.735280  2.689914
H    -3.910180  -0.641698  4.408896
H    -2.273874  -2.492738  2.591000
H    -3.859410  -2.941408  3.156041
H    -3.238537  -2.875147  5.498469
H    -1.664217  -2.207057  5.177447
H    -2.670969  -5.007158  4.382788
H    -1.532283  -4.611632  5.671694
H    -0.188069  -5.263112  3.990146
H    -1.071110  -4.635188  2.801474
N    -1.486864  1.508372  5.048360
C    -0.582207  1.810488  6.159074
H    -2.272921  2.133548  4.899136
H    -0.462112  0.929617  6.799909
H    -1.013053  2.626678  6.744575
H    0.400769  2.117769  5.781411
Sr    0.690808  -2.201879  3.477561
