34
Energy: -105399.308352 eV PBE+vdW (tier 2 basis)
C    -0.265906  1.163073  0.464695
C    -0.849803  0.703276  1.759375
O    -0.071362  0.435691  2.733222
H    -0.933382  1.820136  -0.097930
H    -0.010695  0.302057  -0.172688
H    0.671387  1.685498  0.689457
N    -2.185305  0.584626  1.970205
C    -3.158601  -0.125394  1.123384
C    -2.903830  -1.641688  1.317833
O    -1.789640  -2.051060  1.797292
H    -2.390837  0.483335  2.965082
H    -4.143209  0.108903  1.556577
C    -3.197487  0.280881  -0.362846
C    -3.623379  1.737923  -0.581355
C    -3.485972  2.159552  -2.045972
C    -3.936572  3.604096  -2.303693
N    -3.648753  3.979350  -3.681725
H    -3.914412  -0.380429  -0.868114
H    -2.232077  0.069508  -0.842214
H    -3.027376  2.411241  0.056348
H    -4.665910  1.861491  -0.245153
H    -4.069781  1.477226  -2.686021
H    -2.438890  2.066639  -2.376651
H    -3.369218  4.281168  -1.646663
H    -5.001684  3.708360  -2.014007
H    -4.313456  3.571251  -4.338450
H    -3.674932  4.988938  -3.812060
N    -3.839658  -2.520855  0.998818
C    -5.196293  -2.298216  0.489808
H    -3.562977  -3.495317  1.121279
H    -5.558430  -1.301086  0.754828
H    -5.860044  -3.039945  0.946365
H    -5.225169  -2.421672  -0.600224
Sr    0.085385  -1.831081  3.126143
