34
Energy: -105399.69284 eV PBE+vdW (tier 2 basis)
C    0.996188  1.763441  0.697701
C    0.464945  0.503106  1.301643
O    0.858538  -0.631351  0.874866
H    1.808646  1.520504  0.007515
H    1.364877  2.444130  1.474575
H    0.211221  2.300582  0.143604
N    -0.453522  0.539842  2.291030
C    -1.629981  1.421212  2.318963
C    -2.401850  1.212193  1.014735
O    -2.169003  0.194376  0.268442
H    -0.593662  -0.356171  2.757971
H    -2.237733  0.981139  3.157356
C    -1.347132  2.859702  2.800023
C    -2.549471  3.665919  3.340334
C    -3.561722  2.956774  4.259121
C    -2.975170  2.197836  5.458526
N    -2.626095  0.796335  5.105473
H    -0.845389  3.454759  2.024836
H    -0.619995  2.735622  3.614071
H    -3.099375  4.158216  2.516778
H    -2.115822  4.516898  3.886364
H    -4.202282  2.261649  3.687840
H    -4.247119  3.730286  4.632130
H    -3.691120  2.232324  6.293102
H    -2.062923  2.697036  5.814521
H    -1.974389  0.420095  5.796622
H    -3.463458  0.214671  5.182319
N    -3.359735  2.065657  0.698869
C    -4.248050  1.934235  -0.457155
H    -3.487741  2.867486  1.313659
H    -4.976477  2.748435  -0.425446
H    -4.780069  0.976360  -0.425060
H    -3.679017  2.002395  -1.392241
Sr    -0.859312  -1.587141  -0.343999
