34
Energy: -105400.617221 eV PBE+vdW (tier 2 basis)
C    -0.003877  -1.103169  0.595201
C    -0.118988  -0.452022  1.935301
O    0.803456  0.354127  2.320013
H    0.941273  -1.658907  0.537087
H    0.036242  -0.324584  -0.178898
H    -0.832835  -1.782965  0.381944
N    -1.174320  -0.713311  2.695719
C    -1.402453  -0.010382  3.960879
C    -0.396967  -0.462767  5.040028
O    0.566598  0.325668  5.326631
H    -2.011291  -1.324718  2.309178
H    -1.142650  1.049671  3.803851
C    -2.879324  -0.040717  4.387162
C    -3.818473  0.729167  3.422389
C    -4.824654  -0.114263  2.620837
C    -4.306714  -0.882541  1.406170
N    -3.378525  -1.994409  1.765987
H    -2.924675  0.412338  5.387321
H    -3.231619  -1.071368  4.512703
H    -3.225425  1.346242  2.727251
H    -4.396301  1.444194  4.021434
H    -5.603509  0.565020  2.245991
H    -5.353079  -0.804899  3.299856
H    -3.758421  -0.202949  0.735634
H    -5.166166  -1.265908  0.836996
H    -3.851390  -2.626712  2.418292
H    -3.202395  -2.564124  0.934183
N    -0.479931  -1.627801  5.666164
C    -1.428374  -2.729805  5.491357
H    0.236776  -1.761382  6.379950
H    -0.918502  -3.659081  5.764652
H    -1.744139  -2.807603  4.447510
H    -2.302195  -2.605893  6.142846
Sr    1.990151  1.427026  3.899931
