34
Energy: -105400.58309 eV PBE+vdW (tier 2 basis)
C    0.553781  1.218407  1.360265
C    -0.145648  0.430293  2.414538
O    0.421949  0.114532  3.495979
H    -0.102806  1.556037  0.552644
H    1.311600  0.552346  0.916274
H    1.095885  2.064625  1.796807
N    -1.425081  0.002093  2.211849
C    -2.529816  0.825359  1.724478
C    -2.428324  2.236494  2.335269
O    -1.814438  2.404821  3.435157
H    -1.703682  -0.723110  2.871359
H    -2.502371  0.894015  0.628852
C    -3.862634  0.131322  2.125971
C    -4.048534  -0.197899  3.620455
C    -4.604595  0.911936  4.528475
C    -4.427918  0.601236  6.017803
N    -3.095467  1.066626  6.563713
H    -3.907883  -0.797612  1.540310
H    -4.699662  0.748297  1.771671
H    -3.110424  -0.594327  4.057446
H    -4.731204  -1.057181  3.681711
H    -5.678135  1.025852  4.323241
H    -4.158075  1.893594  4.311108
H    -4.492645  -0.481246  6.191133
H    -5.234249  1.062798  6.602550
H    -3.239335  2.041527  6.855298
H    -2.961692  0.578845  7.457076
N    -3.002062  3.263804  1.724359
C    -3.770634  3.291209  0.476792
H    -2.917443  4.149459  2.223584
H    -3.440184  2.506264  -0.209545
H    -3.608921  4.259567  -0.006946
H    -4.843291  3.171298  0.676103
Sr    -0.794652  1.260697  5.217075
