34
Energy: -105399.642711 eV PBE+vdW (tier 2 basis)
C    -0.025078  1.664355  0.523477
C    -0.398845  0.477174  1.345638
O    0.408441  -0.023970  2.186935
H    -0.612412  1.750894  -0.396009
H    1.040961  1.588527  0.276635
H    -0.148427  2.587560  1.111118
N    -1.631365  -0.076582  1.232146
C    -2.873045  0.680544  1.096514
C    -2.956330  1.706199  2.256981
O    -2.245542  1.552612  3.300313
H    -1.731526  -0.992788  1.668989
H    -2.872567  1.221474  0.138375
C    -4.083373  -0.286104  1.129383
C    -4.464628  -0.902125  2.484045
C    -3.475668  -1.859158  3.165525
C    -4.160211  -2.784210  4.201195
N    -5.116003  -3.639490  3.523346
H    -3.884196  -1.073145  0.385887
H    -4.954232  0.263180  0.745431
H    -5.370753  -1.501572  2.308612
H    -4.760073  -0.113432  3.194883
H    -2.674640  -1.296389  3.710618
H    -2.964071  -2.499256  2.424593
H    -4.696620  -2.161078  4.932006
H    -3.380601  -3.331777  4.763153
H    -4.713525  -4.525331  3.223771
H    -5.935231  -3.842599  4.090350
N    -3.808648  2.705876  2.116433
C    -4.099827  3.738937  3.111912
H    -4.326274  2.756849  1.240878
H    -3.918537  4.728280  2.675918
H    -3.453416  3.595259  3.979829
H    -5.150489  3.670873  3.419031
Sr    -0.596687  0.235593  4.280457
