34
Energy: -105400.199266 eV PBE+vdW (tier 2 basis)
C    -0.205026  2.117792  0.371382
C    -0.798519  1.199757  1.393206
O    -0.749155  -0.051883  1.218796
H    -0.293857  3.178957  0.624925
H    -0.699774  1.936867  -0.592700
H    0.855737  1.867096  0.237263
N    -1.368845  1.758335  2.472275
C    -2.099352  1.172854  3.625247
C    -1.223551  0.255014  4.486646
O    -0.837684  -0.878722  4.062464
H    -1.351472  2.774099  2.474995
H    -2.321508  2.055775  4.234427
C    -3.492464  0.577789  3.306920
C    -3.662283  -0.761898  2.571482
C    -5.139987  -1.099523  2.277387
C    -5.753332  -0.343149  1.091096
N    -5.796125  1.110847  1.312107
H    -4.042612  1.328820  2.714422
H    -4.021801  0.505139  4.270169
H    -3.258208  -1.584898  3.201450
H    -3.133117  -0.722783  1.598624
H    -5.736037  -0.921943  3.186834
H    -5.229574  -2.176360  2.071946
H    -6.743022  -0.786548  0.884990
H    -5.143269  -0.526131  0.192291
H    -5.998776  1.591917  0.435245
H    -6.568565  1.348669  1.937995
N    -0.913680  0.629556  5.721979
C    -1.240546  1.877053  6.423604
H    -0.378105  -0.063832  6.244479
H    -0.757720  1.844335  7.404132
H    -2.321777  1.976312  6.580180
H    -0.852398  2.750077  5.885835
Sr    -0.907340  -2.119246  2.141807
