34
Energy: -105398.622106 eV PBE+vdW (tier 2 basis)
C    0.120338  -1.060076  0.626961
C    -0.178074  -0.367327  1.913986
O    0.803167  -0.166972  2.753975
H    1.056308  -0.673089  0.207121
H    -0.679260  -0.951445  -0.111188
H    0.264115  -2.133625  0.819768
N    -1.371464  0.041761  2.246222
C    -2.645695  0.012127  1.516808
C    -3.462576  1.084321  2.296414
O    -3.018371  1.466982  3.393388
H    -1.550414  0.578103  3.133177
H    -2.480520  0.355067  0.484876
C    -3.285808  -1.397160  1.492810
C    -3.650961  -2.031016  2.842159
C    -4.953015  -1.537455  3.488434
C    -5.437486  -2.465207  4.612637
N    -5.748078  -3.796088  4.110253
H    -2.584456  -2.055368  0.958168
H    -4.176879  -1.348259  0.851203
H    -2.816995  -1.921861  3.556237
H    -3.759032  -3.112648  2.674958
H    -5.741970  -1.474555  2.719368
H    -4.842503  -0.527628  3.906901
H    -6.296618  -1.985150  5.118215
H    -4.649379  -2.567529  5.373719
H    -5.794076  -4.506113  4.837288
H    -6.603182  -3.832022  3.557332
N    -4.598725  1.554737  1.767775
C    -5.240774  1.211648  0.503299
H    -5.078545  2.223690  2.366753
H    -5.777459  2.091485  0.133815
H    -5.959168  0.389079  0.622420
H    -4.499976  0.934995  -0.254537
Sr    2.443548  0.251494  4.093021
