34
Energy: -105400.492185 eV PBE+vdW (tier 2 basis)
C    -0.840568  0.283841  0.503185
C    -1.414233  -0.111923  1.824012
O    -2.256762  -1.062216  1.904596
H    -0.141597  1.123906  0.569586
H    -1.652860  0.542570  -0.188560
H    -0.318147  -0.582046  0.072868
N    -1.018353  0.542100  2.920718
C    -1.401867  0.173528  4.290426
C    -2.864714  0.598481  4.537447
O    -3.788146  -0.283041  4.405281
H    -0.333593  1.285813  2.809135
H    -1.417548  -0.925568  4.304789
C    -0.400451  0.652840  5.387994
C    0.966340  1.226807  4.950290
C    1.137554  2.753171  5.032845
C    0.236520  3.652837  4.183468
N    -1.130413  3.820188  4.753379
H    -0.227601  -0.223950  6.022921
H    -0.904622  1.379564  6.034066
H    1.255283  0.866624  3.948737
H    1.727936  0.787844  5.608026
H    2.176757  2.979149  4.754588
H    1.051303  3.067565  6.086298
H    0.129204  3.263010  3.155844
H    0.728948  4.630777  4.072605
H    -1.033362  4.196807  5.701663
H    -1.609700  4.560049  4.231822
N    -3.107597  1.849419  4.837278
C    -4.451382  2.371222  5.071849
H    -2.289858  2.554694  4.839407
H    -4.991767  2.513442  4.125769
H    -4.364444  3.338802  5.574974
H    -5.023099  1.685870  5.706766
Sr    -4.093158  -1.963183  2.913929
