34
Energy: -105400.117412 eV PBE+vdW (tier 2 basis)
C    -1.166420  -0.802247  0.151700
C    -0.893216  -0.545093  1.596370
O    0.171669  -0.975834  2.137882
H    -1.903402  -0.115115  -0.278334
H    -1.568778  -1.825618  0.065768
H    -0.236589  -0.760066  -0.424671
N    -1.825045  0.115122  2.298401
C    -1.971360  0.256786  3.765314
C    -0.944707  1.240311  4.351903
O    0.282892  0.925455  4.443865
H    -2.637182  0.405489  1.761074
H    -2.966553  0.706619  3.887809
C    -1.981274  -1.067596  4.561333
C    -3.189817  -1.984378  4.308744
C    -3.240286  -2.665764  2.937872
C    -4.320466  -3.749919  2.820328
N    -4.307895  -4.307747  1.467047
H    -1.958133  -0.786849  5.625941
H    -1.055839  -1.635951  4.368712
H    -4.118161  -1.417148  4.487536
H    -3.166802  -2.756920  5.092637
H    -2.259641  -3.122697  2.712180
H    -3.441972  -1.945519  2.131971
H    -5.304806  -3.293004  2.998521
H    -4.178400  -4.502229  3.618656
H    -3.670664  -5.100788  1.397852
H    -5.228091  -4.656727  1.204351
N    -1.401446  2.399738  4.798201
C    -0.601134  3.441745  5.442397
H    -2.394693  2.588469  4.686484
H    -1.110607  3.773223  6.353964
H    -0.484948  4.297470  4.765415
H    0.381191  3.037751  5.696196
Sr    1.760929  -0.652288  3.705022
