34
Energy: -105399.835505 eV PBE+vdW (tier 2 basis)
C    -0.489458  -0.295214  0.000998
C    -0.461610  -0.102696  1.479498
O    0.595774  0.300060  2.065773
H    -0.269753  0.665342  -0.486056
H    -1.450501  -0.669735  -0.365529
H    0.307841  -0.990918  -0.292646
N    -1.566887  -0.349639  2.191648
C    -1.664617  -0.058648  3.626750
C    -0.776453  -1.015678  4.457029
O    0.264496  -0.497082  4.994691
H    -2.418356  -0.631815  1.706264
H    -1.146056  0.901325  3.770429
C    -3.107561  0.218823  4.112627
C    -4.260607  -0.766770  3.900100
C    -4.660553  -1.083741  2.452067
C    -6.105323  -1.622946  2.365857
N    -7.042625  -0.630149  2.881862
H    -3.380831  1.175303  3.638748
H    -3.019194  0.442895  5.186762
H    -5.144847  -0.286382  4.348903
H    -4.112051  -1.691137  4.474140
H    -4.000120  -1.835349  1.976902
H    -4.604951  -0.165159  1.839196
H    -6.181777  -2.528366  2.986016
H    -6.305328  -1.938932  1.327428
H    -7.350055  0.014025  2.154294
H    -7.878882  -1.065632  3.265141
N    -0.996270  -2.309576  4.623159
C    -1.991663  -3.208128  4.041246
H    -0.312644  -2.754839  5.237733
H    -1.470346  -4.077122  3.622017
H    -2.549643  -2.711845  3.247361
H    -2.687889  -3.554611  4.814042
Sr    1.908248  0.666676  3.897017
