34
Energy: -105399.752966 eV PBE+vdW (tier 2 basis)
C    -0.300029  0.397456  3.111939
C    -0.265608  -0.770869  4.043594
O    0.685132  -0.894389  4.883607
H    -1.305604  0.825402  3.036398
H    0.005241  0.095578  2.097564
H    0.400241  1.158786  3.467757
N    -1.218133  -1.727177  3.997603
C    -1.747039  -2.318745  2.761809
C    -0.564662  -2.872319  1.959106
O    0.598875  -2.984802  2.486266
H    -1.181988  -2.368316  4.789411
H    -2.358446  -3.210100  3.080124
C    -2.772479  -1.484778  1.971492
C    -3.878657  -0.859292  2.837562
C    -4.645587  -1.782525  3.802648
C    -5.177645  -3.094393  3.214414
N    -4.136386  -4.157607  3.218842
H    -3.248785  -2.175369  1.256842
H    -2.288169  -0.703525  1.369055
H    -4.594504  -0.400648  2.139653
H    -3.462105  -0.022759  3.419384
H    -5.492919  -1.202457  4.193727
H    -4.031304  -2.017612  4.688508
H    -5.503893  -2.941646  2.175329
H    -6.071861  -3.407479  3.774123
H    -4.401473  -4.904113  2.573289
H    -4.121582  -4.601886  4.139765
N    -0.781752  -3.291917  0.724565
C    0.219857  -3.936730  -0.127340
H    -1.717450  -3.168375  0.347831
H    1.052036  -3.251820  -0.329184
H    -0.255234  -4.205821  -1.074049
H    0.603510  -4.845167  0.351584
Sr    2.108921  -2.566168  4.163026
