34
Energy: -105400.614804 eV PBE+vdW (tier 2 basis)
C    0.194792  1.370410  -0.311369
C    0.189895  0.963714  1.128931
O    1.142112  1.321777  1.890770
H    -0.709183  1.076470  -0.854613
H    1.065835  0.906061  -0.796356
H    0.328539  2.456374  -0.392062
N    -0.834448  0.219984  1.565162
C    -1.015100  -0.513245  2.830974
C    -1.204729  0.334896  4.094229
O    -0.536160  1.400204  4.329018
H    -1.537948  0.017054  0.860906
H    -1.972669  -1.028041  2.691314
C    0.048862  -1.613189  3.069850
C    -0.187030  -2.875704  2.229303
C    -1.558904  -3.559370  2.386277
C    -2.018530  -3.885446  3.817291
N    -2.911388  -2.833441  4.395229
H    0.023042  -1.874387  4.137652
H    1.053759  -1.212275  2.874369
H    0.600647  -3.594084  2.500019
H    -0.024113  -2.653589  1.163277
H    -1.509563  -4.497758  1.817818
H    -2.351415  -2.980364  1.880498
H    -1.153903  -3.993472  4.487953
H    -2.532425  -4.857424  3.817001
H    -3.786425  -2.829979  3.861834
H    -3.193163  -3.141669  5.330981
N    -2.052879  -0.179383  4.955827
C    -2.315186  0.382265  6.276746
H    -2.444203  -1.150084  4.721509
H    -3.270982  -0.009692  6.637060
H    -2.374531  1.473994  6.222652
H    -1.527537  0.100844  6.989756
Sr    1.404931  2.434548  3.847195
