34
Energy: -105399.592285 eV PBE+vdW (tier 2 basis)
C    -1.017642  2.293993  0.229012
C    -0.822861  0.814574  0.287829
O    0.274262  0.284810  -0.081451
H    -2.070379  2.579511  0.136371
H    -0.451982  2.683292  -0.625570
H    -0.604163  2.771847  1.131537
N    -1.800987  0.017198  0.765301
C    -2.596156  0.331260  1.951424
C    -1.622644  0.463539  3.145613
O    -0.424341  0.022405  3.041035
H    -1.663702  -0.980336  0.595939
H    -3.119647  1.285935  1.795000
C    -3.631715  -0.789807  2.188066
C    -4.590317  -0.967133  1.009901
C    -5.590966  -2.109006  1.216825
C    -6.233734  -2.534367  -0.111127
N    -5.211321  -3.061280  -1.027435
H    -4.188281  -0.566511  3.108692
H    -3.089261  -1.730939  2.387021
H    -4.030176  -1.196015  0.088427
H    -5.129129  -0.022616  0.828650
H    -6.372369  -1.819636  1.935192
H    -5.075804  -2.982673  1.651227
H    -6.702204  -1.659690  -0.586022
H    -7.048129  -3.247503  0.099270
H    -5.052018  -4.053558  -0.849413
H    -5.528315  -2.997651  -1.994016
N    -2.024139  1.008879  4.280922
C    -3.324520  1.593495  4.620349
H    -1.330499  0.992010  5.029352
H    -3.872341  1.884148  3.720182
H    -3.154085  2.488171  5.228557
H    -3.925920  0.880818  5.198785
Sr    1.384811  -0.599579  1.748671
