34
Energy: -105400.98494 eV PBE+vdW (tier 2 basis)
C    -0.051540  1.292680  0.910630
C    -0.429265  0.727621  2.238595
O    0.261759  0.957758  3.272159
H    -0.005340  2.387379  0.990511
H    -0.744641  1.018684  0.108626
H    0.958464  0.950495  0.647535
N    -1.540372  -0.038187  2.327208
C    -1.996069  -0.524855  3.625494
C    -1.251830  -1.810555  4.048177
O    -0.336638  -1.683601  4.919927
H    -2.107625  -0.171769  1.494664
H    -1.586422  0.221853  4.315424
C    -3.503921  -0.468610  3.907950
C    -3.710820  -0.250590  5.422046
C    -3.213714  1.130283  5.915281
C    -2.531217  1.156986  7.280199
N    -1.234761  0.385445  7.321509
H    -4.033727  -1.368470  3.574572
H    -3.929738  0.378257  3.348846
H    -3.213925  -1.071814  5.966061
H    -4.776825  -0.362631  5.654221
H    -4.066650  1.821202  5.964201
H    -2.532326  1.593716  5.178694
H    -3.211850  0.773614  8.055141
H    -2.295197  2.194882  7.546460
H    -1.474746  -0.613365  7.329756
H    -0.845544  0.540190  8.258827
N    -1.521508  -3.000514  3.530209
C    -2.489148  -3.381695  2.502027
H    -0.947547  -3.755124  3.909322
H    -3.345542  -3.900597  2.951273
H    -2.000655  -4.058089  1.791693
H    -2.846669  -2.508566  1.952262
Sr    0.718483  0.350989  5.508730
