34
Energy: -105400.10377 eV PBE+vdW (tier 2 basis)
C    0.235385  0.657198  0.221552
C    0.031352  0.576768  1.698329
O    0.889642  1.069079  2.497856
H    0.254571  1.717874  -0.068364
H    -0.543611  0.146663  -0.353863
H    1.215050  0.237832  -0.041021
N    -1.077417  -0.010976  2.162025
C    -1.543339  -0.022480  3.561240
C    -0.775905  -1.095334  4.365432
O    0.400004  -0.832248  4.779114
H    -1.729907  -0.374787  1.470592
H    -1.243129  0.939782  4.006837
C    -3.072843  -0.124713  3.601185
C    -3.785301  1.109124  3.022253
C    -5.310841  0.954629  2.973121
C    -6.001362  0.919821  4.341526
N    -7.430432  0.694306  4.163778
H    -3.375162  -0.263574  4.649026
H    -3.407724  -1.024286  3.051472
H    -3.419148  1.310336  2.003034
H    -3.514614  1.992342  3.624781
H    -5.586322  0.045043  2.416278
H    -5.718618  1.796356  2.393225
H    -5.739460  1.845300  4.897624
H    -5.617063  0.078606  4.942058
H    -7.896511  0.533093  5.055435
H    -7.885021  1.500899  3.734669
N    -1.362425  -2.252751  4.604077
C    -0.786022  -3.373267  5.347310
H    -2.313179  -2.366830  4.257476
H    -1.469947  -3.662227  6.153680
H    0.174216  -3.071503  5.770226
H    -0.643725  -4.229294  4.676136
Sr    2.065913  0.691422  4.397429
