34
Energy: -105398.718293 eV PBE+vdW (tier 2 basis)
C    -0.938163  -0.511696  -0.288835
C    -1.060248  0.384458  0.897809
O    -0.769238  1.648784  0.756008
H    -1.435406  -1.475615  -0.149107
H    0.126670  -0.701231  -0.489897
H    -1.354915  -0.013602  -1.172227
N    -1.437103  -0.038706  2.074506
C    -1.896634  -1.355303  2.528697
C    -2.609103  -0.987609  3.869256
O    -2.461101  0.159602  4.317756
H    -1.574296  0.620927  2.881074
H    -2.637107  -1.748032  1.815995
C    -0.757258  -2.378729  2.721919
C    0.269288  -2.021369  3.800370
C    1.363565  -3.086264  3.922977
C    2.371115  -2.786346  5.037699
N    3.425756  -3.780798  5.064891
H    -0.255361  -2.530931  1.753689
H    -1.224462  -3.347190  2.958792
H    -0.239032  -1.897165  4.769932
H    0.730449  -1.045739  3.572497
H    1.911960  -3.184191  2.973424
H    0.898423  -4.068053  4.112688
H    1.829508  -2.704228  6.003443
H    2.840066  -1.805645  4.863652
H    3.113559  -4.723871  5.288042
H    4.224994  -3.532209  5.642322
N    -3.320511  -1.956722  4.454086
C    -4.023838  -1.792725  5.725086
H    -3.393190  -2.854918  3.986828
H    -3.668403  -2.533269  6.451371
H    -5.103614  -1.919092  5.580991
H    -3.823874  -0.787142  6.103550
Sr    -0.417564  3.767389  0.484181
