34
Energy: -105398.600663 eV PBE+vdW (tier 2 basis)
C    0.177120  0.390375  0.484112
C    -0.041938  0.237247  1.951415
O    0.999311  0.061036  2.722761
H    1.064845  1.006945  0.302702
H    -0.682139  0.832068  -0.028911
H    0.364752  -0.599795  0.042297
N    -1.223482  0.259525  2.502841
C    -2.560430  0.460133  1.930269
C    -3.385748  0.799436  3.205856
O    -2.865526  0.573184  4.312405
H    -1.355373  0.191785  3.544278
H    -2.541277  1.335680  1.264665
C    -3.067293  -0.771113  1.139832
C    -3.043509  -2.128314  1.859572
C    -4.144542  -2.398293  2.899007
C    -5.574473  -2.375331  2.344457
N    -5.728976  -3.286964  1.219113
H    -2.454852  -0.842408  0.229012
H    -4.080101  -0.546937  0.779126
H    -2.059938  -2.283499  2.331893
H    -3.123639  -2.893532  1.075443
H    -4.085033  -1.701526  3.746732
H    -3.954155  -3.394174  3.329758
H    -5.836327  -1.365892  1.990711
H    -6.268894  -2.588563  3.179996
H    -5.616193  -4.265551  1.482552
H    -6.619798  -3.183310  0.737473
N    -4.614686  1.314931  3.072211
C    -5.325168  1.713047  1.861255
H    -5.086798  1.471897  3.960572
H    -6.004257  0.924668  1.508981
H    -4.626256  1.965875  1.057427
H    -5.917211  2.608303  2.079019
Sr    2.712699  -0.156005  4.013844
