34
Energy: -105400.253137 eV PBE+vdW (tier 2 basis)
C    0.217460  -0.014446  0.130481
C    0.082958  -0.056226  1.616834
O    1.077512  -0.369058  2.339463
H    0.327104  -1.050994  -0.224648
H    1.132442  0.521924  -0.146920
H    -0.642383  0.437893  -0.374382
N    -1.114531  0.223591  2.151278
C    -1.586583  0.002776  3.537744
C    -1.009023  1.036669  4.517980
O    0.207414  0.980999  4.879548
H    -1.843548  0.450694  1.481045
H    -2.670597  0.170304  3.475107
C    -1.388844  -1.439554  4.049942
C    -1.949831  -2.501262  3.105276
C    -1.710947  -3.936607  3.581631
C    -1.933451  -4.945672  2.445392
N    -0.965321  -4.721112  1.358448
H    -1.866102  -1.498474  5.040777
H    -0.318281  -1.652902  4.221039
H    -1.479694  -2.414204  2.113553
H    -3.030519  -2.332331  2.967229
H    -2.361464  -4.183351  4.433625
H    -0.671588  -4.041536  3.941445
H    -2.946069  -4.812287  2.037565
H    -1.898441  -5.966489  2.859413
H    -0.111991  -5.253883  1.530535
H    -1.334848  -5.072704  0.475765
N    -1.838824  1.949525  4.998465
C    -1.497885  2.981381  5.978349
H    -2.798079  1.937439  4.660429
H    -2.247219  2.979915  6.777796
H    -1.489987  3.967007  5.496224
H    -0.511874  2.769421  6.397121
Sr    2.122032  -0.145446  4.326454
