34
Energy: -105400.420424 eV PBE+vdW (tier 2 basis)
C    -0.156448  0.311281  -0.060444
C    -0.366000  -0.326529  1.284902
O    0.657043  -0.559760  2.026949
H    -0.256438  1.404991  0.015297
H    -0.872829  -0.032431  -0.816084
H    0.864831  0.104554  -0.395956
N    -1.560875  -0.649391  1.819902
C    -2.801917  -0.054060  1.330482
C    -3.165497  1.104090  2.303274
O    -2.446908  1.324381  3.322929
H    -1.509236  -2.349847  1.828659
H    -2.661524  0.416106  0.341158
C    -3.933958  -1.096140  1.199681
C    -3.865055  -1.977661  -0.073478
C    -3.404617  -3.438890  0.058432
C    -1.915090  -3.713302  0.223012
N    -1.417470  -3.410364  1.620658
H    -4.896478  -0.568388  1.191722
H    -3.961518  -1.708118  2.116114
H    -3.254994  -1.475098  -0.841186
H    -4.876013  -2.018890  -0.498563
H    -3.692433  -3.960356  -0.866161
H    -3.970131  -3.952085  0.854878
H    -1.305987  -3.104519  -0.458265
H    -1.688455  -4.768559  0.029474
H    -1.950402  -3.948995  2.313517
H    -0.427978  -3.667843  1.719675
N    -4.220270  1.855139  2.014718
C    -4.697215  2.988276  2.808633
H    -4.735973  1.640572  1.165296
H    -5.736934  2.816931  3.111129
H    -4.643266  3.908076  2.213944
H    -4.069506  3.089471  3.696352
Sr    -0.461097  0.244191  3.948861
