34
Energy: -105398.49816 eV PBE+vdW (tier 2 basis)
C    -0.515734  0.277694  -0.269606
C    -0.301326  0.198257  1.213346
O    0.849557  0.150734  1.692070
H    0.114230  1.075417  -0.680255
H    -1.558124  0.444424  -0.561381
H    -0.171034  -0.664719  -0.717836
N    -1.422459  0.202202  1.992728
C    -1.599060  -0.152979  3.409972
C    -0.681258  0.535061  4.414124
O    -1.159608  0.705176  5.618285
H    -2.297924  0.253934  1.481487
H    -2.588800  0.252257  3.667281
C    -1.700477  -1.693847  3.647513
C    -0.568260  -2.598304  3.155125
C    0.744553  -2.584745  3.944008
C    1.658709  -3.759932  3.549922
N    1.042932  -5.044305  3.852827
H    -2.633722  -1.999990  3.151995
H    -1.871729  -1.853289  4.725903
H    -0.364042  -2.399463  2.091946
H    -0.954876  -3.628341  3.187974
H    0.532379  -2.648707  5.026929
H    1.309017  -1.656636  3.779347
H    2.639604  -3.628422  4.042039
H    1.847395  -3.717054  2.467893
H    1.159812  -5.336965  4.820729
H    1.346474  -5.797655  3.241138
N    0.519774  0.911766  4.095594
C    1.461961  1.550308  5.001568
H    0.812242  0.617946  3.078532
H    2.329842  1.878151  4.422582
H    1.804823  0.844198  5.771629
H    1.012759  2.430173  5.481602
Sr    -1.893525  1.020739  7.617917
