34
Energy: -105400.650419 eV PBE+vdW (tier 2 basis)
C    -0.449190  -1.273365  1.042842
C    -0.248517  -0.299131  2.152811
O    0.900421  -0.007097  2.583468
H    0.270194  -1.103560  0.234244
H    -1.471865  -1.294904  0.654010
H    -0.232004  -2.272311  1.455764
N    -1.327746  0.281266  2.754491
C    -2.446231  0.916052  2.059793
C    -1.926395  1.640469  0.798533
O    -0.737090  2.075834  0.756002
H    -1.092399  0.711019  3.648106
H    -3.197244  0.168418  1.763315
C    -3.123553  1.907690  3.047721
C    -2.220604  2.980600  3.687830
C    -2.010994  4.287133  2.904633
C    -0.864923  5.134788  3.463624
N    0.482762  4.753203  2.891152
H    -3.569623  1.287563  3.838234
H    -3.967517  2.387720  2.533154
H    -1.236024  2.552546  3.965383
H    -2.659417  3.238907  4.661934
H    -2.936227  4.877631  2.958803
H    -1.838098  4.108634  1.832724
H    -0.802295  5.018755  4.553894
H    -1.047775  6.199740  3.269697
H    1.189756  5.166077  3.510445
H    0.585703  5.302392  2.028698
N    -2.785540  1.800131  -0.196297
C    -2.525067  2.514392  -1.446218
H    -3.713349  1.397304  -0.080753
H    -2.768725  1.864990  -2.294788
H    -1.469163  2.789770  -1.488158
H    -3.145767  3.417465  -1.498697
Sr    1.205663  2.318416  2.067567
