34
Energy: -105398.579067 eV PBE+vdW (tier 2 basis)
C    0.088221  0.422407  0.612970
C    -0.134379  0.276274  2.080500
O    0.908069  0.224790  2.866742
H    0.690715  1.321201  0.424477
H    -0.841728  0.490536  0.042508
H    0.664225  -0.438507  0.246224
N    -1.320615  0.200540  2.618969
C    -2.664822  0.221259  2.025392
C    -3.526629  0.606567  3.266555
O    -3.059784  0.315697  4.380921
H    -1.454925  0.111021  3.654797
H    -2.711447  0.977049  1.232022
C    -3.022767  -1.194285  1.498548
C    -4.336186  -1.322706  0.718907
C    -4.330759  -0.646065  -0.654867
C    -5.681669  -0.748400  -1.372449
N    -5.650181  -0.051267  -2.646684
H    -3.034160  -1.870982  2.365785
H    -2.191775  -1.524862  0.855007
H    -5.177312  -0.960172  1.328423
H    -4.524872  -2.398699  0.588498
H    -3.549960  -1.106050  -1.284029
H    -4.073245  0.423518  -0.586063
H    -6.462692  -0.281385  -0.753557
H    -5.960463  -1.817343  -1.466765
H    -5.073685  -0.507621  -3.351682
H    -6.572734  0.129998  -3.035682
N    -4.719180  1.198819  3.116234
C    -5.363843  1.741853  1.926208
H    -5.200803  1.344237  4.002604
H    -5.677964  2.773810  2.122879
H    -6.248035  1.152784  1.650661
H    -4.675576  1.753041  1.077420
Sr    2.596367  0.156349  4.213228
