34
Energy: -105400.317694 eV PBE+vdW (tier 2 basis)
C    0.715482  -0.582994  0.490324
C    -0.014941  -0.043039  1.677613
O    -0.040531  -0.694517  2.761834
H    0.270316  -1.549130  0.214190
H    0.694169  0.080716  -0.380029
H    1.758969  -0.781056  0.768784
N    -0.638706  1.143224  1.543241
C    -1.500119  1.841935  2.523299
C    -0.653517  2.396847  3.687585
O    -0.219035  1.630019  4.596389
H    -0.552778  1.585261  0.632496
H    -1.911761  2.699786  1.974843
C    -2.680864  0.960795  2.987087
C    -3.449490  1.466600  4.215323
C    -4.411740  0.422392  4.793345
C    -3.750189  -0.879961  5.275318
N    -4.635647  -1.661147  6.063098
H    -2.311866  -0.061983  3.153031
H    -3.364681  0.857298  2.132445
H    -4.018880  2.369246  3.952551
H    -2.749866  1.777208  5.009537
H    -5.187083  0.152466  4.062372
H    -4.941717  0.873626  5.644613
H    -2.775253  -0.564195  5.826135
H    -3.430986  -1.493981  4.415115
H    -4.375983  -2.627821  6.228764
H    -4.985417  -1.219116  6.908780
N    -0.417769  3.701029  3.694137
C    0.362043  4.417073  4.703879
H    -0.804672  4.255547  2.934555
H    1.276577  4.819539  4.250964
H    0.624470  3.728002  5.509324
H    -0.233987  5.245427  5.103747
Sr    -0.331301  -0.631625  5.044597
