34
Energy: -105398.73717 eV PBE+vdW (tier 2 basis)
C    -0.941074  2.792113  0.081329
C    -1.004833  1.910779  1.282045
O    -0.154376  2.126592  2.258370
H    -0.827860  3.837177  0.393867
H    -1.822735  2.698880  -0.558771
H    -0.054600  2.528816  -0.514597
N    -1.854089  0.934014  1.412798
C    -2.938816  0.455760  0.545252
C    -3.739452  -0.434224  1.545342
O    -3.214412  -0.681096  2.648289
H    -1.923613  0.352638  2.294513
H    -3.556814  1.308209  0.226351
C    -2.442443  -0.327683  -0.687114
C    -1.656044  -1.605739  -0.373788
C    -1.374868  -2.469752  -1.615567
C    -2.536150  -3.360792  -2.070508
N    -3.700594  -2.596158  -2.547326
H    -1.836335  0.347668  -1.311060
H    -3.319213  -0.591074  -1.292726
H    -2.206594  -2.214127  0.361993
H    -0.699271  -1.345028  0.106843
H    -0.526441  -3.133892  -1.397428
H    -1.043200  -1.833060  -2.453510
H    -2.870307  -3.978682  -1.223379
H    -2.153530  -4.061827  -2.834248
H    -3.491591  -2.139508  -3.437446
H    -4.486396  -3.222194  -2.727323
N    -4.936881  -0.905416  1.186620
C    -5.676213  -0.687930  -0.056599
H    -5.363627  -1.508168  1.886841
H    -5.600857  0.356598  -0.382365
H    -6.732825  -0.895769  0.136635
H    -5.319071  -1.348030  -0.860406
Sr    1.135762  2.461645  3.937566
