34
Energy: -105398.721955 eV PBE+vdW (tier 2 basis)
C    -0.264387  0.920760  0.157649
C    -0.366992  0.781315  1.639447
O    0.499584  1.410189  2.384869
H    -0.207889  1.984806  -0.105568
H    -1.101816  0.463742  -0.375964
H    0.667464  0.449467  -0.186171
N    -1.282924  0.058204  2.226521
C    -2.392154  -0.737247  1.688289
C    -3.313190  -0.854774  2.943135
O    -2.803565  -0.654922  4.056230
H    -1.357786  0.007592  3.271524
H    -2.900085  -0.181964  0.886042
C    -1.893714  -2.109429  1.175491
C    -2.955589  -2.972626  0.484907
C    -2.343962  -4.221119  -0.161220
C    -3.389567  -5.104694  -0.853476
N    -2.766370  -6.250752  -1.483900
H    -1.449397  -2.655176  2.021937
H    -1.075093  -1.918355  0.463702
H    -3.470832  -2.378621  -0.290044
H    -3.722061  -3.283166  1.211169
H    -1.820381  -4.812910  0.607647
H    -1.585127  -3.933921  -0.904838
H    -3.902745  -4.528103  -1.637272
H    -4.168010  -5.391634  -0.115706
H    -2.369570  -6.931337  -0.839554
H    -3.340679  -6.716689  -2.181322
N    -4.594820  -1.172617  2.730280
C    -5.568985  -1.371092  3.801692
H    -4.909733  -1.295359  1.773511
H    -5.913906  -2.412370  3.817290
H    -6.429708  -0.708666  3.653398
H    -5.087831  -1.136331  4.754450
Sr    1.895115  2.486974  3.643812
