34
Energy: -105399.630167 eV PBE+vdW (tier 2 basis)
C    0.857270  1.378338  0.299288
C    0.547971  0.659953  1.570131
O    1.444442  0.472681  2.451037
H    0.106877  1.214907  -0.479581
H    1.836935  1.033806  -0.056791
H    0.955139  2.459286  0.484683
N    -0.708091  0.219945  1.813420
C    -1.908459  1.038874  1.587427
C    -1.672434  2.393418  2.283272
O    -0.916990  2.432444  3.324573
H    -0.781721  -0.401224  2.620645
H    -2.075709  1.180004  0.511597
C    -3.105609  0.275991  2.212029
C    -4.503040  0.859902  1.991012
C    -5.062601  0.698026  0.574090
C    -6.388143  1.449947  0.387288
N    -6.191746  2.915720  0.439374
H    -2.910870  0.188289  3.294751
H    -3.061298  -0.742835  1.795493
H    -4.537976  1.918257  2.292344
H    -5.174591  0.342056  2.692184
H    -5.220977  -0.370325  0.361062
H    -4.348653  1.058069  -0.186320
H    -7.085875  1.149585  1.182209
H    -6.849986  1.137033  -0.560048
H    -6.287941  3.316080  -0.493831
H    -6.918072  3.357173  1.001498
N    -2.226101  3.501905  1.830553
C    -3.025670  3.725280  0.621126
H    -2.067533  4.319376  2.420760
H    -2.675550  3.079734  -0.191188
H    -2.881331  4.767450  0.319447
H    -4.105536  3.536087  0.789129
Sr    0.984813  1.701046  4.376036
