34
Energy: -105400.289276 eV PBE+vdW (tier 2 basis)
C    -1.118185  1.770891  -0.741065
C    -1.283079  2.287549  0.649702
O    -0.869281  3.450254  0.961426
H    -0.062548  1.828329  -1.036069
H    -1.677091  2.428657  -1.422347
H    -1.476717  0.744329  -0.867597
N    -1.884449  1.509107  1.554667
C    -2.331921  1.912979  2.900803
C    -1.140463  1.922636  3.882928
O    -0.339630  2.913569  3.875709
H    -2.230951  0.609566  1.226022
H    -2.655342  2.964569  2.831473
C    -3.535330  1.053935  3.312572
C    -4.741362  1.235869  2.384763
C    -5.902774  0.286982  2.697524
C    -6.874536  0.185518  1.513873
N    -6.184508  -0.360710  0.333702
H    -3.809579  1.313241  4.346349
H    -3.248156  -0.014400  3.316431
H    -4.457653  1.043505  1.336746
H    -5.085634  2.281743  2.435294
H    -6.443262  0.609736  3.599404
H    -5.509875  -0.721121  2.914406
H    -7.244550  1.189556  1.257839
H    -7.755274  -0.401597  1.822631
H    -6.161842  -1.380532  0.379095
H    -6.699659  -0.133108  -0.516131
N    -0.990668  0.906397  4.710808
C    0.069356  0.757725  5.707526
H    -1.691338  0.169042  4.664150
H    0.718893  -0.084031  5.436988
H    -0.381039  0.560312  6.687052
H    0.656128  1.677421  5.751738
Sr    0.215324  4.674080  2.523591
