34
Energy: -105398.336418 eV PBE+vdW (tier 2 basis)
C    0.075974  0.514234  -0.198346
C    0.174357  0.157725  1.244439
O    1.368344  -0.021946  1.731023
H    -0.943685  0.655728  -0.549937
H    0.533877  -0.283587  -0.795190
H    0.646175  1.441946  -0.358549
N    -0.836497  0.126477  2.102706
C    -2.265827  -0.128731  1.844549
C    -2.330830  -1.557678  1.215773
O    -1.408749  -1.908098  0.473882
H    -0.543861  -0.066313  3.059396
H    -2.722142  -0.108283  2.842314
C    -2.974840  0.941669  0.979164
C    -4.480176  1.066187  1.243331
C    -5.094637  2.241785  0.476384
C    -6.599915  2.392826  0.730382
N    -7.137344  3.533739  0.018917
H    -2.823795  0.729109  -0.087800
H    -2.492976  1.908524  1.190058
H    -4.657015  1.201055  2.323461
H    -4.992702  0.137685  0.951732
H    -4.921278  2.108711  -0.604438
H    -4.598578  3.182768  0.758710
H    -6.781925  2.550148  1.803733
H    -7.110306  1.443551  0.462616
H    -7.135616  3.451786  -0.995368
H    -8.041021  3.859771  0.350655
N    -3.390696  -2.346464  1.480133
C    -4.500736  -2.185904  2.413319
H    -3.360306  -3.223445  0.962386
H    -4.604673  -3.099354  3.011177
H    -5.445171  -2.006216  1.883587
H    -4.325191  -1.352476  3.098585
Sr    3.461513  -0.575352  1.942170
