34
Energy: -105399.507951 eV PBE+vdW (tier 2 basis)
C    -1.301278  -1.272164  0.349471
C    -0.230774  -0.442149  0.975212
O    0.997486  -0.680323  0.750099
H    -0.972308  -2.319254  0.362234
H    -1.428979  -0.997672  -0.709383
H    -2.265246  -1.184522  0.859169
N    -0.555580  0.599503  1.774381
C    -1.597724  1.581640  1.447755
C    -1.285042  2.126967  0.037136
O    -0.070557  2.108494  -0.379301
H    0.232630  0.993851  2.290061
H    -2.582720  1.096842  1.456090
C    -1.561848  2.685100  2.535222
C    -2.577041  3.813728  2.382625
C    -2.634963  4.731476  3.608605
C    -3.724401  5.803078  3.463201
N    -5.032280  5.186850  3.203395
H    -0.537621  3.097997  2.570088
H    -1.725417  2.163878  3.491292
H    -3.590812  3.412490  2.238681
H    -2.342843  4.423992  1.494304
H    -1.665113  5.223630  3.779739
H    -2.839477  4.124896  4.506683
H    -3.483234  6.450802  2.606426
H    -3.701839  6.449019  4.357981
H    -5.430546  4.814539  4.067128
H    -5.695316  5.886253  2.870574
N    -2.233750  2.604503  -0.748734
C    -3.685669  2.675245  -0.554765
H    -1.888211  2.989875  -1.629030
H    -4.006746  2.020206  0.257847
H    -4.171500  2.357901  -1.484041
H    -3.990695  3.701795  -0.319553
Sr    1.972056  1.048579  -0.460145
