34
Energy: -105400.332429 eV PBE+vdW (tier 2 basis)
C    0.968994  0.470226  1.118374
C    0.314382  0.451952  2.462257
O    0.986272  0.836020  3.483606
H    1.979453  0.053078  1.202743
H    1.080282  1.513221  0.787308
H    0.407187  -0.088462  0.366490
N    -0.949869  0.048331  2.575200
C    -1.624857  0.091413  3.883668
C    -1.000871  -0.937271  4.852990
O    -0.278700  -0.502508  5.812803
H    -1.485805  -0.129073  1.653862
H    -1.347692  1.052278  4.340642
C    -3.187328  0.028615  3.865995
C    -3.891042  -0.313741  2.549485
C    -3.960893  0.836289  1.520545
C    -3.646144  0.349831  0.110113
N    -2.214261  -0.075958  0.029723
H    -3.549551  1.005442  4.212578
H    -3.500028  -0.681624  4.643951
H    -4.910691  -0.634170  2.801135
H    -3.425189  -1.194935  2.084066
H    -3.259870  1.646368  1.781727
H    -4.957951  1.295753  1.536946
H    -4.283122  -0.509073  -0.140583
H    -3.863255  1.130170  -0.631353
H    -2.128961  -0.907568  -0.557281
H    -1.689667  0.648954  -0.464112
N    -1.187035  -2.243600  4.730285
C    -1.953124  -2.988143  3.730713
H    -0.754650  -2.793537  5.472527
H    -1.552617  -4.005361  3.686466
H    -1.846273  -2.532116  2.742755
H    -3.014879  -3.040691  4.002512
Sr    1.496127  0.939354  5.675050
