34
Energy: -105398.590193 eV PBE+vdW (tier 2 basis)
C    -0.551618  -1.434779  -0.324305
C    -0.182634  -0.846031  0.995401
O    1.026009  -1.047213  1.451042
H    0.153738  -1.083201  -1.089321
H    -1.569324  -1.185010  -0.635224
H    -0.457671  -2.528363  -0.272592
N    -1.005776  -0.136045  1.716611
C    -2.407031  0.253036  1.503043
C    -2.529431  1.453153  2.491145
O    -1.748554  1.460976  3.457977
H    -0.721938  0.276651  2.637980
H    -2.557529  0.551548  0.458340
C    -3.340324  -0.918334  1.912924
C    -4.834151  -0.748091  1.624113
C    -5.222159  -0.788085  0.142793
C    -6.744810  -0.767224  -0.070399
N    -7.378569  -1.941031  0.510718
H    -3.185347  -1.093770  2.988015
H    -2.978638  -1.821171  1.394799
H    -5.217180  0.167409  2.099414
H    -5.359264  -1.571073  2.129801
H    -4.810986  -1.702115  -0.319752
H    -4.792699  0.056865  -0.419673
H    -6.949815  -0.659278  -1.152080
H    -7.170789  0.122368  0.416723
H    -8.364778  -1.812795  0.723047
H    -7.262151  -2.786861  -0.044346
N    -3.453581  2.405088  2.303639
C    -4.348282  2.643948  1.177578
H    -3.466477  3.095601  3.052966
H    -4.288459  3.699684  0.888469
H    -5.388940  2.408737  1.435552
H    -4.057601  2.040526  0.313765
Sr    3.010585  -1.333368  2.252208
