34
Energy: -105398.663016 eV PBE+vdW (tier 2 basis)
C    0.497970  2.014210  0.568851
C    -0.080797  1.252879  1.713211
O    0.700611  0.943178  2.713311
H    1.238059  1.385354  0.053584
H    1.027459  2.897675  0.948176
H    -0.253159  2.332257  -0.158785
N    -1.330902  0.880048  1.764247
C    -2.448821  1.071922  0.831953
C    -3.668391  0.864955  1.780022
O    -3.493461  0.191889  2.806937
H    -1.718488  0.369115  2.593146
H    -2.437923  2.096301  0.433077
C    -2.375314  0.037494  -0.320768
C    -3.574155  0.039952  -1.286043
C    -4.708932  -0.911136  -0.878937
C    -6.027978  -0.609017  -1.592400
N    -7.117329  -1.384504  -1.020322
H    -2.253012  -0.962287  0.123015
H    -1.449715  0.247971  -0.876510
H    -3.209774  -0.233998  -2.285715
H    -3.958546  1.068493  -1.403510
H    -4.893211  -0.871054  0.203649
H    -4.400339  -1.947301  -1.091083
H    -5.903837  -0.765472  -2.683122
H    -6.279797  0.457246  -1.467340
H    -8.029791  -1.141586  -1.401471
H    -6.984501  -2.392106  -1.097939
N    -4.823426  1.433874  1.416641
C    -6.091708  1.197135  2.103602
H    -4.849325  1.947243  0.541689
H    -6.651182  2.135912  2.173100
H    -5.880313  0.821959  3.108357
H    -6.690821  0.452604  1.559372
Sr    1.974333  0.465696  4.392148
