34
Energy: -105400.168273 eV PBE+vdW (tier 2 basis)
C    -0.388917  -0.924854  -0.321387
C    -0.215080  -0.589353  1.122810
O    0.914100  -0.206625  1.566783
H    -0.180600  -0.023640  -0.915987
H    -1.392633  -1.287105  -0.565965
H    0.351575  -1.679511  -0.616469
N    -1.271595  -0.684482  1.938541
C    -1.327700  -0.226774  3.341875
C    -0.625554  -1.263879  4.245478
O    0.637234  -1.187289  4.401789
H    -2.153336  -0.979680  1.524076
H    -0.706031  0.680047  3.407837
C    -2.770752  0.160911  3.704010
C    -2.918743  1.059269  4.938228
C    -2.601404  0.454602  6.309175
C    -3.106957  1.360910  7.448968
N    -4.558480  1.513174  7.369491
H    -3.410346  -0.736005  3.795407
H    -3.168230  0.707967  2.834814
H    -3.966089  1.393817  4.977592
H    -2.317771  1.971959  4.786542
H    -1.520480  0.280749  6.449174
H    -3.098302  -0.526948  6.411297
H    -2.648792  2.355595  7.342684
H    -2.748421  0.955471  8.411448
H    -4.866082  2.396518  7.770953
H    -5.042821  0.774307  7.877881
N    -1.346295  -2.218405  4.798794
C    -0.849689  -3.268110  5.685643
H    -2.354152  -2.163291  4.666712
H    -1.161395  -4.247767  5.305251
H    -1.266704  -3.124948  6.690517
H    0.239755  -3.217700  5.733240
Sr    2.420632  -0.328497  3.255560
