34
Energy: -105400.023069 eV PBE+vdW (tier 2 basis)
C    0.208509  -0.539062  0.033911
C    0.143226  -0.502139  1.526188
O    1.211751  -0.462338  2.215407
H    0.847226  -1.370697  -0.289723
H    0.689194  0.386472  -0.314662
H    -0.773504  -0.629445  -0.441491
N    -1.060225  -0.499197  2.108728
C    -1.365777  -0.262465  3.529019
C    -1.188160  -1.577899  4.331598
O    0.026400  -1.939321  4.533236
H    -1.874347  -0.531520  1.497156
H    -0.546671  0.358661  3.923173
C    -2.672194  0.549241  3.651397
C    -3.777318  0.203862  2.642481
C    -5.184499  0.625810  3.086185
C    -6.265748  -0.144158  2.318342
N    -6.188959  -1.584239  2.635528
H    -2.399212  1.608807  3.548183
H    -3.041799  0.449071  4.681101
H    -3.820456  -0.882590  2.453274
H    -3.564639  0.687403  1.674026
H    -5.324686  1.708077  2.954419
H    -5.310667  0.429432  4.163889
H    -6.107994  -0.019805  1.236872
H    -7.251329  0.294487  2.539814
H    -6.577984  -2.137405  1.872291
H    -6.775099  -1.791379  3.445761
N    -2.146225  -2.332013  4.842681
C    -3.613205  -2.240362  4.870720
H    -1.759802  -3.127932  5.352148
H    -3.976772  -3.160087  5.336842
H    -4.061293  -2.162777  3.872009
H    -3.937398  -1.392558  5.484667
Sr    2.186330  -1.466559  3.998430
