34
Energy: -105400.20523 eV PBE+vdW (tier 2 basis)
C    -0.384774  1.314468  1.110881
C    -0.518576  -0.131640  1.455490
O    0.446640  -0.935332  1.259065
H    0.425468  1.741719  1.719308
H    -1.300295  1.889394  1.283658
H    -0.083117  1.418580  0.060654
N    -1.669631  -0.564135  1.984495
C    -1.905178  -1.898778  2.559880
C    -2.206118  -2.920124  1.444462
O    -1.230509  -3.412943  0.789837
H    -2.400289  0.129153  2.130101
H    -0.946705  -2.227153  2.990282
C    -2.927785  -1.812638  3.700913
C    -2.453501  -0.947840  4.883800
C    -1.108771  -1.378675  5.473162
C    -0.686548  -0.566360  6.703656
N    0.670924  -0.939909  7.103040
H    -3.115088  -2.837602  4.055124
H    -3.890880  -1.421870  3.326677
H    -3.235614  -0.997250  5.654938
H    -2.406637  0.113182  4.587514
H    -0.292645  -1.268293  4.737979
H    -1.145368  -2.448838  5.742003
H    -1.446001  -0.688249  7.499069
H    -0.679767  0.502583  6.442030
H    1.079026  -0.226243  7.705810
H    0.668005  -1.802596  7.648591
N    -3.458549  -3.258517  1.203291
C    -3.912577  -4.210476  0.189298
H    -4.172060  -2.833753  1.792458
H    -4.530198  -4.980523  0.665922
H    -3.045346  -4.675146  -0.284026
H    -4.512406  -3.688602  -0.566544
Sr    1.012143  -3.000420  0.518108
