34
Energy: -105399.375956 eV PBE+vdW (tier 2 basis)
C    -0.295207  0.147284  0.311346
C    -0.361174  0.215747  1.798934
O    0.646066  0.607923  2.472970
H    -0.893405  0.974231  -0.101954
H    -0.728935  -0.775272  -0.093345
H    0.737434  0.260786  -0.028589
N    -1.487584  -0.124553  2.466640
C    -2.302069  -1.321318  2.189848
C    -1.333473  -2.539064  2.155965
O    -0.164096  -2.449976  2.663110
H    -1.471990  0.162580  3.443829
H    -2.888947  -1.460920  3.113178
C    -3.330504  -1.225452  1.048287
C    -4.319958  -0.053027  1.195257
C    -3.903922  1.273695  0.543724
C    -3.800542  1.221033  -0.988863
N    -5.020291  0.668160  -1.575089
H    -3.921283  -2.155038  1.072851
H    -2.839694  -1.203830  0.065397
H    -4.548022  0.105768  2.260825
H    -5.257879  -0.366745  0.719999
H    -2.961556  1.661459  0.962245
H    -4.663314  2.023088  0.815747
H    -2.969603  0.563455  -1.298561
H    -3.532772  2.232967  -1.347906
H    -5.801210  1.318259  -1.471097
H    -4.908733  0.515050  -2.576679
N    -1.764822  -3.670825  1.636061
C    -1.008282  -4.926039  1.617675
H    -2.694717  -3.669669  1.223291
H    -1.652392  -5.709916  1.211511
H    -0.703958  -5.200981  2.633954
H    -0.119162  -4.828678  0.982987
Sr    1.605488  -1.223751  3.504533
