34
Energy: -105399.451548 eV PBE+vdW (tier 2 basis)
C    -0.778791  1.658822  -0.853652
C    -0.763218  0.664028  0.259586
O    0.233149  -0.105309  0.435985
H    -0.255661  2.579821  -0.549927
H    -1.792197  1.923834  -1.171729
H    -0.222020  1.240716  -1.700364
N    -1.805106  0.586517  1.117595
C    -2.463327  1.758950  1.694547
C    -1.401336  2.536364  2.510235
O    -0.285299  1.978404  2.795687
H    -1.773027  -0.220742  1.742058
H    -2.833983  2.400568  0.881450
C    -3.648714  1.307416  2.573013
C    -4.785845  0.661031  1.774590
C    -5.914409  0.167721  2.684447
C    -7.067675  -0.485680  1.910416
N    -8.056857  -1.015585  2.838271
H    -4.032497  2.174542  3.127235
H    -3.268257  0.611508  3.341306
H    -4.398318  -0.182720  1.180503
H    -5.176911  1.392243  1.047599
H    -6.307649  1.010183  3.277568
H    -5.530081  -0.567161  3.408641
H    -6.674735  -1.328536  1.321743
H    -7.474705  0.243138  1.180233
H    -8.638885  -0.285331  3.246908
H    -8.675273  -1.691699  2.394675
N    -1.644885  3.769035  2.922554
C    -2.825724  4.606849  2.695943
H    -0.909317  4.176969  3.500518
H    -3.479914  4.595057  3.577031
H    -3.387662  4.267480  1.821814
H    -2.492131  5.634604  2.517505
Sr    1.375513  0.418916  2.391190
