34
Energy: -105399.592618 eV PBE+vdW (tier 2 basis)
C    0.051380  0.074557  0.181442
C    -0.117796  0.200328  1.659008
O    0.797005  0.703607  2.383339
H    -0.595013  -0.691779  -0.257168
H    1.101740  -0.162498  -0.027323
H    -0.159787  1.038062  -0.309367
N    -1.270421  -0.194703  2.246875
C    -2.604510  0.130234  1.718518
C    -2.634231  1.658088  1.496569
O    -1.894353  2.407273  2.237794
H    -1.229336  -0.222932  3.266707
H    -2.757286  -0.383090  0.759675
C    -3.636590  -0.401774  2.745107
C    -5.125311  -0.232453  2.412781
C    -5.744381  1.096219  2.861868
C    -7.182434  1.293948  2.363285
N    -7.248831  1.342449  0.887520
H    -3.421819  0.065603  3.722254
H    -3.399433  -1.470815  2.848595
H    -5.662873  -1.052364  2.910914
H    -5.289069  -0.393429  1.337026
H    -5.142863  1.953039  2.517908
H    -5.743004  1.140153  3.962704
H    -7.565373  2.238710  2.769645
H    -7.824703  0.498593  2.774954
H    -7.611782  0.467090  0.510413
H    -7.906219  2.060546  0.585624
N    -3.351643  2.200223  0.530678
C    -4.261940  1.585584  -0.437650
H    -3.318657  3.220515  0.515937
H    -5.305898  1.600279  -0.053865
H    -3.967165  0.552297  -0.644474
H    -4.200103  2.160304  -1.367656
Sr    0.114536  2.737973  3.288863
