34
Energy: -105399.977406 eV PBE+vdW (tier 2 basis)
C    -0.331977  0.916732  -0.049994
C    -0.306710  0.800005  1.437080
O    0.652923  1.291318  2.112066
H    -0.345175  1.982420  -0.319629
H    -1.194048  0.422595  -0.509417
H    0.592370  0.494258  -0.465704
N    -1.317326  0.177984  2.058788
C    -1.488201  0.136010  3.522114
C    -0.443830  -0.817535  4.144542
O    0.583717  -0.286026  4.690129
H    -2.091381  -0.154281  1.487511
H    -1.190714  1.126480  3.900507
C    -2.967787  -0.051374  3.899825
C    -3.295382  0.245941  5.367687
C    -2.753840  -0.729894  6.417295
C    -3.470571  -0.552000  7.771120
N    -4.898637  -0.828573  7.629231
H    -3.325327  -1.053158  3.626182
H    -3.526265  0.658486  3.268647
H    -4.391321  0.237270  5.465000
H    -2.977716  1.274065  5.611626
H    -1.669298  -0.609026  6.577816
H    -2.915076  -1.769032  6.081671
H    -3.351482  0.490528  8.102154
H    -2.964096  -1.177622  8.526770
H    -5.106768  -1.816211  7.770880
H    -5.451612  -0.310791  8.309035
N    -0.536021  -2.136334  4.094886
C    -1.560879  -3.000631  3.504613
H    0.225945  -2.615137  4.575932
H    -1.088086  -3.954007  3.248799
H    -1.965620  -2.565409  2.587384
H    -2.373283  -3.189482  4.217052
Sr    1.970185  1.383194  3.966923
