34
Energy: -105401.194516 eV PBE+vdW (tier 2 basis)
C    -1.334269  -0.560767  -0.060457
C    -1.051821  -0.232396  1.375128
O    0.005885  0.379006  1.680723
H    -1.342947  0.369534  -0.643843
H    -2.279344  -1.090046  -0.219640
H    -0.510515  -1.174316  -0.449747
N    -1.968009  -0.627053  2.279076
C    -2.075820  -0.546537  3.756874
C    -1.893597  0.861262  4.339485
O    -0.811121  1.505731  4.226985
H    -2.755926  -1.115530  1.863637
H    -3.129366  -0.803910  3.910944
C    -1.310111  -1.630337  4.578039
C    0.164233  -1.454484  4.971795
C    1.202701  -1.784658  3.892243
C    2.644650  -1.464650  4.287345
N    2.853007  0.004122  4.562266
H    -1.448032  -2.581959  4.042241
H    -1.889767  -1.734345  5.507612
H    0.341276  -2.126088  5.825648
H    0.309586  -0.441986  5.383404
H    0.967069  -1.282991  2.939880
H    1.152392  -2.859152  3.661053
H    3.316964  -1.741426  3.466097
H    2.947705  -2.056347  5.163247
H    2.670814  0.169108  5.557923
H    3.856184  0.194212  4.473297
N    -2.894718  1.377367  5.048485
C    -4.227864  0.825690  5.317919
H    -2.683005  2.285524  5.460850
H    -4.789161  0.665799  4.389291
H    -4.775730  1.556226  5.919552
H    -4.168342  -0.107561  5.891405
Sr    1.263952  1.595746  3.175264
