34
Energy: -105398.609243 eV PBE+vdW (tier 2 basis)
C    0.180122  -0.621298  0.184350
C    0.118287  -0.037031  1.554652
O    1.225546  0.034344  2.250547
H    0.954739  -0.105732  -0.398389
H    -0.770832  -0.558760  -0.350834
H    0.472664  -1.678592  0.254169
N    -0.980677  0.407605  2.096408
C    -2.366562  0.463642  1.603103
C    -2.948083  1.584619  2.512303
O    -2.425017  1.722058  3.633148
H    -0.996623  0.826168  3.057932
H    -2.378463  0.750421  0.544173
C    -3.034365  -0.920053  1.810450
C    -4.524544  -1.040276  1.446353
C    -5.493283  -0.792236  2.609560
C    -6.965998  -0.846536  2.176747
N    -7.350624  0.335249  1.394123
H    -2.881654  -1.209577  2.861932
H    -2.453255  -1.632873  1.206103
H    -4.687648  -2.064925  1.080847
H    -4.773364  -0.388680  0.596515
H    -5.301600  0.178589  3.092456
H    -5.326992  -1.556214  3.384941
H    -7.597282  -0.965071  3.072844
H    -7.131217  -1.741083  1.559663
H    -8.034349  0.117158  0.671985
H    -7.750597  1.064990  1.982661
N    -3.946523  2.359844  2.073324
C    -4.633505  2.379720  0.783246
H    -4.262703  3.029784  2.772434
H    -4.886408  3.418642  0.544914
H    -5.554878  1.775481  0.807315
H    -3.979764  2.008056  -0.012791
Sr    3.028557  0.192881  3.414426
