34
Energy: -105398.606074 eV PBE+vdW (tier 2 basis)
C    -0.344721  -0.557195  -0.087993
C    -0.107073  -0.321495  1.365841
O    1.046984  -0.663988  1.871201
H    0.532190  -0.233810  -0.661706
H    -1.232830  -0.042625  -0.464981
H    -0.471640  -1.635761  -0.262864
N    -0.999748  0.204496  2.159943
C    -2.343382  0.733622  1.896934
C    -2.584621  1.592327  3.176904
O    -1.803035  1.440830  4.130858
H    -0.792499  0.411787  3.170304
H    -2.313888  1.380060  1.008004
C    -3.404917  -0.374168  1.713024
C    -3.653200  -1.242125  2.952255
C    -4.641089  -2.390876  2.708714
C    -6.086493  -1.946248  2.449020
N    -6.951327  -3.096293  2.277796
H    -3.099290  -1.007579  0.865425
H    -4.333665  0.114991  1.390814
H    -4.015536  -0.613254  3.781330
H    -2.699413  -1.670971  3.297626
H    -4.631437  -3.045364  3.593868
H    -4.307424  -3.014493  1.864683
H    -6.150810  -1.350551  1.525815
H    -6.409335  -1.278655  3.276875
H    -7.040741  -3.684472  3.103978
H    -7.870337  -2.882994  1.898810
N    -3.621141  2.439386  3.212710
C    -4.597920  2.751444  2.174130
H    -3.720917  2.919671  4.104962
H    -4.901819  3.797668  2.283095
H    -5.493051  2.119459  2.253889
H    -4.163161  2.637652  1.175255
Sr    2.983672  -1.126233  2.717664
