34
Energy: -105398.547108 eV PBE+vdW (tier 2 basis)
C    -1.441230  -1.707250  2.646632
C    -0.171624  -1.323700  1.965194
O    0.870949  -2.102482  2.110879
H    -1.290839  -1.676855  3.735107
H    -1.701813  -2.740003  2.380478
H    -2.278096  -1.050956  2.394844
N    -0.047278  -0.253293  1.231475
C    -1.004189  0.814966  0.895557
C    -0.363991  1.378100  -0.405103
O    0.869081  1.275141  -0.517825
H    0.853448  -0.011694  0.758961
H    -1.992612  0.378623  0.702134
C    -1.052451  1.825704  2.068778
C    -1.930351  3.076978  1.888356
C    -1.292175  4.285172  1.180877
C    -0.138579  4.959686  1.932836
N    1.090804  4.156684  1.914018
H    -0.021454  2.142999  2.289171
H    -1.417318  1.260806  2.940442
H    -2.225827  3.400374  2.897938
H    -2.876839  2.812005  1.392391
H    -2.079409  5.039798  1.039124
H    -0.947050  4.025931  0.167934
H    -0.421589  5.116368  2.984616
H    0.013838  5.966064  1.500607
H    1.476458  4.082718  0.971427
H    1.810701  4.565623  2.509114
N    -1.134185  1.921218  -1.359678
C    -2.580057  2.102854  -1.421435
H    -0.595726  2.271079  -2.150741
H    -2.863119  3.140179  -1.198824
H    -3.089980  1.442176  -0.714751
H    -2.928074  1.852159  -2.429786
Sr    2.572919  -3.399615  2.338039
