34
Energy: -105399.617909 eV PBE+vdW (tier 2 basis)
C    -0.013379  2.145024  0.532429
C    0.187783  0.876889  1.294383
O    1.354114  0.502633  1.644027
H    -0.056551  3.005439  1.218813
H    -0.926643  2.136289  -0.071276
H    0.857547  2.297601  -0.115875
N    -0.868861  0.112387  1.641035
C    -2.120162  0.650200  2.165635
C    -1.823287  1.195001  3.596003
O    -0.649403  1.111860  4.091906
H    -0.623423  -0.814020  1.993776
H    -2.422279  1.504027  1.539502
C    -3.232999  -0.413300  2.122896
C    -3.571977  -0.846458  0.695800
C    -4.750054  -1.822483  0.624194
C    -5.240750  -2.013039  -0.818830
N    -5.703221  -0.736918  -1.377388
H    -4.136724  0.001577  2.595309
H    -2.937892  -1.273072  2.749967
H    -2.688928  -1.302115  0.218943
H    -3.836182  0.037281  0.091454
H    -5.585884  -1.437783  1.233031
H    -4.477429  -2.799642  1.051521
H    -6.004835  -2.809348  -0.828386
H    -4.408191  -2.374897  -1.440783
H    -5.717455  -0.771863  -2.395725
H    -6.662426  -0.543049  -1.087560
N    -2.825603  1.745414  4.254511
C    -2.774164  2.313449  5.602183
H    -3.731998  1.756470  3.790390
H    -3.217484  3.315516  5.588429
H    -1.735222  2.376384  5.931327
H    -3.341834  1.680398  6.295565
Sr    1.603974  0.619440  3.938964
