34
Energy: -105399.59343 eV PBE+vdW (tier 2 basis)
C    -1.196378  -0.780324  -0.645421
C    -0.252780  -0.096752  0.285531
O    0.996350  -0.315903  0.233851
H    -2.236792  -0.747572  -0.308699
H    -0.875921  -1.825595  -0.744561
H    -1.128552  -0.336263  -1.650279
N    -0.710151  0.796295  1.196711
C    -1.738115  1.801432  0.931059
C    -1.318732  2.614323  -0.315579
O    -0.103576  2.595079  -0.703822
H    -0.030497  1.060813  1.909858
H    -2.696793  1.300517  0.736080
C    -1.894504  2.724068  2.166597
C    -0.791777  3.763145  2.420028
C    0.621545  3.270125  2.763487
C    1.469405  4.348253  3.480944
N    0.854803  4.676047  4.753776
H    -2.014971  2.064374  3.039522
H    -2.850545  3.254468  2.068253
H    -1.112320  4.350681  3.293660
H    -0.736952  4.477559  1.582480
H    1.182999  2.972285  1.841534
H    0.584680  2.378200  3.414385
H    1.493990  5.252984  2.855645
H    2.512822  3.989434  3.559944
H    1.199790  4.101321  5.520108
H    0.980954  5.651347  5.012322
N    -2.209792  3.346698  -0.962229
C    -3.639327  3.520544  -0.689563
H    -1.828362  3.889303  -1.737932
H    -4.160800  3.640815  -1.644487
H    -3.810093  4.415301  -0.077561
H    -4.052401  2.645676  -0.179506
Sr    2.009621  1.705569  -0.352280
