34
Energy: -105400.219388 eV PBE+vdW (tier 2 basis)
C    0.652039  1.008438  0.485270
C    0.310974  0.293021  1.750570
O    1.073546  0.376213  2.765848
H    0.674295  2.088401  0.690820
H    -0.056162  0.816381  -0.327155
H    1.661815  0.724986  0.161483
N    -0.816412  -0.425188  1.800262
C    -1.405901  -1.041339  3.004386
C    -0.663799  -2.352477  3.345442
O    0.425862  -2.293048  4.004154
H    -1.394626  -0.439174  0.962313
H    -1.193307  -0.365754  3.847087
C    -2.924420  -1.148814  2.827180
C    -3.704502  -1.556162  4.085289
C    -3.575541  -0.592752  5.277673
C    -3.832943  0.886894  4.951239
N    -5.023848  1.042723  4.114909
H    -3.164230  -1.830245  1.990744
H    -3.295255  -0.161760  2.509203
H    -3.434829  -2.572153  4.413543
H    -4.757897  -1.606408  3.782556
H    -2.586209  -0.681836  5.759435
H    -4.290805  -0.924027  6.045339
H    -2.982075  1.306483  4.384774
H    -3.860878  1.448582  5.903301
H    -5.863546  0.757817  4.622368
H    -5.165958  2.021400  3.865527
N    -1.175964  -3.497604  2.938945
C    -0.609825  -4.825887  3.169965
H    -2.066192  -3.451367  2.446812
H    -1.361466  -5.460604  3.653609
H    0.266381  -4.738488  3.815419
H    -0.323042  -5.279234  2.213044
Sr    2.046342  -0.750713  4.473240
