34
Energy: -105398.67667 eV PBE+vdW (tier 2 basis)
C    -1.224414  1.851978  -1.136658
C    -0.874461  1.945316  0.310713
O    -0.008434  2.848277  0.685080
H    -0.408773  1.345149  -1.673728
H    -1.321483  2.858353  -1.560034
H    -2.147544  1.293347  -1.316157
N    -1.386231  1.160927  1.220315
C    -2.416330  0.120089  1.135185
C    -2.842201  -0.008755  2.630571
O    -2.154267  0.565156  3.490550
H    -1.179153  1.289831  2.243913
H    -3.269357  0.500657  0.553246
C    -1.912389  -1.195354  0.497307
C    -0.751037  -1.919957  1.196230
C    -1.131020  -2.746058  2.431224
C    0.024820  -3.620422  2.933079
N    -0.372424  -4.380732  4.104619
H    -1.629064  -0.965292  -0.540506
H    -2.776664  -1.872128  0.411576
H    0.042594  -1.199253  1.456705
H    -0.300817  -2.591773  0.449790
H    -1.987088  -3.395289  2.181407
H    -1.450861  -2.107976  3.266110
H    0.874736  -2.982604  3.218749
H    0.381208  -4.262766  2.101776
H    0.406961  -4.761908  4.635359
H    -1.045254  -5.120268  3.910754
N    -3.933150  -0.734685  2.888234
C    -4.404471  -1.011245  4.244136
H    -4.411907  -1.187304  2.116686
H    -4.132963  -0.174592  4.894043
H    -3.947042  -1.929493  4.637361
H    -5.492590  -1.125353  4.229137
Sr    1.328885  4.427709  1.310208
