34
Energy: -105399.504895 eV PBE+vdW (tier 2 basis)
C    0.093344  1.629214  0.133784
C    -0.115824  0.453587  1.028576
O    0.867247  -0.246795  1.429048
H    -0.819236  1.945363  -0.379940
H    0.857818  1.360960  -0.606976
H    0.497744  2.479137  0.705412
N    -1.358768  0.130888  1.450516
C    -2.333792  1.112017  1.945386
C    -1.636151  1.919451  3.061607
O    -0.673428  1.374854  3.713035
H    -1.425439  -0.780513  1.905946
H    -2.642518  1.775063  1.126348
C    -3.566425  0.328143  2.452761
C    -4.752621  1.161376  2.935332
C    -5.988177  0.302294  3.256958
C    -6.460847  -0.592603  2.101964
N    -6.469009  0.142102  0.828769
H    -3.237992  -0.364914  3.247747
H    -3.892379  -0.276432  1.593452
H    -5.026777  1.871464  2.142489
H    -4.488102  1.738942  3.834334
H    -6.798888  0.988439  3.544693
H    -5.800981  -0.326495  4.140959
H    -7.436999  -1.025916  2.381291
H    -5.778846  -1.449402  1.984095
H    -6.687609  -0.491291  0.059326
H    -7.214846  0.840914  0.827248
N    -2.003592  3.152910  3.360672
C    -2.997385  4.027354  2.731556
H    -1.505041  3.553975  4.156610
H    -3.335100  3.616896  1.778021
H    -2.537700  5.007187  2.559228
H    -3.864247  4.149022  3.391278
Sr    1.162486  -0.016496  3.722092
