34
Energy: -105400.717316 eV PBE+vdW (tier 2 basis)
C    -0.066754  0.061332  0.998851
C    -1.090020  -0.412460  1.973670
O    -0.819302  -1.280719  2.849613
H    0.822763  0.433018  1.523293
H    -0.437250  0.815543  0.298953
H    0.259798  -0.816852  0.420713
N    -2.358357  0.084672  1.935206
C    -2.715750  1.490464  1.754617
C    -1.801512  2.353928  2.660864
O    -1.296501  1.852942  3.709799
H    -3.028968  -0.460493  2.474955
H    -2.584560  1.791346  0.704554
C    -4.200027  1.694136  2.151230
C    -4.558166  1.296156  3.600893
C    -5.104290  -0.133027  3.809817
C    -4.943807  -0.660971  5.235645
N    -3.580393  -1.264696  5.480267
H    -4.821072  1.140107  1.431845
H    -4.434412  2.754226  1.990162
H    -5.322131  1.994088  3.967946
H    -3.693396  1.482703  4.260580
H    -4.676537  -0.871963  3.107669
H    -6.174301  -0.137576  3.560131
H    -5.713693  -1.415316  5.446795
H    -5.082138  0.150514  5.962897
H    -3.571901  -1.555679  6.465859
H    -3.568540  -2.161955  4.977815
N    -1.616469  3.615115  2.303983
C    -0.858790  4.615668  3.056932
H    -2.045611  3.922796  1.433624
H    -1.530548  5.412655  3.398419
H    -0.086608  5.050669  2.411998
H    -0.390267  4.135979  3.918722
Sr    -1.224789  -0.183976  4.926749
