34
Energy: -105399.933717 eV PBE+vdW (tier 2 basis)
C    -0.253376  -0.521792  -0.212358
C    -0.271413  -0.388726  1.273645
O    0.778192  -0.055005  1.909139
H    0.534132  -1.227252  -0.508382
H    0.010732  0.452313  -0.648410
H    -1.209984  -0.851124  -0.630568
N    -1.415888  -0.617198  1.931171
C    -1.621307  -0.372822  3.367993
C    -0.920778  -1.459001  4.213838
O    0.247278  -1.188703  4.659376
H    -2.239358  -0.845429  1.378312
H    -1.056536  0.540609  3.612624
C    -3.099620  -0.086543  3.672704
C    -3.541551  1.307092  3.207408
C    -5.033988  1.545948  3.451013
C    -5.504984  2.936471  3.006413
N    -6.948092  3.050348  3.175424
H    -3.250776  -0.178117  4.758890
H    -3.740996  -0.851836  3.210368
H    -3.324364  1.435592  2.133015
H    -2.945890  2.071280  3.734770
H    -5.257607  1.412591  4.522679
H    -5.634575  0.795030  2.914691
H    -5.282469  3.065460  1.935795
H    -4.915973  3.708580  3.543419
H    -7.326550  3.835596  2.648828
H    -7.207427  3.191148  4.151549
N    -1.459267  -2.634800  4.494605
C    -2.740392  -3.221084  4.087172
H    -0.876949  -3.213972  5.100527
H    -2.649157  -4.308219  4.169495
H    -2.972229  -2.977501  3.046555
H    -3.554644  -2.886600  4.740989
Sr    2.074330  -0.128635  3.778280
