34
Energy: -105399.442335 eV PBE+vdW (tier 2 basis)
C    -1.506196  -1.166573  2.573903
C    -2.745770  -1.184545  3.406457
O    -3.206630  -2.288874  3.843565
H    -0.814877  -0.379517  2.894423
H    -1.749201  -0.976706  1.516640
H    -1.016482  -2.142100  2.644888
N    -3.416455  -0.048783  3.711567
C    -3.736680  1.033776  2.768021
C    -4.617664  0.422485  1.645549
O    -5.021260  -0.789023  1.712563
H    -4.128716  -0.199135  4.425568
H    -4.396317  1.708938  3.336475
C    -2.534694  1.891215  2.297182
C    -2.866255  3.331947  1.874428
C    -3.673564  4.160328  2.877015
C    -3.548524  5.669482  2.589976
N    -2.148471  6.082962  2.678061
H    -1.989126  1.384701  1.489670
H    -1.856290  1.945736  3.160691
H    -3.335353  3.377242  0.872276
H    -1.904701  3.850331  1.732817
H    -3.297953  3.970117  3.897430
H    -4.744268  3.890518  2.878972
H    -4.226193  6.215720  3.268368
H    -3.903655  5.872173  1.568251
H    -1.971179  6.917276  2.121903
H    -1.887040  6.310134  3.637175
N    -4.964577  1.203377  0.642810
C    -5.833146  0.807798  -0.468204
H    -4.580886  2.149600  0.642595
H    -6.004765  1.683905  -1.098598
H    -6.795556  0.445327  -0.089129
H    -5.358017  0.022817  -1.068983
Sr    -5.122324  -2.873222  2.694156
