34
Energy: -105400.419547 eV PBE+vdW (tier 2 basis)
C    -0.229737  -1.958260  1.439707
C    -1.157668  -1.124799  2.270114
O    -2.261892  -1.614457  2.668943
H    0.636038  -1.406787  1.058689
H    -0.772821  -2.406648  0.598739
H    0.129987  -2.789757  2.063680
N    -0.776010  0.124746  2.556806
C    -1.273989  1.111686  3.532464
C    -2.784987  1.395031  3.536675
O    -3.594998  0.958599  2.646622
H    0.118762  0.391620  2.152524
H    -1.050306  0.716943  4.536462
C    -0.458266  2.416813  3.311201
C    0.917254  2.425863  4.005134
C    0.963451  3.055217  5.407117
C    0.113681  2.438042  6.522433
N    -1.314471  2.878063  6.488282
H    -1.050257  3.273657  3.651111
H    -0.353459  2.553266  2.223612
H    1.616050  2.990364  3.372833
H    1.330258  1.403237  4.051701
H    0.725116  4.129550  5.329906
H    2.009921  3.020759  5.741313
H    0.564843  2.705508  7.489354
H    0.131164  1.338382  6.468845
H    -2.428000  2.430512  5.280609
H    -1.762805  2.568638  7.355806
N    -3.174136  2.136985  4.548381
C    -4.546032  2.593927  4.734406
H    -1.330771  3.901381  6.543506
H    -4.537042  3.451300  5.414547
H    -5.171409  1.809537  5.184840
H    -4.986452  2.901740  3.779587
Sr    -4.413016  -1.080658  2.153049
