34
Energy: -105398.527636 eV PBE+vdW (tier 2 basis)
C    -0.807902  -1.822074  0.605215
C    0.065300  -0.726623  1.117097
O    1.311267  -1.004431  1.396333
H    -1.812663  -1.483616  0.340013
H    -0.893939  -2.604200  1.372567
H    -0.339464  -2.279830  -0.276177
N    -0.353124  0.496674  1.298063
C    -1.669249  1.119598  1.081476
C    -1.262745  2.616342  0.946386
O    -0.236054  2.973012  1.548045
H    0.284011  1.248346  1.647748
H    -2.116920  0.730412  0.158312
C    -2.582854  0.832801  2.301127
C    -4.025732  1.359664  2.220807
C    -4.257081  2.772905  2.780912
C    -4.269884  2.836156  4.315215
N    -5.323246  2.001540  4.872079
H    -2.076543  1.219821  3.198904
H    -2.607924  -0.261380  2.414062
H    -4.658947  0.674488  2.802526
H    -4.393335  1.290090  1.186875
H    -5.226457  3.141860  2.410592
H    -3.504035  3.486931  2.417175
H    -4.354496  3.898024  4.616549
H    -3.310790  2.482613  4.724989
H    -5.247778  1.863456  5.877207
H    -6.262196  2.330145  4.650060
N    -1.993062  3.458087  0.200812
C    -3.179561  3.219911  -0.613017
H    -1.639513  4.413483  0.224776
H    -3.293902  2.156130  -0.839381
H    -3.073507  3.757002  -1.562320
H    -4.088728  3.572343  -0.108795
Sr    3.383295  -1.452410  1.813499
