34
Energy: -105399.70871 eV PBE+vdW (tier 2 basis)
C    0.773462  -1.095254  1.850631
C    0.036020  0.180360  1.886412
O    0.493696  1.259106  1.372063
H    1.065556  -1.348837  2.913543
H    1.655056  -1.018000  1.209946
H    0.155226  -1.944907  1.531326
N    -1.145311  0.269947  2.555617
C    -2.252853  -0.674073  2.468977
C    -3.239242  -0.067344  1.424015
O    -2.790347  0.731993  0.536469
H    -1.408580  1.222038  2.808458
H    -1.861426  -1.582459  1.983979
C    -2.819207  -1.088646  3.835387
C    -1.772594  -1.833549  4.691018
C    -0.822419  -0.939770  5.501074
C    0.438750  -1.670580  5.977353
N    1.296642  -2.104184  4.847007
H    -3.668056  -1.770986  3.670894
H    -3.216791  -0.211187  4.369339
H    -1.192136  -2.494738  4.026728
H    -2.305525  -2.502097  5.381056
H    -1.355810  -0.541161  6.377375
H    -0.498924  -0.069865  4.912135
H    0.156795  -2.526067  6.611392
H    1.014266  -0.988823  6.615775
H    2.277518  -1.937832  5.071798
H    1.220987  -3.111386  4.702832
N    -4.505224  -0.433167  1.468314
C    -5.554519  -0.034216  0.529552
H    -4.777419  -1.049393  2.231476
H    -6.049784  -0.930638  0.138916
H    -5.110252  0.527669  -0.294248
H    -6.296503  0.587951  1.044960
Sr    -1.013204  2.041018  -0.199391
