34
Energy: -105400.674119 eV PBE+vdW (tier 2 basis)
C    2.534399  1.215011  2.198232
C    1.478232  1.269634  3.254728
O    1.481763  2.246216  4.087623
H    2.431612  0.349375  1.538875
H    3.525225  1.193949  2.671094
H    2.486348  2.134252  1.598721
N    0.557295  0.315325  3.300560
C    -0.592092  0.383230  4.214045
C    -0.157675  0.117866  5.671430
O    0.032666  1.107948  6.451110
H    0.539418  -0.441042  2.505595
H    -0.918572  1.435507  4.232736
C    -1.806079  -0.412240  3.675088
C    -1.898774  -1.946529  3.769056
C    -0.825574  -2.827700  3.104092
C    -0.621690  -2.596275  1.599462
N    0.455501  -1.600220  1.335731
H    -1.917971  -0.094138  2.627064
H    -2.687823  -0.006902  4.191686
H    -2.864739  -2.206248  3.309903
H    -2.026282  -2.249586  4.820635
H    -1.129384  -3.871818  3.259165
H    0.159899  -2.741888  3.599982
H    -1.549174  -2.220613  1.146396
H    -0.395640  -3.548868  1.101388
H    1.356220  -2.086222  1.325032
H    0.346590  -1.219664  0.392584
N    0.035646  -1.121754  6.085811
C    0.458781  -1.497699  7.435204
H    -0.131139  -1.868075  5.415828
H    0.085833  -2.503076  7.651427
H    0.043812  -0.792438  8.160887
H    1.554120  -1.500328  7.512573
Sr    1.029246  3.143008  6.092259
