34
Energy: -105400.149186 eV PBE+vdW (tier 2 basis)
C    -0.047711  0.492694  -0.096522
C    0.262763  -0.379500  1.069065
O    1.472018  -0.778322  1.271101
H    0.668838  1.324839  -0.109399
H    -1.065935  0.891124  -0.078132
H    0.103898  -0.066880  -1.030883
N    -0.658636  -0.783074  1.925627
C    -2.117883  -0.852643  1.872553
C    -2.464265  -1.454158  3.265045
O    -1.591097  -2.127147  3.853372
H    -0.350519  -1.329417  2.746961
H    -2.550270  0.151693  1.759715
C    -2.637619  -1.786963  0.746821
C    -2.247778  -3.271528  0.863124
C    -0.829175  -3.670084  0.373491
C    -0.110525  -4.679137  1.269936
N    0.458360  -4.044324  2.514172
H    -2.325913  -1.378076  -0.226094
H    -3.734062  -1.709414  0.756933
H    -2.975873  -3.848380  0.279036
H    -2.394552  -3.603828  1.901755
H    -0.192248  -2.780687  0.232277
H    -0.907508  -4.116913  -0.626721
H    0.721751  -5.151837  0.722001
H    -0.794748  -5.496832  1.540714
H    -0.290061  -3.501891  2.982916
H    0.662976  -4.795095  3.183622
N    -3.701118  -1.253555  3.716540
C    -4.221514  -1.800978  4.969170
H    -4.317855  -0.654486  3.174925
H    -5.079491  -2.453427  4.767611
H    -4.537684  -0.984779  5.629235
H    -3.429255  -2.374984  5.455546
Sr    2.533635  -2.660300  1.886524
