30
Energy: -609762.026403 eV PBE+vdW (tier 2 basis)
C    0.485297  0.289186  0.495874
C    -0.053397  0.448677  1.874955
O    0.550585  1.239991  2.692100
H    -0.090790  -0.421592  -0.105783
H    1.530235  -0.046113  0.552985
H    0.490231  1.266399  -0.006866
N    -1.132278  -0.226015  2.252851
C    -1.748950  -0.113631  3.577243
C    -2.727112  -1.300420  3.871589
O    -3.843489  -1.055325  4.307574
H    -1.588234  -0.818471  1.559606
H    -0.931899  -0.179722  4.315355
C    -2.502586  1.231347  3.736332
C    -2.386567  1.797786  5.105422
N    -1.207962  2.394016  5.563978
C    -3.304748  1.847297  6.120219
C    -1.431696  2.801876  6.828427
N    -2.684532  2.480699  7.176655
H    -3.561305  1.049739  3.514628
H    -2.131416  1.958942  2.999921
H    -4.324040  1.483381  6.169809
H    -0.732679  3.316562  7.478817
H    -3.111386  2.684121  8.078529
N    -2.245919  -2.537059  3.612552
C    -3.034707  -3.745217  3.867142
H    -1.262089  -2.656891  3.393850
H    -2.710788  -4.535246  3.182751
H    -4.091185  -3.520542  3.694290
H    -2.911652  -4.087233  4.903193
Pb    0.851059  2.568458  4.444000
