30
Energy: -609763.192258 eV PBE+vdW (tier 2 basis)
C    -1.086061  -0.607437  -0.563716
C    -0.730495  -0.457453  0.878770
O    0.294872  -1.047680  1.336876
H    -1.999962  -0.076100  -0.848655
H    -1.208984  -1.677598  -0.782905
H    -0.249967  -0.252618  -1.181105
N    -1.539796  0.280061  1.657381
C    -1.518306  0.425531  3.120557
C    -0.462430  1.445030  3.563613
O    0.723551  1.421681  3.108948
H    -2.331209  0.709526  1.186181
H    -2.496996  0.858744  3.350758
C    -1.452161  -0.957195  3.874172
C    -0.381333  -1.190887  4.890613
N    0.981433  -1.243833  4.602761
C    -0.546916  -1.535487  6.210980
C    1.608793  -1.608176  5.724672
N    0.709167  -1.792952  6.707358
H    -1.397566  -1.747173  3.113961
H    -2.415042  -1.097718  4.378530
H    -1.439299  -1.648653  6.814985
H    2.677567  -1.743927  5.850866
H    0.925884  -2.091796  7.655399
N    -0.806261  2.386383  4.432019
C    -2.119149  2.648340  5.034312
H    -0.050435  3.029737  4.669576
H    -2.839302  3.000994  4.284784
H    -1.993540  3.438322  5.779831
H    -2.507292  1.759895  5.545518
Pb    2.056236  -0.398566  2.631967
