30
Energy: -609761.792199 eV PBE+vdW (tier 2 basis)
C    0.106976  -0.239086  0.096021
C    0.001882  -0.156329  1.578774
O    1.081180  -0.186528  2.279874
H    0.748748  0.574714  -0.268393
H    -0.866628  -0.183164  -0.402077
H    0.599284  -1.182685  -0.178469
N    -1.188701  -0.057825  2.161134
C    -1.359526  -0.012582  3.610995
C    -2.670897  -0.583635  4.209156
O    -2.530060  -1.220403  5.248195
H    -2.007038  -0.049632  1.556629
H    -0.628392  -0.724155  4.020564
C    -1.050675  1.404298  4.194016
C    -0.406421  1.320910  5.532595
N    0.848225  0.732150  5.711148
C    -0.856152  1.731014  6.759131
C    1.133914  0.796555  7.024935
N    0.123413  1.394340  7.668015
H    -1.971767  1.994982  4.267674
H    -0.393408  1.944193  3.496067
H    -1.774810  2.222260  7.055329
H    2.034412  0.437440  7.511674
H    0.088289  1.568763  8.670538
N    -3.873321  -0.315058  3.647847
C    -4.208776  0.490667  2.479333
H    -4.645270  -0.756342  4.144725
H    -5.242695  0.836964  2.578071
H    -4.154602  -0.083717  1.539293
H    -3.584316  1.391044  2.409301
Pb    2.234301  -0.387877  4.168709
