30
Energy: -609761.964691 eV PBE+vdW (tier 2 basis)
C    0.464045  -0.334075  0.019280
C    -0.321636  0.562097  0.924675
O    0.039461  1.844952  0.866815
H    0.130479  -1.371679  0.102920
H    1.532916  -0.274077  0.264311
H    0.357447  0.005599  -1.019915
N    -1.281625  0.067361  1.649527
C    -2.069914  0.955743  2.476178
C    -1.256557  1.337181  3.725831
O    -0.750648  2.513933  3.788613
H    -5.475942  -1.141187  3.950153
H    -2.222609  1.935181  1.983790
C    -3.517911  0.429240  2.733698
C    -3.807040  -1.034365  2.597267
N    -4.866820  -1.616613  3.288439
C    -3.310541  -2.031730  1.793850
C    -5.018027  -2.899364  2.933966
N    -4.072709  -3.160113  2.028645
H    -4.165038  0.945578  2.008261
H    -3.860507  0.773855  3.721277
H    -2.486090  -2.008026  1.096736
H    -5.763684  -3.589449  3.310978
H    -3.944852  -4.062944  1.576834
N    -1.002429  0.499397  4.719779
C    -1.381871  -0.904656  4.850820
H    -0.423712  0.895529  5.460740
H    -0.629251  -1.404316  5.468576
H    -1.396304  -1.380479  3.866085
H    -2.356642  -1.008476  5.345763
Pb    0.140009  3.647901  2.023107
