30
Energy: -609763.291096 eV PBE+vdW (tier 2 basis)
C    -0.728857  0.329771  0.053709
C    -0.641004  0.345404  1.544417
O    0.342513  0.915037  2.107568
H    -0.735830  1.362682  -0.319129
H    -1.606579  -0.201382  -0.328705
H    0.179657  -0.144253  -0.344119
N    -1.603128  -0.281547  2.242400
C    -1.642665  -0.555325  3.688812
C    -2.115331  0.681914  4.467867
O    -1.534788  1.805718  4.382229
H    -2.346782  -0.701536  1.691489
H    -2.432320  -1.309343  3.789936
C    -0.315833  -1.230025  4.205612
C    0.385623  -0.668274  5.398899
N    1.041491  0.560928  5.408227
C    0.646451  -1.294657  6.593991
C    1.672911  0.664736  6.580756
N    1.452053  -0.442588  7.312315
H    0.392678  -1.264001  3.368358
H    -0.557239  -2.274889  4.431310
H    0.357547  -2.268841  6.969992
H    2.279614  1.499291  6.915336
H    1.837035  -0.624013  8.236355
N    -3.189976  0.532621  5.230247
C    -3.793746  1.592794  6.040257
H    -3.665520  -0.365833  5.216627
H    -4.194485  1.151428  6.958098
H    -4.609277  2.074978  5.485790
H    -3.035282  2.340371  6.284918
Pb    0.646744  2.346424  3.862478
