30
Energy: -609761.901305 eV PBE+vdW (tier 2 basis)
C    -0.141675  0.951615  0.120058
C    -0.216077  0.401564  1.501702
O    0.875583  0.061437  2.096240
H    0.366372  0.226366  -0.530632
H    0.473327  1.862411  0.125189
H    -1.126629  1.185379  -0.297420
N    -1.390433  0.256169  2.099668
C    -1.561465  -0.250041  3.465313
C    -3.062247  -0.638772  3.697872
O    -3.749445  0.051191  4.438718
H    -2.220258  0.560013  1.591541
H    -0.941541  -1.156455  3.553656
C    -1.134801  0.814363  4.505820
C    -0.469949  0.229874  5.698511
N    0.828921  -0.286314  5.645769
C    -0.926761  0.083650  6.981713
C    1.137692  -0.721027  6.882352
N    0.094653  -0.508048  7.695304
H    -2.048805  1.340137  4.815379
H    -0.474160  1.558033  4.037289
H    -1.874345  0.354110  7.432508
H    2.073565  -1.168604  7.199375
H    0.069497  -0.737104  8.687250
N    -3.523708  -1.720247  3.026438
C    -2.774124  -2.712089  2.260210
H    -4.504901  -1.918146  3.213396
H    -3.491302  -3.388985  1.786757
H    -2.116393  -3.319674  2.899227
H    -2.184542  -2.254616  1.455235
Pb    2.240042  -0.440653  3.767740
