30
Energy: -609763.199167 eV PBE+vdW (tier 2 basis)
C    -0.255868  -1.262750  1.136120
C    -0.645626  0.114287  1.571824
O    0.253296  0.956401  1.850238
H    0.353227  -1.727597  1.922618
H    0.383824  -1.183449  0.246457
H    -1.108780  -1.910750  0.909070
N    -1.959504  0.406707  1.616873
C    -2.597475  1.675816  1.990947
C    -1.885099  2.892646  1.372929
O    -1.107389  3.629772  2.059425
H    -2.591181  -0.351002  1.372591
H    -3.581928  1.640383  1.504560
C    -2.903209  1.854076  3.507413
C    -1.952791  1.343229  4.543612
N    -0.629410  1.745335  4.704993
C    -2.269472  0.513756  5.593488
C    -0.171304  1.168334  5.820905
N    -1.142890  0.423721  6.376178
H    -3.860301  1.351064  3.695986
H    -3.095571  2.925011  3.675978
H    -3.194662  0.015026  5.856730
H    0.825296  1.269708  6.237034
H    -1.059210  -0.103637  7.242150
N    -2.153826  3.218196  0.117589
C    -3.080684  2.572351  -0.818433
H    -1.675336  4.058830  -0.208881
H    -4.122242  2.695505  -0.493270
H    -2.843717  1.509336  -0.939597
H    -2.969269  3.058836  -1.791223
Pb    0.759104  2.832856  3.105693
