30
Energy: -609762.085471 eV PBE+vdW (tier 2 basis)
C    -1.633193  -0.671228  -0.196445
C    -1.924968  -0.422588  1.254999
O    -2.620755  -1.136894  1.955639
H    -0.985436  -1.555306  -0.277349
H    -1.150537  0.173562  -0.701178
H    -2.569822  -0.918838  -0.709631
N    -1.353761  0.744337  1.815788
C    -1.438461  0.887511  3.250625
C    -2.122954  2.183332  3.655369
O    -2.018404  2.660296  4.854446
H    -0.608689  1.213229  1.306898
H    -2.166729  0.084557  3.520715
C    -0.137922  0.548330  4.020591
C    1.006243  1.501143  3.896775
N    1.124010  2.641555  4.697771
C    2.118637  1.444015  3.094299
C    2.280632  3.242199  4.380051
N    2.890267  2.540966  3.413085
H    0.177439  -0.439901  3.661940
H    -0.379471  0.383980  5.083755
H    2.436197  0.709378  2.363949
H    2.684276  4.147095  4.821287
H    3.792165  2.773298  3.001562
N    -2.925420  2.749751  2.783191
C    -3.805784  3.893772  3.006782
H    -2.945937  2.285314  1.871855
H    -4.824371  3.620391  2.707362
H    -3.474677  4.745143  2.399249
H    -3.800050  4.163800  4.064879
Pb    -0.484850  3.207175  6.319288
