30
Energy: -609762.209784 eV PBE+vdW (tier 2 basis)
C    -0.340272  1.311183  1.166697
C    0.005178  0.045571  1.892210
O    1.317477  -0.194209  1.949913
H    0.061625  1.277943  0.144853
H    0.140223  2.163928  1.665517
H    -1.420309  1.477064  1.141723
N    -0.953090  -0.685136  2.371589
C    -0.782058  -1.976059  3.045026
C    0.214956  -1.982161  4.212249
O    1.451993  -2.287003  4.076823
H    -2.319996  -1.263085  1.129195
H    -1.759111  -2.183930  3.512573
C    -0.535066  -3.119852  2.030358
C    -1.711672  -3.283124  1.116304
N    -2.509259  -2.210875  0.744200
C    -2.241172  -4.382241  0.488734
C    -3.484850  -2.619516  -0.070075
N    -3.328806  -3.938840  -0.237003
H    -0.356693  -4.069444  2.552430
H    0.365381  -2.906174  1.434035
H    -1.942485  -5.422672  0.499446
H    -4.260425  -2.005131  -0.511496
H    -3.931899  -4.522293  -0.812595
N    -0.271894  -1.669759  5.401400
C    0.494522  -1.586657  6.644794
H    -1.265194  -1.453560  5.452996
H    -0.104839  -2.009180  7.457884
H    0.724394  -0.539262  6.880962
H    1.420584  -2.156991  6.540502
Pb    2.971759  -1.235536  2.791758
