30
Energy: -609762.603615 eV PBE+vdW (tier 2 basis)
C    -1.874207  -2.772396  1.123692
C    -1.676296  -1.496378  1.867774
O    -0.606616  -0.835206  1.722203
H    -2.849007  -3.234051  1.313247
H    -1.076935  -3.475637  1.400876
H    -1.764875  -2.577256  0.048195
N    -2.669015  -1.063212  2.691783
C    -2.486111  0.208138  3.361470
C    -1.742328  0.066792  4.700318
O    -0.490733  0.306703  4.717752
H    -3.517053  -1.616509  2.778441
H    -1.747588  0.648523  2.697055
C    -3.556957  1.296418  3.288964
C    -2.827028  2.624637  3.219802
N    -1.475608  2.750906  2.867232
C    -3.344427  3.884733  3.388194
C    -1.214522  4.061307  2.823957
N    -2.319448  4.763485  3.131388
H    -4.266178  1.290426  4.127253
H    -4.145042  1.147083  2.370354
H    -4.341673  4.220028  3.646765
H    -0.261222  4.519650  2.584180
H    -2.384355  5.778328  3.163857
N    -2.394940  -0.317715  5.781912
C    -1.795632  -0.535164  7.102777
H    -3.394623  -0.486613  5.696240
H    -0.725256  -0.326081  7.048700
H    -1.954921  -1.575878  7.408822
H    -2.268554  0.131931  7.832987
Pb    0.460154  1.073012  2.755811
