30
Energy: -609762.202143 eV PBE+vdW (tier 2 basis)
C    1.186706  -1.040129  1.509576
C    0.403877  -1.085611  2.788922
O    0.843749  -1.472750  3.859570
H    1.989747  -0.297745  1.614332
H    0.582863  -0.791729  0.629432
H    1.673515  -2.010900  1.356288
N    -0.943386  -0.663062  2.707414
C    -1.657009  -0.509209  3.952956
C    -2.819769  -1.477476  4.085478
O    -3.591609  -1.448693  5.124447
H    -1.222656  -0.109575  1.901033
H    -0.907496  -0.866089  4.696252
C    -2.065219  0.959027  4.295159
C    -1.566724  1.435486  5.619269
N    -2.025269  0.927720  6.837506
C    -0.619321  2.386513  5.896801
C    -1.362594  1.570881  7.816277
N    -0.513456  2.449372  7.269986
H    -3.156342  1.087388  4.230441
H    -1.644159  1.616169  3.525317
H    -0.026801  3.016051  5.244063
H    -1.478125  1.420663  8.884358
H    0.109711  3.063954  7.790414
N    -3.003265  -2.374057  3.147321
C    -4.006472  -3.435205  3.120124
H    -2.323872  -2.314778  2.382988
H    -4.692228  -3.317117  3.961496
H    -3.507422  -4.410615  3.179265
H    -4.563894  -3.378151  2.177914
Pb    -3.685990  -0.685561  7.184473
