30
Energy: -609762.450904 eV PBE+vdW (tier 2 basis)
C    -0.733555  -0.898220  0.058000
C    -0.526269  -0.702695  1.515155
O    0.597864  -0.919070  2.058558
H    -0.607845  -1.975041  -0.145102
H    0.045967  -0.384319  -0.517925
H    -1.732701  -0.608374  -0.281618
N    -1.553677  -0.302943  2.320757
C    -2.365289  0.891757  2.094475
C    -1.514069  2.009562  1.468518
O    -0.271503  2.118541  1.729654
H    -1.348396  -0.465447  3.306898
H    -3.213967  0.670634  1.434032
C    -2.932618  1.386576  3.457756
C    -2.086191  1.187834  4.691978
N    -0.687905  1.200674  4.788980
C    -2.593998  1.035904  5.961537
C    -0.391512  1.067303  6.088863
N    -1.519022  0.975041  6.812210
H    -3.886443  0.873443  3.635809
H    -3.179728  2.453912  3.353336
H    -3.615839  0.981791  6.318701
H    0.603076  1.028847  6.521117
H    -1.565481  0.872340  7.823817
N    -2.086209  2.884842  0.657387
C    -3.483472  2.932247  0.205315
H    -1.462945  3.618557  0.318747
H    -3.574136  3.752609  -0.511515
H    -4.169185  3.127407  1.038592
H    -3.767444  2.003114  -0.303812
Pb    1.186184  1.085611  3.193528
