30
Energy: -609762.285258 eV PBE+vdW (tier 2 basis)
C    -0.063289  1.633169  0.737958
C    -0.002993  0.890345  2.028805
O    1.158366  0.512395  2.455018
H    0.616435  2.494530  0.785869
H    -1.076714  1.970349  0.499987
H    0.301253  0.984477  -0.071062
N    -1.127755  0.661173  2.684907
C    -1.237077  0.102008  4.039923
C    -0.854469  -1.392929  4.056876
O    0.343636  -1.742552  4.361257
H    -1.993578  1.258196  2.423956
H    -0.499213  0.601479  4.691380
C    -2.656479  0.384872  4.603097
C    -3.148065  1.769279  4.322076
N    -3.174024  2.224765  3.012424
C    -3.706238  2.714193  5.150423
C    -3.730019  3.426885  3.047974
N    -4.068209  3.749768  4.321456
H    -2.649035  0.183127  5.681006
H    -3.383107  -0.316414  4.158719
H    -3.889881  2.734816  6.217532
H    -3.909420  4.076382  2.198601
H    -4.532515  4.605615  4.611455
N    -1.759476  -2.304062  3.772893
C    -1.542381  -3.752824  3.737379
H    -2.699778  -1.973714  3.562730
H    -2.376144  -4.245720  4.248900
H    -0.604960  -3.994906  4.242264
H    -1.507691  -4.098234  2.696054
Pb    2.282399  -0.742164  3.863714
