30
Energy: -609762.146878 eV PBE+vdW (tier 2 basis)
C    -0.879829  -0.547677  -0.030740
C    -0.436457  0.469498  0.962977
O    0.676291  1.090414  0.744706
H    -0.961210  -0.083188  -1.022465
H    -1.835546  -1.007335  0.239592
H    -0.109115  -1.328022  -0.106535
N    -1.160392  0.684895  2.044432
C    -0.832563  1.483470  3.213943
C    -1.421686  0.624528  4.396893
O    -2.302768  -0.183985  4.105629
H    -1.943076  0.043739  2.285837
H    0.265708  1.561492  3.314586
C    -1.518185  2.875574  3.232184
C    -1.490197  3.714295  1.993082
N    -0.351279  4.038707  1.250995
C    -2.541515  4.424883  1.467162
C    -0.724657  4.924008  0.311547
N    -2.037336  5.169128  0.426152
H    -1.089472  3.447266  4.070885
H    -2.575876  2.723140  3.488489
H    -3.583063  4.476373  1.761880
H    -0.086187  5.384473  -0.435065
H    -2.568703  5.811565  -0.158324
N    -0.954757  0.877013  5.625640
C    -1.452557  0.200073  6.826963
H    -0.197455  1.542330  5.741410
H    -1.820186  0.939058  7.548197
H    -0.651065  -0.390300  7.286452
H    -2.270314  -0.463712  6.535123
Pb    1.737335  2.957062  1.158357
