30
Energy: -609762.035265 eV PBE+vdW (tier 2 basis)
C    0.102867  1.304148  1.563721
C    -0.429380  0.051207  2.170276
O    0.240382  -1.035048  2.019726
H    1.096924  1.509119  1.986261
H    -0.545403  2.168498  1.736488
H    0.242717  1.153149  0.484783
N    -1.563442  0.113651  2.863077
C    -2.345700  -1.007153  3.415874
C    -1.522659  -1.933498  4.312697
O    -1.048401  -3.044191  3.872556
H    -2.201721  0.903727  2.653962
H    -3.088874  -0.521121  4.062945
C    -3.145520  -1.734134  2.317794
C    -4.153002  -0.800357  1.723974
N    -3.996702  0.571990  1.818256
C    -5.332271  -1.091766  1.064873
C    -5.059215  1.099525  1.232299
N    -5.885073  0.124621  0.764013
H    -3.631179  -2.626424  2.736101
H    -2.453602  -2.111053  1.520820
H    -5.814802  -2.026850  0.806997
H    -5.272373  2.157810  1.127886
H    -6.766248  0.272802  0.279712
N    -1.349915  -1.625996  5.583062
C    -1.845274  -0.452652  6.313982
H    -0.830904  -2.321525  6.122578
H    -2.900195  -0.582844  6.589095
H    -1.715517  0.459556  5.723312
H    -1.256583  -0.355672  7.230700
Pb    0.007068  -3.246521  1.909183
