30
Energy: -609762.382806 eV PBE+vdW (tier 2 basis)
C    -0.830931  -3.767315  0.917593
C    -0.543458  -2.301010  0.908648
O    0.402261  -1.860374  0.174315
H    -0.227424  -4.258716  1.696641
H    -0.517608  -4.192902  -0.042168
H    -1.887146  -3.999868  1.095123
N    -1.208502  -1.369358  1.634947
C    -1.896747  -1.713816  2.868780
C    -3.379854  -1.370796  2.684027
O    -3.716754  -0.858746  1.536533
H    -2.860283  -0.844394  1.011560
H    -1.831529  -2.793343  3.082189
C    -1.259596  -0.931009  4.058134
C    0.210287  -1.174076  4.206900
N    1.153437  -0.748392  3.271061
C    0.882559  -1.762915  5.250208
C    2.355892  -1.075389  3.747671
N    2.219742  -1.689465  4.937896
H    -1.750918  -1.201169  5.002287
H    -1.451507  0.144067  3.908731
H    0.531350  -2.197552  6.178287
H    3.311150  -0.887121  3.270016
H    2.985422  -2.027099  5.516469
N    -4.293116  -1.567534  3.595413
C    -5.728470  -1.268790  3.464370
H    -3.991602  -1.983894  4.474425
H    -6.298684  -2.186660  3.647685
H    -5.935820  -0.896440  2.459209
H    -6.006911  -0.512560  4.207691
Pb    0.554875  0.234408  1.146919
