30
Energy: -609762.423494 eV PBE+vdW (tier 2 basis)
C    0.894133  1.752403  1.183753
C    0.610087  0.946891  2.414034
O    1.698116  0.502900  3.038504
H    -0.028896  2.091632  0.705548
H    1.465424  1.147751  0.466495
H    1.525270  2.614309  1.439939
N    -0.621408  0.767327  2.795042
C    -0.910296  0.027356  4.021199
C    -0.680393  -1.476085  3.791238
O    0.403130  -2.029205  4.192373
H    -1.859527  2.420895  2.811837
H    -0.217778  0.303679  4.838909
C    -2.352705  0.342997  4.491599
C    -2.619738  1.801322  4.667730
N    -2.370599  2.716025  3.656260
C    -3.192257  2.515942  5.689085
C    -2.758201  3.937835  4.028319
N    -3.264879  3.827408  5.263086
H    -2.564572  -0.174583  5.435640
H    -3.077882  -0.032384  3.751397
H    -3.560395  2.203779  6.658079
H    -2.679361  4.848929  3.447371
H    -3.653891  4.601174  5.797209
N    -1.586634  -2.188716  3.147935
C    -1.456546  -3.605844  2.799537
H    -2.418238  -1.705210  2.819252
H    -0.792389  -4.097283  3.514742
H    -1.050136  -3.713248  1.785265
H    -2.447011  -4.069365  2.839420
Pb    2.474572  -1.121629  4.205203
