30
Energy: -609762.3334 eV PBE+vdW (tier 2 basis)
C    -0.299198  0.493230  0.039893
C    -0.156297  0.548469  1.522928
O    0.929021  1.013825  2.026200
H    0.532597  -0.078560  -0.392147
H    -0.214473  1.517657  -0.352356
H    -1.250719  0.062694  -0.288758
N    -1.167102  0.138057  2.286749
C    -1.358400  0.318423  3.742722
C    -0.669150  -0.839381  4.493253
O    0.595223  -1.054250  4.255871
H    -1.978106  -0.229428  1.790567
H    -0.825560  1.239582  4.033118
C    -2.883716  0.527523  3.935895
C    -3.394411  0.772986  5.318539
N    -3.354449  -0.229448  6.268838
C    -4.062825  1.859528  5.833922
C    -3.973480  0.236244  7.343263
N    -4.417710  1.496020  7.111508
H    -3.403577  -0.353437  3.519969
H    -3.160132  1.382630  3.304462
H    -4.332704  2.818983  5.410051
H    -4.122671  -0.291508  8.278414
H    -4.943364  2.067546  7.766696
N    -1.316109  -1.580041  5.343614
C    -0.694984  -2.690233  6.066859
H    -2.278926  -1.209012  5.741958
H    -1.482360  -3.225378  6.604509
H    0.046214  -2.320278  6.788370
H    -0.198221  -3.373339  5.369415
Pb    2.305591  0.132899  3.542676
