30
Energy: -609762.078111 eV PBE+vdW (tier 2 basis)
C    -1.425529  1.522224  1.650869
C    -0.658946  0.374949  2.208187
O    0.572366  0.260357  1.899029
H    -2.394670  1.673497  2.137720
H    -1.596038  1.303336  0.585626
H    -0.827350  2.438490  1.712034
N    -1.297383  -0.486393  3.008664
C    -0.885668  -1.832372  3.455808
C    0.158278  -1.745919  4.578881
O    1.382903  -1.482206  4.324541
H    -2.283528  -0.281485  3.142634
H    -1.799845  -2.264799  3.883144
C    -0.451237  -2.802558  2.327395
C    -1.375311  -2.872662  1.166585
N    -1.638400  -1.768439  0.378717
C    -2.035045  -3.985201  0.670646
C    -2.447575  -2.201196  -0.571110
N    -2.713405  -3.533349  -0.426551
H    -0.324393  -3.795214  2.781095
H    0.569902  -2.537129  1.945196
H    -2.074067  -5.019209  0.992845
H    -2.859834  -1.607438  -1.380304
H    -3.302371  -4.095674  -1.034635
N    -0.236146  -1.980033  5.816772
C    0.619217  -1.953227  7.006786
H    -1.221829  -2.184950  5.966191
H    0.444723  -2.863605  7.590961
H    0.369193  -1.078490  7.620298
H    1.666176  -1.902421  6.701114
Pb    2.393810  -0.910886  2.387862
