30
Energy: -609763.290291 eV PBE+vdW (tier 2 basis)
C    -0.047902  0.820749  0.120006
C    -0.197707  0.643556  1.595249
O    0.700316  1.086798  2.373607
H    0.895889  0.352391  -0.193532
H    0.038965  1.891282  -0.108796
H    -0.870962  0.390059  -0.459527
N    -1.277229  -0.016923  2.047498
C    -1.554782  -0.466173  3.422339
C    -2.104507  0.688783  4.272864
O    -1.479212  1.779147  4.438402
H    -1.936209  -0.326178  1.338253
H    -2.375317  -1.183482  3.302284
C    -0.349545  -1.269409  4.042357
C    0.169985  -0.901838  5.393839
N    0.858078  0.278375  5.667469
C    0.214396  -1.687081  6.520785
C    1.297025  0.198777  6.926552
N    0.923716  -0.977910  7.461509
H    0.482286  -1.233292  3.327599
H    -0.656637  -2.320478  4.085856
H    -0.164548  -2.683393  6.714794
H    1.871066  0.949734  7.458595
H    1.149491  -1.295209  8.401374
N    -3.298617  0.517662  4.822276
C    -3.969661  1.523898  5.650703
H    -3.805758  -0.339581  4.621500
H    -3.271814  1.920626  6.395201
H    -4.815159  1.049221  6.155141
H    -4.334392  2.349973  5.027288
Pb    0.773743  2.263917  4.331516
