30
Energy: -609761.83894 eV PBE+vdW (tier 2 basis)
C    -0.169096  -1.005264  2.550029
C    0.067604  0.330737  1.943888
O    1.251087  0.831280  1.946443
H    0.364408  -1.030997  3.511433
H    0.283100  -1.794435  1.930399
H    -1.227349  -1.224869  2.716408
N    -0.929693  1.045039  1.392708
C    -1.916973  0.474441  0.473811
C    -1.204490  0.349132  -0.910668
O    0.072138  0.607178  -1.017093
H    -0.686934  2.018662  1.199921
H    -2.146090  -0.546329  0.812708
C    -3.221733  1.309966  0.472542
C    -4.428916  0.567591  -0.016197
N    -4.396348  -0.191230  -1.171353
C    -5.699565  0.532105  0.507651
C    -5.618090  -0.677598  -1.349196
N    -6.429584  -0.254776  -0.353087
H    -3.066494  2.226792  -0.120845
H    -3.402869  1.628462  1.507210
H    -6.138770  0.992001  1.384180
H    -5.941389  -1.320569  -2.159673
H    -7.415339  -0.481518  -0.257609
N    -1.906423  -0.029078  -1.933561
C    -1.361986  -0.218200  -3.275713
H    -3.006261  -0.197782  -1.754013
H    -2.193704  -0.424580  -3.954774
H    -0.665400  -1.066535  -3.295903
H    -0.834128  0.682000  -3.613248
Pb    2.025127  1.221116  -0.157352
