30
Energy: -609762.176246 eV PBE+vdW (tier 2 basis)
C    0.210314  -0.246153  0.142931
C    0.041404  -0.121741  1.618533
O    1.105143  0.044440  2.338596
H    0.724244  0.650448  -0.231287
H    -0.745587  -0.361561  -0.376691
H    0.860501  -1.102288  -0.082576
N    -1.174656  -0.161005  2.131591
C    -1.517057  0.090158  3.534206
C    -1.186776  -1.154557  4.388598
O    -0.030112  -1.182833  4.960903
H    -2.062935  -0.247655  1.508062
H    -0.812705  0.839428  3.928255
C    -2.922825  0.741934  3.651061
C    -3.980772  0.308861  2.675861
N    -3.653325  -0.139861  1.406155
C    -5.349944  0.371206  2.795527
C    -4.799270  -0.347355  0.769715
N    -5.841241  -0.045346  1.579300
H    -2.748909  1.821197  3.517206
H    -3.282188  0.630565  4.683330
H    -5.999422  0.682431  3.604585
H    -4.911871  -0.703109  -0.248117
H    -6.823383  -0.099137  1.324482
N    -1.977324  -2.190921  4.577635
C    -3.321260  -2.481370  4.069997
H    -1.566867  -2.902387  5.185602
H    -3.457316  -3.566338  4.103980
H    -3.430232  -2.139930  3.037741
H    -4.084155  -2.009183  4.700265
Pb    1.945031  -0.313529  4.341922
