30
Energy: -609762.529728 eV PBE+vdW (tier 2 basis)
C    -0.698869  -0.041379  -0.616026
C    -0.576147  0.040343  0.867159
O    0.505967  0.428834  1.395404
H    -1.691574  -0.362913  -0.948467
H    0.058426  -0.738618  -0.999968
H    -0.470361  0.943084  -1.046445
N    -1.651107  -0.305689  1.628066
C    -1.531308  -0.164976  3.065045
C    -0.918016  -1.403210  3.735894
O    0.302826  -1.327110  4.104307
H    -2.505245  -0.607213  1.168021
H    -0.719203  0.555244  3.093355
C    -2.572955  0.618602  3.870622
C    -1.830919  1.430894  4.915136
N    -0.454932  1.691173  4.872492
C    -2.359311  2.102584  5.989364
C    -0.188140  2.505566  5.899426
N    -1.314586  2.768472  6.584318
H    -3.334624  -0.008631  4.349626
H    -3.100732  1.297242  3.182678
H    -3.374846  2.172683  6.360208
H    0.783537  2.906255  6.167067
H    -1.380689  3.365174  7.405781
N    -1.590018  -2.524944  3.921352
C    -2.963763  -2.849234  3.541159
H    -1.049672  -3.273771  4.359804
H    -2.961138  -3.654401  2.795882
H    -3.470485  -1.976395  3.122175
H    -3.519831  -3.186366  4.424076
Pb    1.470718  0.604701  3.614491
