30
Energy: -609762.254219 eV PBE+vdW (tier 2 basis)
C    -0.747222  -1.602694  0.264559
C    -0.945989  -0.566948  1.329662
O    -0.148010  -0.397567  2.260760
H    0.134182  -1.320561  -0.328525
H    -1.604244  -1.715086  -0.408856
H    -0.518536  -2.565781  0.735698
N    -2.073310  0.221117  1.241212
C    -2.220593  1.422668  2.052256
C    -2.657703  1.099767  3.500111
O    -3.749843  1.551589  4.038204
H    -2.740050  0.053648  0.494679
H    -1.208563  1.847182  2.169181
C    -3.063730  2.494766  1.331363
C    -4.364346  2.071807  0.721630
N    -5.549748  1.885186  1.439162
C    -4.650630  1.866151  -0.606571
C    -6.512290  1.580701  0.555208
N    -5.991463  1.558125  -0.679806
H    -2.438691  2.892291  0.521162
H    -3.216872  3.343820  2.014465
H    -4.028677  1.945906  -1.490672
H    -7.555186  1.380462  0.777167
H    -6.512120  1.363088  -1.532959
N    -1.815645  0.379398  4.191386
C    -1.958008  -0.048538  5.577624
H    -0.975957  0.064192  3.626454
H    -1.012158  0.140854  6.098142
H    -2.160948  -1.127117  5.612204
H    -2.766444  0.498125  6.068242
Pb    -5.798205  2.209448  3.757859
