30
Energy: -609762.180323 eV PBE+vdW (tier 2 basis)
C    0.778633  1.024993  0.515649
C    0.163632  0.728117  1.841814
O    0.396749  1.520154  2.826836
H    1.872252  1.025869  0.636653
H    0.499008  2.036684  0.193092
H    0.506494  0.305469  -0.263320
N    -0.587307  -0.363323  1.971980
C    -1.123659  -1.016125  3.180568
C    -2.278410  -0.248737  3.852962
O    -2.415125  1.038645  3.745920
H    -0.698424  -0.907650  1.119573
H    -1.570781  -1.941272  2.795478
C    -0.030636  -1.448539  4.205661
C    -0.355856  -2.789447  4.802468
N    -1.665975  -3.195487  4.991273
C    0.494261  -3.784259  5.226606
C    -1.611086  -4.409770  5.523770
N    -0.322422  -4.792821  5.681674
H    0.080964  -0.680794  4.988908
H    0.935822  -1.504958  3.688944
H    1.574189  -3.863496  5.243020
H    -2.459024  -5.028107  5.795678
H    -0.011116  -5.682810  6.060118
N    -3.099107  -0.978478  4.554322
C    -4.246427  -0.486810  5.307335
H    -2.766081  -2.003600  4.705151
H    -4.433760  0.566590  5.087082
H    -4.063652  -0.620335  6.381807
H    -5.127200  -1.079443  5.032461
Pb    -1.038955  2.733739  4.013513
