30
Energy: -609762.066006 eV PBE+vdW (tier 2 basis)
C    0.675385  1.827994  1.052390
C    0.484152  0.991662  2.269526
O    1.502197  0.731974  3.002936
H    1.449167  1.380661  0.414742
H    1.051097  2.812506  1.367442
H    -0.244514  1.963329  0.474519
N    -0.736052  0.549467  2.573189
C    -1.142521  -0.079990  3.837647
C    -0.841877  -1.581141  3.808463
O    0.353317  -1.984834  4.054486
H    -1.489987  0.852842  1.958794
H    -0.510927  0.369917  4.626563
C    -2.569147  0.347108  4.203437
C    -2.546713  1.807981  4.563235
N    -1.392183  2.361257  5.079899
C    -3.556925  2.743532  4.534528
C    -1.700240  3.615885  5.369988
N    -2.996354  3.884190  5.056780
H    -2.893876  -0.255545  5.067722
H    -3.283354  0.151605  3.386326
H    -4.592930  2.698457  4.221224
H    -1.032445  4.355590  5.797948
H    -3.472656  4.771289  5.190569
N    -1.799189  -2.442590  3.540717
C    -1.658661  -3.899830  3.472806
H    -2.730362  -2.062430  3.379633
H    -1.861711  -4.238519  2.449346
H    -2.383600  -4.361059  4.153539
H    -0.644632  -4.181736  3.762322
Pb    2.223543  -0.794575  4.442282
