30
Energy: -609762.108194 eV PBE+vdW (tier 2 basis)
C    -0.636021  1.543497  1.287031
C    -0.154466  0.329577  2.005892
O    1.113759  0.157064  2.123944
H    -0.201403  1.562160  0.278487
H    -0.264249  2.436459  1.809467
H    -1.727033  1.594810  1.221958
N    -1.057083  -0.505480  2.510250
C    -0.860512  -1.834597  3.122564
C    0.111606  -1.842071  4.307199
O    1.364196  -2.066745  4.156338
H    -2.004722  -0.462214  2.097726
H    -1.852284  -2.080530  3.527672
C    -0.556067  -2.908668  2.059223
C    -1.731994  -3.068469  1.147179
N    -2.686814  -2.073031  1.036202
C    -2.080841  -4.142629  0.350270
C    -3.595860  -2.535125  0.193207
N    -3.261152  -3.780318  -0.242491
H    -0.303832  -3.858986  2.550098
H    0.353140  -2.620044  1.472622
H    -1.615046  -5.104481  0.172567
H    -4.495925  -2.018869  -0.122536
H    -3.798972  -4.348874  -0.890879
N    -0.400529  -1.680075  5.511752
C    0.344628  -1.688450  6.772673
H    -1.407653  -1.541769  5.575711
H    1.384249  -1.959955  6.580040
H    -0.109780  -2.420302  7.450568
H    0.294807  -0.694238  7.234050
Pb    2.646854  -1.411648  2.441214
