28
Energy: -241650.646193 eV PBE+vdW (tier 2 basis)
N    2.633148  -0.009298  1.819368
C    1.367564  -0.802221  1.936470
C    0.271561  -0.025267  1.215540
O    0.510592  0.939044  0.465797
H    2.746806  0.521440  2.691894
H    3.419377  -0.667034  1.833238
H    1.503888  -1.712941  1.326818
C    1.019548  -1.230386  3.399679
C    0.644291  -2.707705  3.650330
C    -0.820280  -3.107591  3.387929
N    -1.096881  -4.500109  3.756038
C    -1.411775  -4.978543  4.977393
N    -1.363337  -6.295348  5.197904
N    -1.750910  -4.149835  5.974616
H    0.252520  -0.559575  3.813730
H    1.927599  -1.041049  3.989431
H    0.863734  -2.910640  4.708403
H    1.312456  -3.368784  3.076708
H    -1.086389  -3.017075  2.327794
H    -1.506980  -2.433316  3.919813
H    -1.032432  -5.189011  3.013888
H    -1.800363  -6.711691  6.013780
H    -1.914464  -4.513098  6.907922
H    -2.115486  -3.224222  5.787429
H    -0.926367  -6.934057  4.542891
O    -0.940815  -0.478211  1.421458
H    -1.603235  0.030829  0.902670
Ba    2.672630  1.964692  -0.272930
