28
Energy: -241650.540141 eV PBE+vdW (tier 2 basis)
N    1.450033  -0.716224  -0.853409
C    0.268862  -0.137529  -0.139118
C    0.775074  0.555821  1.130126
O    1.924484  0.360532  1.558391
H    1.321739  -1.731170  -0.923952
H    1.430286  -0.395475  -1.826140
H    -0.172683  0.645566  -0.777365
C    -0.819359  -1.218066  0.142198
C    -2.176371  -0.733341  0.690889
C    -3.207609  -1.884830  0.720089
N    -4.463808  -1.512332  1.377058
C    -5.710691  -1.605294  0.860113
N    -6.750748  -1.730906  1.688086
N    -5.917218  -1.563668  -0.461158
H    -0.395240  -1.977934  0.818564
H    -0.987433  -1.714872  -0.826322
H    -2.572476  0.089662  0.074394
H    -2.066041  -0.355416  1.719346
H    -2.785632  -2.748627  1.256804
H    -3.432675  -2.235135  -0.294942
H    -4.425966  -1.400920  2.386620
H    -6.639420  -2.039261  2.648044
H    -6.823144  -1.801890  -0.851744
H    -5.240503  -1.163775  -1.097687
H    -7.700756  -1.561674  1.372235
O    0.009233  1.385172  1.795891
H    -0.860538  1.545307  1.378822
Ba    4.041599  -0.263718  0.481167
