28
Energy: -241650.513240 eV PBE+vdW (tier 2 basis)
N    1.090401  -1.131983  -0.300350
C    0.274996  -0.372993  0.689851
C    1.175224  0.718257  1.298886
O    2.253195  1.020247  0.758423
H    1.501979  -1.947254  0.167871
H    0.463524  -1.529181  -1.005899
H    -0.474360  0.197461  0.110223
C    -0.492446  -1.228182  1.732994
C    -1.521023  -2.189971  1.098643
C    -2.654425  -2.674474  2.022867
N    -2.259616  -3.708813  2.984600
C    -3.096902  -4.647055  3.487790
N    -4.408890  -4.597618  3.242927
N    -2.592294  -5.646316  4.219231
H    -1.044566  -0.544719  2.400774
H    0.232622  -1.763193  2.367397
H    -1.023152  -3.062982  0.651405
H    -2.030477  -1.665204  0.275028
H    -3.429517  -3.111062  1.379082
H    -3.104730  -1.811892  2.543409
H    -1.379423  -3.601840  3.477885
H    -5.007783  -5.387975  3.461402
H    -3.192330  -6.246137  4.776344
H    -1.606801  -5.880969  4.197268
H    -4.875908  -3.739144  2.976549
O    0.816440  1.395492  2.355324
H    -0.039378  1.119183  2.739622
Ba    3.408636  0.452320  -1.320545
