28
Energy: -241650.506723 eV PBE+vdW (tier 2 basis)
N    2.227728  0.592841  2.172551
C    1.544105  -0.726560  2.033693
C    0.903548  -0.774300  0.638126
O    1.140976  0.107222  -0.204426
H    1.593329  1.236882  2.659544
H    3.015710  0.480888  2.818092
H    2.337388  -1.495152  1.999228
C    0.604054  -1.066731  3.231197
C    0.183498  -2.549605  3.360584
C    -0.219252  -3.012170  4.778318
N    -1.574598  -2.624719  5.177578
C    -2.377630  -3.355107  5.989362
N    -3.663008  -3.009624  6.113300
N    -1.906809  -4.420262  6.643179
H    -0.272423  -0.400217  3.201063
H    1.175220  -0.796979  4.132583
H    1.034877  -3.190943  3.082068
H    -0.654999  -2.804888  2.689243
H    0.523449  -2.651620  5.509551
H    -0.182265  -4.109166  4.783066
H    -1.872383  -1.667666  5.017867
H    -4.240512  -3.388539  6.857281
H    -2.540368  -5.073115  7.094698
H    -0.921405  -4.534840  6.848594
H    -4.124589  -2.413382  5.436001
O    0.134548  -1.769028  0.279574
H    0.002226  -2.435615  0.984855
Ba    2.795588  1.913394  -0.401770
