28
Energy: -241650.682398 eV PBE+vdW (tier 2 basis)
N    -0.424816  2.314143  2.225190
C    1.045949  2.057218  2.161938
C    1.484814  2.209072  0.707820
O    0.824319  2.877114  -0.111950
H    -0.919906  1.429779  2.061797
H    -0.659797  2.557953  3.193016
H    1.528798  2.926938  2.646872
C    1.579732  0.823006  2.926988
C    1.173188  -0.580445  2.443518
C    1.736556  -1.645302  3.408153
N    1.370076  -3.015746  3.033270
C    2.181857  -4.097935  3.029264
N    1.648243  -5.312502  3.191791
N    3.501060  -3.977370  2.846611
H    1.273239  0.958163  3.976146
H    2.676479  0.906903  2.933255
H    1.545791  -0.772959  1.426880
H    0.075653  -0.685689  2.410003
H    1.374200  -1.451777  4.430500
H    2.829809  -1.572865  3.454912
H    0.377048  -3.231384  3.048977
H    2.170237  -6.152904  2.964341
H    4.121440  -4.763995  3.007337
H    3.914515  -3.147791  2.441698
H    0.730785  -5.445509  3.602690
O    2.630860  1.652375  0.416903
H    2.912338  1.865462  -0.501376
Ba    -1.266467  4.210049  0.214460
