28
Energy: -241651.261525 eV PBE+vdW (tier 2 basis)
N    1.315524  -1.781648  0.435198
C    0.783712  -0.506392  1.075756
C    2.020288  0.335031  1.476104
O    3.142647  0.007503  0.958292
H    0.759069  -2.082490  -0.376489
H    1.353324  -2.566159  1.099657
H    0.330544  0.062965  0.248065
C    -0.318556  -0.738596  2.117276
C    0.007521  -1.583742  3.362235
C    -1.258774  -1.736739  4.226954
N    -1.024012  -2.583267  5.399222
C    -1.816175  -2.622817  6.494762
N    -1.429813  -3.339033  7.555259
N    -2.959188  -1.930833  6.536308
H    -1.182446  -1.171291  1.588779
H    -0.637481  0.267241  2.427041
H    0.806709  -1.116342  3.955857
H    0.357328  -2.592830  3.079636
H    -2.072180  -2.152943  3.608064
H    -1.576355  -0.744755  4.580064
H    -0.370571  -3.354184  5.298799
H    -2.074714  -3.558047  8.307592
H    -0.479198  -3.675286  7.657124
H    -3.476552  -1.836534  7.404711
H    -3.437328  -1.634317  5.694381
O    1.864934  1.358773  2.197970
H    2.292509  -1.573677  0.136506
Ba    4.215236  2.283404  1.703875
