28
Energy: -241650.682524 eV PBE+vdW (tier 2 basis)
N    0.464486  -0.063007  0.076118
C    -0.175450  -0.071273  1.431768
C    0.881417  0.318689  2.460056
O    2.083131  0.473296  2.172022
H    0.377259  -1.005832  -0.319369
H    -0.105950  0.516864  -0.546569
H    -0.940686  0.719859  1.468753
C    -0.840153  -1.452208  1.729692
C    -1.797236  -1.603297  2.928948
C    -3.217282  -1.054311  2.711560
N    -4.075900  -1.477482  3.822473
C    -5.288447  -0.971587  4.128170
N    -5.873687  -1.319776  5.277865
N    -5.889931  -0.101216  3.307066
H    -0.035774  -2.195945  1.839615
H    -1.384487  -1.723461  0.811117
H    -1.368087  -1.175905  3.844291
H    -1.874494  -2.687613  3.104641
H    -3.615333  -1.431724  1.753668
H    -3.221596  0.045874  2.675367
H    -3.808113  -2.324853  4.314965
H    -5.361391  -1.779489  6.022265
H    -6.736035  0.378973  3.596441
H    -5.672943  -0.071324  2.318586
H    -6.858776  -1.141936  5.444566
O    0.415871  0.491423  3.671700
H    1.129937  0.743855  4.299265
Ba    3.269651  0.652406  -0.008042
