28
Energy: -241651.302305 eV PBE+vdW (tier 2 basis)
N    0.948912  -0.675562  0.435394
C    0.251549  0.518776  1.076091
C    1.378941  1.400469  1.672310
O    2.581957  1.112192  1.351172
H    0.578316  -0.913729  -0.493533
H    0.899129  -1.518594  1.022925
H    -0.168042  1.104225  0.242185
C    -0.878055  0.130779  2.039898
C    -2.094199  -0.503975  1.332227
C    -3.415182  -0.514199  2.125516
N    -3.508546  -1.569160  3.140144
C    -4.657088  -2.180288  3.513382
N    -4.595050  -3.254881  4.307790
N    -5.842063  -1.738472  3.083626
H    -1.177751  1.068949  2.529768
H    -0.473519  -0.514153  2.837975
H    -1.877811  -1.529326  0.992752
H    -2.309404  0.081846  0.424862
H    -4.222283  -0.691099  1.402786
H    -3.586997  0.476243  2.578944
H    -2.716431  -1.717730  3.756595
H    -5.423475  -3.616437  4.769201
H    -3.741485  -3.789530  4.418027
H    -6.680310  -2.298155  3.205712
H    -5.976959  -0.788794  2.758048
O    1.072246  2.394661  2.385931
H    1.955227  -0.402071  0.356045
Ba    3.467370  3.310017  2.515228
