28
Energy: -241650.559364 eV PBE+vdW (tier 2 basis)
N    1.448429  -0.793779  -0.711748
C    0.290511  -0.159975  -0.009032
C    0.819477  0.507980  1.265283
O    1.988926  0.338336  1.646823
H    1.345643  -1.812670  -0.647605
H    1.365295  -0.597859  -1.713822
H    -0.087408  0.654494  -0.649883
C    -0.866541  -1.177170  0.234204
C    -2.215469  -0.621143  0.734638
C    -3.318279  -1.698261  0.662485
N    -4.591380  -1.189829  1.176716
C    -5.818521  -1.621467  0.805493
N    -6.895756  -0.936799  1.199897
N    -5.958856  -2.701222  0.028728
H    -0.508334  -1.962184  0.919620
H    -1.030508  -1.658672  -0.742254
H    -2.529657  0.240604  0.124050
H    -2.130764  -0.289238  1.782655
H    -3.002291  -2.592584  1.225296
H    -3.470550  -1.992200  -0.385566
H    -4.562346  -0.611194  2.011375
H    -6.828192  0.010294  1.555518
H    -6.858957  -2.926604  -0.383642
H    -5.254467  -3.428251  -0.005748
H    -7.826962  -1.335696  1.136242
O    0.055799  1.301213  1.975907
H    -0.834255  1.437556  1.595176
Ba    4.080413  -0.222678  0.484195
