28
Energy: -241650.612774 eV PBE+vdW (tier 2 basis)
N    0.666052  1.088865  1.053264
C    0.519288  0.139571  2.193452
C    1.883402  -0.531235  2.436836
O    2.887746  -0.190126  1.788968
H    0.275084  0.650670  0.212126
H    0.070017  1.903400  1.221805
H    0.344017  0.744192  3.101531
C    -0.641381  -0.880161  2.047586
C    -2.050468  -0.266518  2.156710
C    -3.143927  -1.348229  2.072578
N    -4.478187  -0.764565  2.228562
C    -5.573862  -1.418001  2.674762
N    -5.554206  -2.743647  2.852170
N    -6.675724  -0.720649  2.967312
H    -0.543018  -1.651218  2.828806
H    -0.520475  -1.417980  1.092539
H    -2.209081  0.469224  1.351696
H    -2.150518  0.271175  3.112006
H    -3.000516  -2.078877  2.881980
H    -3.066333  -1.887081  1.113131
H    -4.642887  0.150258  1.819343
H    -4.908028  -3.339810  2.349295
H    -7.571870  -1.179405  3.095816
H    -6.653956  0.283937  3.101327
H    -6.314363  -3.211063  3.336356
O    2.040953  -1.439555  3.361762
H    1.227737  -1.663040  3.856684
Ba    3.518503  1.676865  0.351594
