28
Energy: -241650.847599 eV PBE+vdW (tier 2 basis)
N    1.573813  0.429345  1.932541
C    1.172293  -0.953234  1.531116
C    0.986609  -0.972746  0.012957
O    1.387648  -0.047982  -0.720155
H    0.735889  0.919351  2.267993
H    2.175289  0.366253  2.758780
H    2.047744  -1.607615  1.697156
C    -0.030175  -1.548125  2.306385
C    0.261856  -1.840317  3.788382
C    -0.958530  -2.329516  4.596207
N    -1.422818  -3.688804  4.291145
C    -1.337112  -4.757469  5.115115
N    -2.179002  -5.782426  4.948917
N    -0.414943  -4.809148  6.081706
H    -0.324651  -2.474351  1.794159
H    -0.884844  -0.856291  2.213024
H    0.608970  -0.928437  4.299484
H    1.078600  -2.575032  3.868069
H    -1.809828  -1.649259  4.446629
H    -0.726623  -2.280810  5.667655
H    -2.078447  -3.790420  3.523108
H    -2.017081  -6.676372  5.401460
H    -0.462581  -5.513143  6.810931
H    0.386118  -4.191821  6.096357
H    -3.052757  -5.681890  4.444159
O    0.423039  -2.055381  -0.451396
H    0.377561  -2.050173  -1.433932
Ba    2.646966  2.038812  -0.241947
