28
Energy: -241650.827597 eV PBE+vdW (tier 2 basis)
N    0.052143  1.463820  2.446990
C    0.246024  0.015264  2.121809
C    0.949105  -0.050365  0.763761
O    1.566037  0.923784  0.291520
H    -0.880817  1.739355  2.116076
H    -0.011431  1.553017  3.465907
H    1.000098  -0.371846  2.831793
C    -1.039722  -0.850195  2.256884
C    -0.783601  -2.351172  2.502982
C    -2.036373  -3.240739  2.531498
N    -2.804138  -3.121542  3.780223
C    -4.041806  -3.641802  3.959302
N    -4.655904  -3.481648  5.136437
N    -4.667166  -4.275815  2.963253
H    -1.664351  -0.712552  1.360492
H    -1.610111  -0.433307  3.100758
H    -0.212557  -2.489297  3.436068
H    -0.149688  -2.758700  1.706292
H    -1.709210  -4.283331  2.388478
H    -2.699803  -2.978308  1.694147
H    -2.259794  -3.005221  4.630991
H    -4.301272  -2.849125  5.843740
H    -5.641883  -4.545760  3.049349
H    -4.163063  -4.657865  2.172428
H    -5.494438  -4.002913  5.370106
O    0.887754  -1.206947  0.158845
H    1.399983  -1.202862  -0.681207
Ba    1.938988  3.233072  1.148073
