28
Energy: -241651.375696 eV PBE+vdW (tier 2 basis)
N    2.545417  -0.390316  1.334778
C    2.124885  -0.750740  2.755031
C    2.526334  -2.236304  2.949424
O    3.242181  -2.777560  2.039685
H    1.745673  -0.357685  0.688359
H    3.174674  -1.167642  1.026335
H    2.781092  -0.172544  3.424481
C    0.656318  -0.433009  3.059959
C    0.326979  1.070257  3.146914
C    -1.106965  1.312725  3.656297
N    -1.373434  2.740999  3.864548
C    -2.527800  3.402274  3.620673
N    -2.792884  4.520019  4.303135
N    -3.397937  2.970046  2.701474
H    0.445790  -0.916653  4.025229
H    0.010085  -0.939601  2.323357
H    0.449873  1.570146  2.173023
H    1.035885  1.551782  3.839983
H    -1.261749  0.776730  4.606743
H    -1.841276  0.908504  2.949376
H    -0.733637  3.221419  4.491588
H    -2.314628  4.748943  5.167465
H    -3.510456  5.168956  3.995934
H    -3.131293  2.323077  1.971357
H    -4.318897  3.388422  2.623214
O    2.183256  -2.833339  4.006789
H    3.043918  0.506086  1.270320
Ba    3.501596  -4.969995  3.492529
