28
Energy: -241651.350484 eV PBE+vdW (tier 2 basis)
N    -0.302966  0.178030  0.017175
C    0.023826  0.074272  1.502489
C    1.531786  0.406169  1.627312
O    2.105060  0.906631  0.597296
H    -1.220339  0.607988  -0.162335
H    -0.292511  -0.742812  -0.444575
H    -0.513122  0.905643  1.986122
C    -0.459658  -1.270986  2.079104
C    -0.718156  -1.262818  3.597509
C    -1.381315  -2.575838  4.048347
N    -1.725853  -2.527060  5.471357
C    -1.996100  -3.599861  6.245567
N    -2.156182  -3.434081  7.562660
N    -2.073007  -4.824323  5.712606
H    0.256236  -2.063882  1.812527
H    -1.407816  -1.517259  1.573064
H    -1.385934  -0.420236  3.841344
H    0.218764  -1.107403  4.148490
H    -0.690360  -3.417285  3.891195
H    -2.285387  -2.759605  3.442092
H    -1.980547  -1.623215  5.858483
H    -2.557989  -4.164280  8.141320
H    -1.878631  -2.580102  8.032597
H    -2.128505  -5.645272  6.306886
H    -2.265157  -4.967397  4.728866
O    2.127895  0.227768  2.724629
H    0.451891  0.753164  -0.414942
Ba    4.329078  1.315051  1.877815
