28
Energy: -241650.412780 eV PBE+vdW (tier 2 basis)
N    1.906891  -0.940397  1.019122
C    0.513114  -0.544985  1.369468
C    0.488043  0.985268  1.541685
O    1.446459  1.680225  1.161944
H    2.399423  -1.202284  1.880545
H    1.874029  -1.802376  0.467766
H    -0.102124  -0.719239  0.467280
C    -0.134657  -1.328197  2.541738
C    -0.323419  -2.833695  2.260700
C    -1.342979  -3.544687  3.175869
N    -0.897960  -3.818307  4.549229
C    -0.836364  -5.041853  5.128242
N    -0.946401  -5.142691  6.456222
N    -0.644591  -6.142870  4.395550
H    -1.134961  -0.901943  2.730944
H    0.450145  -1.159419  3.460338
H    0.640142  -3.363051  2.304365
H    -0.707859  -2.958288  1.235589
H    -1.627032  -4.498586  2.715751
H    -2.272874  -2.957458  3.229876
H    -0.932219  -3.043509  5.204709
H    -0.692990  -5.996997  6.942869
H    -0.787407  -7.065638  4.793265
H    -0.308847  -6.105346  3.442122
H    -1.374122  -4.413093  7.015963
O    -0.551016  1.604613  2.031968
H    -1.279579  1.013738  2.308442
Ba    3.485157  1.323069  -0.134561
