28
Energy: -241650.522200 eV PBE+vdW (tier 2 basis)
N    1.807499  -1.129129  0.494107
C    0.385808  -0.716386  0.707969
C    0.365715  0.800128  0.941447
O    1.411440  1.428546  1.177136
H    2.082466  -1.754505  1.258693
H    1.853886  -1.718335  -0.342194
H    -0.167435  -0.894481  -0.229257
C    -0.293464  -1.538677  1.847250
C    -1.795407  -1.287906  2.081797
C    -2.455001  -2.191143  3.141365
N    -2.696146  -3.559155  2.663292
C    -3.065207  -4.586551  3.469460
N    -3.207615  -4.405871  4.785168
N    -3.247198  -5.798792  2.937573
H    0.257354  -1.358103  2.784744
H    -0.135367  -2.595125  1.581900
H    -2.357883  -1.378225  1.136130
H    -1.957918  -0.264277  2.450328
H    -3.404460  -1.716620  3.437714
H    -1.813222  -2.245105  4.033068
H    -2.988042  -3.652766  1.693718
H    -3.347570  -5.197527  5.405593
H    -3.697451  -6.543222  3.460434
H    -2.956100  -6.018945  1.992219
H    -3.365983  -3.489553  5.186871
O    -0.750184  1.482267  0.876689
H    -1.534304  0.950694  0.634014
Ba    3.753786  1.112761  0.531773
