28
Energy: -241650.269448 eV PBE+vdW (tier 2 basis)
N    0.445108  -0.818305  -0.589451
C    -0.149019  -0.359167  0.700286
C    0.289338  1.091786  0.945501
O    1.236181  1.593116  0.316578
H    0.841929  -1.753257  -0.460045
H    -0.302557  -0.950409  -1.276458
H    -1.249260  -0.356041  0.619202
C    0.278943  -1.246024  1.903897
C    -0.373315  -2.645681  1.991221
C    -1.664615  -2.696728  2.827075
N    -2.094508  -4.088149  2.994633
C    -3.308864  -4.497012  3.424028
N    -4.203910  -3.611887  3.879581
N    -3.623497  -5.793269  3.356223
H    0.097584  -0.700172  2.842309
H    1.373095  -1.358452  1.855309
H    0.365830  -3.310589  2.462606
H    -0.566429  -3.064295  0.991100
H    -2.480022  -2.142673  2.336742
H    -1.474502  -2.231254  3.809759
H    -1.370672  -4.800718  2.966202
H    -5.159128  -3.898325  4.070946
H    -4.421046  -6.170337  3.858364
H    -3.080935  -6.448924  2.804947
H    -3.916601  -2.724367  4.273715
O    -0.310733  1.838916  1.835777
H    -1.071442  1.414704  2.279762
Ba    2.474051  1.097514  -1.725802
