28
Energy: -241650.313733 eV PBE+vdW (tier 2 basis)
N    0.517958  -0.428514  -0.218380
C    0.128866  -0.677221  1.205102
C    1.415372  -0.801042  2.029471
O    2.504778  -1.051883  1.487329
H    0.039732  -1.112219  -0.813204
H    0.128468  0.472810  -0.510493
H    -0.419848  0.200854  1.583449
C    -0.795521  -1.927286  1.337590
C    -1.357142  -2.230420  2.739837
C    -2.297503  -3.457379  2.799609
N    -3.655944  -3.250912  2.284410
C    -4.789501  -3.258144  3.025893
N    -5.954210  -3.544947  2.437496
N    -4.760571  -2.968102  4.330085
H    -0.248600  -2.808409  0.963782
H    -1.628907  -1.741873  0.641617
H    -1.887402  -1.349565  3.136731
H    -0.535078  -2.463254  3.433733
H    -2.376976  -3.795210  3.840290
H    -1.854234  -4.300822  2.250146
H    -3.797682  -3.376228  1.287366
H    -6.001168  -4.039045  1.553153
H    -5.563939  -3.150600  4.923063
H    -3.969435  -2.512974  4.765808
H    -6.838787  -3.358810  2.899742
O    1.404529  -0.641748  3.329494
H    0.534214  -0.384570  3.693616
Ba    3.441529  -0.569485  -0.725734
