28
Energy: -241650.711869 eV PBE+vdW (tier 2 basis)
N    0.232142  0.906933  0.248766
C    -0.314179  0.507985  1.584437
C    0.857815  0.483138  2.563793
O    1.923082  1.087493  2.335930
H    0.468755  0.049423  -0.265757
H    -0.534883  1.315645  -0.295021
H    -0.935503  1.352459  1.936416
C    -1.213407  -0.759848  1.553942
C    -2.250355  -0.857619  2.692672
C    -3.400519  -1.851743  2.430048
N    -3.083742  -3.272606  2.626433
C    -3.599184  -4.068172  3.589983
N    -3.629577  -5.391825  3.401474
N    -4.061369  -3.553272  4.734037
H    -0.579391  -1.658989  1.509537
H    -1.760303  -0.711222  0.598916
H    -2.726745  0.127332  2.820370
H    -1.763898  -1.095584  3.647691
H    -3.781115  -1.735107  1.404317
H    -4.244828  -1.602650  3.084865
H    -2.650063  -3.762610  1.850594
H    -3.573735  -5.801385  2.475593
H    -4.622537  -4.111607  5.368712
H    -3.849615  -2.607523  5.023591
H    -3.811638  -6.029569  4.169703
O    0.642254  -0.179493  3.670496
H    1.408835  -0.110097  4.283062
Ba    2.639706  2.482510  0.387403
