28
Energy: -241650.535967 eV PBE+vdW (tier 2 basis)
N    0.192461  -0.325345  0.146626
C    0.001054  0.053275  1.575402
C    1.362128  0.487489  2.135437
O    2.314235  0.732401  1.375081
H    0.417500  -1.324839  0.093055
H    -0.710411  -0.240468  -0.330928
H    -0.581331  0.993195  1.567765
C    -0.814667  -0.933397  2.452892
C    -0.199025  -2.308603  2.773926
C    -1.182036  -3.148930  3.613695
N    -0.608321  -4.441760  3.992146
C    -1.003356  -5.189367  5.048295
N    -0.284002  -6.260957  5.394256
N    -2.081428  -4.848353  5.761997
H    -1.784635  -1.063755  1.948619
H    -1.075460  -0.414067  3.391720
H    0.746985  -2.201439  3.326884
H    0.030800  -2.855203  1.844066
H    -2.119678  -3.289736  3.049714
H    -1.425701  -2.606826  4.539148
H    -0.019074  -4.913432  3.312603
H    -0.650324  -6.957938  6.034779
H    -2.284614  -5.310193  6.643181
H    -2.825182  -4.282732  5.370842
H    0.661241  -6.403524  5.057135
O    1.536309  0.674402  3.417681
H    0.737763  0.497965  3.954328
Ba    2.477767  1.094139  -1.057346
