28
Energy: -241650.145419 eV PBE+vdW (tier 2 basis)
N    -0.145327  0.609936  -0.075622
C    -0.022250  -0.135850  1.215702
C    1.460601  -0.164473  1.601622
O    2.349440  0.006885  0.750367
H    -0.732995  0.065392  -0.714262
H    -0.683712  1.465376  0.091903
H    -0.559878  0.415196  2.004794
C    -0.638206  -1.564574  1.110347
C    -0.646961  -2.410769  2.396962
C    -1.323275  -3.793896  2.238671
N    -2.789161  -3.792931  2.232484
C    -3.590117  -3.992874  3.306097
N    -3.076210  -4.127283  4.533818
N    -4.914874  -4.012518  3.136633
H    -0.110581  -2.114809  0.314029
H    -1.673847  -1.410361  0.768402
H    -1.140426  -1.863479  3.216230
H    0.383945  -2.623332  2.718208
H    -0.954510  -4.463069  3.027974
H    -1.003615  -4.270265  1.302251
H    -3.237422  -3.914059  1.330455
H    -3.684262  -4.264238  5.335049
H    -5.541544  -4.280413  3.888637
H    -5.346313  -3.827816  2.238326
H    -2.098845  -4.346259  4.679100
O    1.833216  -0.372169  2.839866
H    1.091785  -0.436143  3.474447
Ba    2.456344  1.260796  -1.353487
