28
Energy: -241651.344102 eV PBE+vdW (tier 2 basis)
N    0.979072  -1.782862  -0.043969
C    0.442889  -0.679549  0.863026
C    1.604354  -0.330705  1.829589
O    2.748362  -0.847057  1.580666
H    0.768990  -1.634108  -1.039113
H    0.625297  -2.712466  0.220546
H    0.310906  0.204861  0.219733
C    -0.890448  -1.044619  1.531117
C    -2.052256  -1.214155  0.532225
C    -3.404083  -1.627743  1.138789
N    -4.099068  -0.513440  1.797679
C    -5.205866  -0.661511  2.565144
N    -5.762609  0.417195  3.125129
N    -5.718649  -1.873067  2.797917
H    -1.104545  -0.240741  2.249238
H    -0.759591  -1.960980  2.130792
H    -1.815585  -2.000372  -0.201814
H    -2.181733  -0.293350  -0.060337
H    -3.253498  -2.426887  1.879807
H    -4.026415  -2.034526  0.325255
H    -3.991824  0.401624  1.367953
H    -6.684233  0.376848  3.547834
H    -5.298325  1.317613  3.130729
H    -6.462781  -2.000537  3.476617
H    -5.520206  -2.663533  2.196766
O    1.403912  0.476925  2.776964
H    2.014924  -1.783581  0.102962
Ba    3.882011  0.559723  3.483754
