28
Energy: -241650.614747 eV PBE+vdW (tier 2 basis)
N    2.455735  -0.780656  2.067230
C    1.004973  -0.695524  1.734310
C    0.796804  0.516349  0.807733
O    1.764158  1.179502  0.396226
H    2.596867  -0.398082  3.008688
H    2.719955  -1.766166  2.146439
H    0.762934  -1.569268  1.102707
C    0.053202  -0.693642  2.960104
C    -0.030219  -2.037288  3.709322
C    -1.043284  -1.972743  4.867730
N    -1.149612  -3.264380  5.550522
C    -2.220752  -3.694071  6.253873
N    -2.274497  -4.970294  6.647053
N    -3.232518  -2.864735  6.532452
H    -0.962263  -0.425271  2.626507
H    0.358192  0.117428  3.642102
H    0.958733  -2.312482  4.110303
H    -0.331531  -2.834931  3.013103
H    -2.037747  -1.719657  4.471924
H    -0.750730  -1.181471  5.578574
H    -0.303828  -3.818378  5.646189
H    -2.939554  -5.278292  7.349151
H    -4.103519  -3.221788  6.912825
H    -3.106421  -1.860337  6.564006
H    -1.677686  -5.681697  6.240367
O    -0.391156  0.854828  0.383594
H    -1.119511  0.295340  0.719492
Ba    4.185273  0.902707  0.293478
