28
Energy: -241650.529232 eV PBE+vdW (tier 2 basis)
N    2.095846  0.232007  1.981671
C    1.796063  -1.085465  1.352877
C    0.759531  -0.854850  0.244883
O    0.517604  0.290932  -0.171550
H    1.446308  0.386523  2.760686
H    3.017763  0.172724  2.425775
H    2.705832  -1.371695  0.793284
C    1.513006  -2.268730  2.316657
C    0.220937  -2.239657  3.155158
C    0.156026  -3.477761  4.071951
N    -1.082642  -3.514685  4.851953
C    -1.630789  -4.629036  5.388925
N    -2.855356  -4.562508  5.919661
N    -0.973844  -5.793349  5.365054
H    2.389063  -2.342142  2.979383
H    1.552484  -3.200992  1.726348
H    -0.671775  -2.220714  2.510983
H    0.186850  -1.332026  3.780677
H    1.035538  -3.487435  4.737918
H    0.191403  -4.388664  3.456444
H    -1.454656  -2.632086  5.189657
H    -3.214535  -5.304720  6.511625
H    -1.444334  -6.657602  5.615743
H    0.035615  -5.836984  5.293361
H    -3.482073  -3.789734  5.725789
O    0.154779  -1.858942  -0.334561
H    0.416588  -2.733553  0.016774
Ba    1.660771  2.457143  0.097873
