28
Energy: -241650.523372 eV PBE+vdW (tier 2 basis)
N    1.344696  0.723642  2.164098
C    1.421881  -0.764618  2.195133
C    1.583043  -1.253086  0.743446
O    1.918427  -0.461691  -0.154730
H    0.358002  1.001696  2.115309
H    1.672557  1.088894  3.062750
H    2.389728  -1.019435  2.665767
C    0.305756  -1.487586  2.994811
C    0.280703  -1.109360  4.490592
C    -0.441393  -2.095885  5.423947
N    -1.901885  -2.102282  5.261940
C    -2.715192  -3.052558  5.787849
N    -4.030296  -2.984189  5.559457
N    -2.212168  -4.068903  6.493497
H    0.484784  -2.574681  2.932633
H    -0.670010  -1.309702  2.516690
H    -0.137114  -0.100009  4.632949
H    1.313741  -1.061132  4.869328
H    -0.172352  -1.829703  6.459302
H    -0.073567  -3.115172  5.234626
H    -2.345220  -1.201773  5.101379
H    -4.687082  -3.560516  6.075869
H    -2.797196  -4.854223  6.762353
H    -1.302411  -4.017072  6.935938
H    -4.420832  -2.367011  4.857176
O    1.432663  -2.508631  0.420078
H    1.165811  -3.084410  1.164265
Ba    2.623923  1.876394  -0.277453
