28
Energy: -241651.277536 eV PBE+vdW (tier 2 basis)
N    1.095275  -0.776679  0.311795
C    0.311057  0.397549  0.886281
C    1.362237  1.325332  1.548348
O    2.594402  1.075691  1.315387
H    0.801326  -1.038925  -0.637808
H    1.036121  -1.613741  0.906880
H    -0.066188  0.959689  0.016682
C    -0.870205  -0.020915  1.771962
C    -2.021446  -0.678405  0.983162
C    -3.377843  -0.760027  1.702629
N    -3.434930  -1.807877  2.731942
C    -4.450069  -1.933644  3.621624
N    -4.409111  -2.917906  4.525402
N    -5.464077  -1.064143  3.628060
H    -1.225097  0.907383  2.242850
H    -0.514924  -0.660972  2.595760
H    -1.742956  -1.684169  0.624915
H    -2.211715  -0.086204  0.074767
H    -4.149687  -0.939070  0.936264
H    -3.596583  0.205257  2.182397
H    -2.938162  -2.670568  2.526446
H    -5.222922  -3.158667  5.081718
H    -3.572186  -3.466907  4.682030
H    -6.151863  -1.073389  4.374700
H    -5.686494  -0.494548  2.820568
O    0.973458  2.317089  2.223980
H    2.093967  -0.465596  0.300398
Ba    3.324612  3.314360  2.499860
