28
Energy: -241650.533804 eV PBE+vdW (tier 2 basis)
N    -0.094779  1.008607  0.817561
C    0.026695  0.252200  2.097068
C    1.527108  0.036338  2.369439
O    2.384965  0.672489  1.734474
H    -0.252054  0.339772  0.054953
H    -0.948566  1.572580  0.846656
H    -0.295315  0.936412  2.903527
C    -0.824505  -1.043068  2.187006
C    -2.341944  -0.801310  2.075257
C    -3.217830  -2.065877  2.134669
N    -3.361013  -2.602223  3.495889
C    -3.848372  -3.837579  3.777094
N    -3.933236  -4.229425  5.051700
N    -4.202345  -4.673543  2.797279
H    -0.623773  -1.541290  3.150412
H    -0.492636  -1.746382  1.405747
H    -2.576554  -0.328109  1.110568
H    -2.673663  -0.085702  2.845758
H    -2.779388  -2.851022  1.501435
H    -4.206681  -1.811999  1.720137
H    -3.495114  -1.915125  4.233788
H    -3.494463  -3.710307  5.803277
H    -4.430646  -5.642299  2.998771
H    -4.434631  -4.342953  1.868588
H    -4.453666  -5.059868  5.315908
O    1.942891  -0.774375  3.305096
H    1.224639  -1.255277  3.761802
Ba    2.395709  2.469953  0.075034
