28
Energy: -241650.554633 eV PBE+vdW (tier 2 basis)
N    2.347265  -0.709644  2.105268
C    0.900057  -0.555822  1.781880
C    0.746083  0.683954  0.880046
O    1.744384  1.252974  0.405934
H    2.518341  -0.305328  3.032750
H    2.556681  -1.705437  2.214616
H    0.623669  -1.402309  1.127243
C    -0.051186  -0.548076  3.006750
C    -0.121519  -1.876087  3.786037
C    -1.138510  -1.788801  4.944621
N    -1.148036  -2.980081  5.799706
C    -2.214895  -3.754237  6.102022
N    -2.217508  -4.441879  7.247044
N    -3.259038  -3.848300  5.270380
H    -1.070845  -0.302160  2.665582
H    0.239487  0.277705  3.677241
H    0.865951  -2.127292  4.203771
H    -0.396517  -2.700763  3.110548
H    -2.154992  -1.627161  4.563512
H    -0.909529  -0.918720  5.579549
H    -0.345735  -3.099343  6.411847
H    -2.865462  -5.208097  7.401576
H    -4.123754  -4.285608  5.572058
H    -3.179445  -3.631693  4.285544
H    -1.612232  -4.195221  8.022748
O    -0.427839  1.143450  0.541426
H    -1.180639  0.664092  0.940851
Ba    4.139761  0.819886  0.259451
