28
Energy: -241651.427531 eV PBE+vdW (tier 2 basis)
N    2.275237  -0.069723  2.927140
C    1.086224  -0.984676  3.197882
C    1.607342  -2.428146  2.973483
O    0.794637  -3.391776  3.021744
H    3.109452  -0.701803  2.899203
H    2.205835  0.398992  2.013656
H    0.873358  -0.901871  4.275175
C    -0.160515  -0.617287  2.384195
C    -0.816845  0.722190  2.772822
C    -2.103614  0.979862  1.960229
N    -2.670276  2.314003  2.178046
C    -3.888061  2.610502  2.681868
N    -4.446067  3.788381  2.388668
N    -4.538988  1.747154  3.470935
H    -0.869492  -1.444255  2.536484
H    0.088692  -0.631189  1.309467
H    -0.124788  1.562522  2.597239
H    -1.048610  0.731758  3.849100
H    -2.871473  0.230654  2.192499
H    -1.895303  0.878412  0.884142
H    -2.188734  3.087830  1.728833
H    -4.138587  4.346170  1.599257
H    -5.515431  1.893847  3.704671
H    -4.058230  1.009173  3.968027
H    -5.228646  4.150190  2.924505
O    2.864266  -2.579665  2.795302
H    2.410104  0.651991  3.646283
Ba    2.597513  -5.204240  2.798144
