28
Energy: -241650.992717 eV PBE+vdW (tier 2 basis)
N    -0.198576  0.858290  0.556125
C    0.033435  0.136675  1.878827
C    1.546171  0.286080  2.182453
O    2.068023  -0.363653  3.129288
H    -0.217756  0.207707  -0.242050
H    -1.074522  1.397897  0.541852
H    -0.480457  0.742833  2.642231
C    -0.583999  -1.275654  1.856147
C    -0.737922  -1.915115  3.255436
C    -1.890030  -2.924069  3.398322
N    -1.628734  -4.235468  2.793234
C    -2.248097  -5.381076  3.155411
N    -1.812953  -6.547132  2.663700
N    -3.272468  -5.361648  4.012889
H    0.001118  -1.918408  1.179558
H    -1.586552  -1.169417  1.409496
H    -0.960741  -1.121954  3.984403
H    0.206551  -2.367282  3.583954
H    -2.817710  -2.488834  2.987867
H    -2.048695  -3.087466  4.473125
H    -1.087977  -4.277981  1.936338
H    -0.896163  -6.641699  2.243264
H    -3.627109  -6.221648  4.419170
H    -3.814326  -4.523805  4.186225
H    -2.363043  -7.394864  2.755238
O    2.195701  1.139601  1.483181
H    0.615672  1.497086  0.423132
Ba    4.322157  0.911005  2.975180
