28
Energy: -241650.853616 eV PBE+vdW (tier 2 basis)
N    0.170349  1.825028  1.854192
C    0.154417  0.359922  2.163530
C    1.185730  -0.308304  1.255665
O    2.076927  0.339421  0.673872
H    -0.571203  2.008658  1.166563
H    -0.144112  2.326516  2.691201
H    0.573157  0.242088  3.179735
C    -1.268790  -0.264080  2.148457
C    -1.458767  -1.548045  2.980806
C    -2.950223  -1.919976  3.096689
N    -3.171747  -3.054702  3.999974
C    -3.935984  -4.145064  3.773659
N    -4.437089  -4.816576  4.815155
N    -4.188698  -4.572368  2.530992
H    -1.583961  -0.426242  1.105606
H    -1.937447  0.510464  2.556327
H    -1.055646  -1.384364  3.993324
H    -0.900910  -2.389423  2.551033
H    -3.372801  -2.162060  2.113861
H    -3.526489  -1.060271  3.474841
H    -2.915735  -2.905723  4.972316
H    -4.508776  -4.400815  5.737261
H    -4.892134  -5.283036  2.359957
H    -3.614643  -4.300764  1.744031
H    -4.802175  -5.757798  4.710341
O    1.087333  -1.609514  1.169733
H    1.808806  -1.986327  0.617277
Ba    2.615609  2.778352  0.673599
