28
Energy: -241650.753212 eV PBE+vdW (tier 2 basis)
N    -0.051390  1.188808  0.318203
C    -0.292545  0.625224  1.683449
C    1.072108  0.449570  2.349063
O    2.080449  1.069555  1.960550
H    0.022089  0.404328  -0.341623
H    -0.903682  1.677128  0.024346
H    -0.771757  1.426809  2.276051
C    -1.240207  -0.607402  1.709791
C    -1.954458  -0.845373  3.058537
C    -3.217298  -1.723960  2.996217
N    -2.946180  -3.165523  2.948976
C    -3.773185  -4.119813  3.430128
N    -3.337330  -5.382217  3.518173
N    -5.009402  -3.813857  3.834520
H    -0.685381  -1.497748  1.374279
H    -2.006935  -0.409389  0.944389
H    -2.295710  0.127145  3.445583
H    -1.266446  -1.249041  3.812212
H    -3.848204  -1.422370  2.142872
H    -3.789837  -1.534642  3.913994
H    -2.172621  -3.497073  2.382839
H    -2.349970  -5.608594  3.502002
H    -5.563652  -4.480807  4.362096
H    -5.484464  -2.974289  3.526561
H    -3.979967  -6.150517  3.680353
O    1.088787  -0.358315  3.376790
H    1.975391  -0.379991  3.802834
Ba    2.393801  2.704354  0.095814
