28
Energy: -241651.235235 eV PBE+vdW (tier 2 basis)
N    0.865232  -1.670654  0.414478
C    0.607789  -0.321446  1.071277
C    1.992907  0.346675  1.256696
O    2.968078  -0.136123  0.584761
H    1.802988  -1.601427  -0.036160
H    0.156518  -1.914390  -0.290437
H    0.121167  0.289600  0.293745
C    -0.347299  -0.375365  2.270696
C    0.005519  -1.302564  3.447734
C    -1.029797  -1.129833  4.579756
N    -0.777830  -2.006792  5.728050
C    -1.694603  -2.730576  6.412283
N    -1.454814  -3.042098  7.689373
N    -2.822313  -3.153617  5.831604
H    -1.348363  -0.624729  1.886148
H    -0.419807  0.663860  2.624324
H    1.010195  -1.069256  3.834411
H    0.014342  -2.363924  3.147565
H    -2.041595  -1.324016  4.203528
H    -1.028129  -0.083696  4.924748
H    0.097201  -1.854739  6.222034
H    -1.983297  -3.767515  8.164044
H    -0.778600  -2.533904  8.248525
H    -3.574101  -3.550497  6.385909
H    -2.925264  -3.204852  4.826707
O    2.089584  1.388664  1.962429
H    0.905178  -2.435233  1.102039
Ba    4.434116  1.982448  1.083732
