28
Energy: -241650.257742 eV PBE+vdW (tier 2 basis)
N    0.088651  0.345457  0.312995
C    -0.094473  0.176162  1.785392
C    1.280800  -0.182733  2.374960
O    2.320971  0.015978  1.725377
H    -0.125598  -0.548706  -0.143873
H    -0.633747  0.985219  -0.030820
H    -0.314743  1.178474  2.195066
C    -1.257433  -0.785085  2.181268
C    -1.917556  -0.513822  3.551291
C    -2.963461  -1.564401  3.990070
N    -4.258245  -1.499892  3.302570
C    -5.439158  -1.173439  3.882337
N    -6.576476  -1.628343  3.349518
N    -5.480072  -0.392532  4.965835
H    -0.905553  -1.828011  2.121764
H    -2.027447  -0.674423  1.403286
H    -2.369627  0.489860  3.551008
H    -1.178900  -0.490853  4.372985
H    -3.145555  -1.459456  5.066915
H    -2.561747  -2.579574  3.854891
H    -4.339871  -2.006716  2.426822
H    -6.596131  -2.434391  2.734121
H    -6.333704  -0.295289  5.506566
H    -4.696168  0.180713  5.249556
H    -7.476389  -1.243974  3.620478
O    1.401784  -0.669277  3.581075
H    0.544860  -0.799121  4.036256
Ba    2.881991  0.956172  -0.466705
