28
Energy: -241650.563317 eV PBE+vdW (tier 2 basis)
N    1.483879  -1.736275  0.170847
C    0.262820  -0.887073  0.018699
C    0.650286  0.559418  0.348937
O    1.780266  0.844497  0.777547
H    1.374753  -2.307153  1.016715
H    1.498420  -2.420859  -0.591203
H    -0.014325  -0.889521  -1.049332
C    -0.938100  -1.443259  0.843382
C    -2.325650  -0.810740  0.607661
C    -3.438932  -1.664618  1.251463
N    -4.750936  -1.033785  1.096308
C    -5.934628  -1.684752  1.022785
N    -7.031339  -1.003012  0.680442
N    -6.009991  -2.999292  1.258270
H    -0.683838  -1.395513  1.914470
H    -0.993690  -2.510404  0.578438
H    -2.535526  -0.722180  -0.470524
H    -2.369673  0.197288  1.052606
H    -3.212529  -1.829486  2.318096
H    -3.474662  -2.644871  0.756022
H    -4.809649  -0.031326  1.251382
H    -6.980334  -0.087863  0.246956
H    -5.331281  -3.476502  1.839217
H    -6.858008  -3.514006  1.041472
H    -7.959056  -1.388050  0.827001
O    -0.193371  1.543085  0.155294
H    -1.047650  1.259952  -0.226622
Ba    3.980745  -0.237699  0.611674
