28
Energy: -241650.176057 eV PBE+vdW (tier 2 basis)
N    0.312257  -0.162571  0.191566
C    -0.005066  0.094603  1.627579
C    1.312589  -0.037011  2.412178
O    2.406429  0.020164  1.826304
H    0.158341  -1.159298  -0.001035
H    -0.384462  0.318684  -0.384905
H    -0.263741  1.166008  1.707558
C    -1.197540  -0.741337  2.188519
C    -1.980122  -0.072594  3.342414
C    -3.022673  -0.960735  4.054889
N    -4.295792  -1.076434  3.338870
C    -5.506434  -1.206331  3.932260
N    -6.611525  -1.069544  3.192457
N    -5.605953  -1.446410  5.242612
H    -0.838813  -1.739399  2.488068
H    -1.881028  -0.906531  1.342434
H    -2.465091  0.848978  2.986268
H    -1.305045  0.268812  4.146909
H    -3.241985  -0.493341  5.023542
H    -2.597461  -1.958283  4.256944
H    -4.278574  -1.251794  2.339640
H    -6.598396  -0.604492  2.292011
H    -6.498484  -1.357803  5.719011
H    -4.856169  -1.879108  5.769027
H    -7.517781  -1.366384  3.540468
O    1.326052  -0.175598  3.711078
H    0.432538  -0.209090  4.109151
Ba    3.156930  0.329842  -0.486819
