28
Energy: -241650.869346 eV PBE+vdW (tier 2 basis)
N    2.426752  -0.758656  1.534494
C    0.936033  -0.812397  1.445085
C    0.439437  0.537528  0.920240
O    1.207186  1.376481  0.408996
H    2.679961  -0.552325  2.508125
H    2.795180  -1.700269  1.372864
H    0.683878  -1.517337  0.631604
C    0.200814  -1.270521  2.727401
C    0.391982  -2.755908  3.084415
C    -0.477703  -3.146193  4.293353
N    -0.330236  -4.566993  4.619993
C    -1.238259  -5.316577  5.281368
N    -1.072473  -6.641958  5.343078
N    -2.309046  -4.750344  5.848404
H    -0.869374  -1.074138  2.575503
H    0.512465  -0.624980  3.565623
H    1.448520  -2.968882  3.316309
H    0.112287  -3.386198  2.226098
H    -1.535274  -2.963211  4.053803
H    -0.213517  -2.520806  5.162878
H    0.584613  -4.988080  4.490160
H    -1.602537  -7.209984  5.995776
H    -3.070749  -5.321067  6.201085
H    -2.321827  -3.771398  6.106981
H    -0.438874  -7.131380  4.721550
O    -0.850885  0.710714  1.004898
H    -1.136033  1.563444  0.605797
Ba    3.632681  1.339433  -0.093886
