28
Energy: -241650.576039 eV PBE+vdW (tier 2 basis)
N    -0.040117  0.600483  -0.752039
C    0.038714  -0.061306  0.586122
C    1.520124  -0.270716  0.922432
O    2.412956  -0.015203  0.098127
H    -0.384639  -0.087547  -1.431191
H    -0.779241  1.309166  -0.719130
H    -0.343518  0.653168  1.335052
C    -0.830505  -1.354564  0.647239
C    -1.031027  -2.019958  2.024879
C    -2.150640  -3.081321  1.968984
N    -2.294435  -3.771252  3.252210
C    -3.438626  -4.307661  3.735333
N    -4.532264  -4.393766  2.970039
N    -3.475477  -4.726340  5.003486
H    -0.422377  -2.089135  -0.065517
H    -1.816067  -1.052124  0.260816
H    -1.302247  -1.269212  2.784665
H    -0.103341  -2.520416  2.348767
H    -1.939692  -3.803645  1.162810
H    -3.105750  -2.587631  1.741736
H    -1.443005  -4.045195  3.734336
H    -5.429286  -4.638015  3.378488
H    -4.220899  -5.328283  5.338811
H    -2.774977  -4.446627  5.681072
H    -4.474209  -4.430535  1.959477
O    1.887879  -0.695518  2.106159
H    1.142960  -0.833756  2.724139
Ba    2.548705  1.482909  -1.845305
