28
Energy: -241650.320526 eV PBE+vdW (tier 2 basis)
N    2.403507  -0.460738  0.920847
C    1.173419  -1.163514  0.450797
C    0.465851  -0.240475  -0.551770
O    1.019032  0.787170  -0.977161
H    2.186500  0.014979  1.804603
H    3.099335  -1.167157  1.179594
H    1.509880  -2.022712  -0.157590
C    0.294221  -1.717360  1.613827
C    -0.761788  -2.781067  1.232339
C    -1.203729  -3.705559  2.392146
N    -2.126839  -3.113869  3.366466
C    -3.370675  -3.570351  3.655036
N    -4.084700  -4.248012  2.751585
N    -3.894030  -3.319522  4.858256
H    -0.169423  -0.875793  2.152147
H    1.005423  -2.186793  2.310907
H    -0.344884  -3.451543  0.463391
H    -1.674738  -2.320488  0.814957
H    -0.316506  -4.068262  2.933281
H    -1.679523  -4.599588  1.971803
H    -1.721339  -2.513181  4.077708
H    -4.929500  -4.742685  3.020318
H    -4.885127  -3.446895  5.039015
H    -3.315756  -3.080925  5.656591
H    -3.860671  -4.237773  1.764990
O    -0.715376  -0.540032  -1.025711
H    -1.082059  -1.367923  -0.652191
Ba    3.304496  1.687066  -0.883183
