28
Energy: -241650.945851 eV PBE+vdW (tier 2 basis)
N    1.227517  -0.271201  0.162987
C    0.382458  0.013991  1.397269
C    1.371060  0.460823  2.504884
O    0.962144  0.569829  3.693697
H    2.128141  0.235548  0.306895
H    1.446497  -1.271747  0.063375
H    -0.187412  0.925664  1.156808
C    -0.625495  -1.093150  1.742395
C    -0.053626  -2.499992  1.987739
C    -1.051737  -3.508431  2.594707
N    -2.093749  -3.956960  1.665578
C    -2.639043  -5.197061  1.646384
N    -3.453478  -5.532081  0.640747
N    -2.354130  -6.091253  2.597642
H    -1.385721  -1.103699  0.945996
H    -1.141486  -0.736606  2.646223
H    0.777545  -2.439259  2.707267
H    0.356159  -2.943568  1.065004
H    -1.505230  -3.080577  3.503976
H    -0.477560  -4.394333  2.893777
H    -2.623781  -3.249255  1.166535
H    -3.484512  -5.002872  -0.223036
H    -2.617664  -7.065617  2.486957
H    -2.040724  -5.811970  3.519506
H    -4.045442  -6.354976  0.693732
O    2.548147  0.795994  2.135419
H    0.784751  0.046291  -0.709517
Ba    3.055374  1.843468  4.492053
