28
Energy: -241650.611874 eV PBE+vdW (tier 2 basis)
N    1.281243  -1.062054  0.085585
C    0.369482  -0.308514  0.997510
C    1.228764  0.284570  2.124068
O    2.468961  0.270242  2.059511
H    1.251164  -2.054138  0.349090
H    0.882555  -1.041189  -0.858052
H    0.005663  0.569495  0.434066
C    -0.862417  -1.145584  1.455648
C    -2.083546  -0.370695  1.997953
C    -3.320047  -1.287039  2.116585
N    -4.481944  -0.547671  2.610942
C    -5.505455  -1.070776  3.325766
N    -5.605937  -2.390788  3.515371
N    -6.403918  -0.246677  3.871202
H    -0.536221  -1.903825  2.185044
H    -1.190351  -1.696296  0.560844
H    -2.318448  0.471307  1.327071
H    -1.906631  0.049195  3.004224
H    -3.107493  -2.100757  2.824044
H    -3.536508  -1.738280  1.133831
H    -4.647948  0.374794  2.217777
H    -5.193624  -3.054987  2.871303
H    -7.292381  -0.591299  4.220960
H    -6.230161  0.747519  3.968445
H    -6.273752  -2.766404  4.181724
O    0.677326  0.863066  3.158482
H    -0.301364  0.833792  3.139771
Ba    4.117990  -0.314005  0.335237
