28
Energy: -241650.548708 eV PBE+vdW (tier 2 basis)
N    1.578145  -1.292073  -0.719733
C    0.369564  -0.531027  -0.282081
C    0.824388  0.516206  0.744017
O    2.029115  0.703775  0.980496
H    1.611250  -2.172211  -0.191644
H    1.437465  -1.588784  -1.690383
H    0.025893  0.057522  -1.151467
C    -0.795029  -1.461156  0.172559
C    -2.205563  -0.840393  0.279777
C    -3.295567  -1.936554  0.327890
N    -4.652510  -1.383664  0.322131
C    -5.674814  -1.722845  1.143027
N    -6.929738  -1.566639  0.714874
N    -5.448953  -2.196787  2.373328
H    -0.519276  -1.948610  1.121130
H    -0.838117  -2.258949  -0.584964
H    -2.399335  -0.193292  -0.591055
H    -2.320867  -0.221046  1.186048
H    -3.172919  -2.571137  1.213975
H    -3.184280  -2.599306  -0.544913
H    -4.932733  -0.902906  -0.528773
H    -7.155123  -1.476385  -0.270097
H    -4.573452  -2.042278  2.856148
H    -6.204560  -2.596208  2.920779
H    -7.713056  -1.572346  1.361047
O    -0.044466  1.274013  1.362096
H    -0.972444  1.076441  1.120875
Ba    4.129980  0.027638  -0.102087
