28
Energy: -241650.409437 eV PBE+vdW (tier 2 basis)
N    1.021938  0.213009  -0.518399
C    0.023147  0.316395  0.590822
C    0.792499  0.332157  1.916475
O    1.958852  -0.090188  1.988091
H    0.748784  -0.558307  -1.135063
H    0.941337  1.046349  -1.108713
H    -0.506328  1.279729  0.506990
C    -1.032978  -0.829964  0.521019
C    -2.182260  -0.777228  1.545622
C    -3.215359  -1.920240  1.407392
N    -4.172192  -1.793040  0.301787
C    -5.506532  -1.599371  0.433628
N    -6.323996  -1.987123  -0.549487
N    -6.012636  -1.013926  1.523179
H    -0.508409  -1.795663  0.608205
H    -1.447811  -0.775339  -0.497956
H    -2.704117  0.191577  1.483639
H    -1.782490  -0.873585  2.566679
H    -3.785088  -1.999646  2.341467
H    -2.698459  -2.884712  1.295346
H    -3.881102  -2.144884  -0.604709
H    -6.044233  -2.674759  -1.240500
H    -5.440959  -0.482542  2.166589
H    -7.010453  -1.031608  1.708718
H    -7.289780  -1.675910  -0.585951
O    0.243032  0.794636  3.011740
H    -0.650454  1.170515  2.881988
Ba    3.819049  -0.192334  0.395406
