28
Energy: -241650.852316 eV PBE+vdW (tier 2 basis)
N    0.392945  2.439074  1.679838
C    0.868749  1.189623  1.010842
C    0.152112  1.071351  -0.335376
O    -0.466947  2.024857  -0.846308
H    -0.347368  2.183024  2.344135
H    1.148022  2.798224  2.271197
H    1.925812  1.355813  0.732252
C    0.791327  -0.099184  1.866574
C    1.725842  -0.086531  3.088751
C    1.670102  -1.347913  3.967574
N    2.341966  -2.500680  3.352392
C    2.216198  -3.777319  3.786548
N    2.849855  -4.755850  3.132082
N    1.438306  -4.070318  4.832946
H    1.035140  -0.947936  1.213573
H    -0.253314  -0.250738  2.186370
H    1.473710  0.748753  3.759074
H    2.767132  0.091551  2.771581
H    0.622270  -1.623519  4.157771
H    2.137375  -1.108024  4.936286
H    3.193856  -2.303150  2.833907
H    2.937406  -5.685881  3.528394
H    1.230335  -5.035004  5.071019
H    1.182978  -3.372875  5.521453
H    3.275390  -4.605410  2.224976
O    0.285757  -0.087334  -0.922634
H    -0.142283  -0.098765  -1.808210
Ba    -0.772672  4.387159  -0.136003
