28
Energy: -241650.991672 eV PBE+vdW (tier 2 basis)
N    0.979952  -0.012177  0.131998
C    0.375865  -0.084198  1.528908
C    1.535467  0.211428  2.514888
O    1.363870  0.022056  3.750577
H    1.241678  -0.939115  -0.229550
H    0.354648  0.432251  -0.553280
H    -0.280290  0.797524  1.606295
C    -0.485129  -1.330462  1.783504
C    0.208758  -2.697566  1.668159
C    -0.652550  -3.888168  2.132456
N    -1.759862  -4.193321  1.216526
C    -2.857747  -4.914979  1.551863
N    -3.830889  -5.075694  0.649988
N    -2.991542  -5.431321  2.777065
H    -1.363323  -1.278673  1.122561
H    -0.875469  -1.201905  2.803734
H    1.110800  -2.716811  2.297890
H    0.555093  -2.900277  0.639102
H    -1.081247  -3.659521  3.118634
H    0.004550  -4.765481  2.243208
H    -1.543880  -4.183021  0.223114
H    -3.876287  -4.517636  -0.194764
H    -3.873918  -5.836201  3.074933
H    -2.191459  -5.613241  3.370874
H    -4.568769  -5.759645  0.784557
O    2.597293  0.731366  2.027239
H    1.856818  0.545609  0.225169
Ba    3.510572  1.283179  4.424353
