28
Energy: -241650.657454 eV PBE+vdW (tier 2 basis)
N    -0.124279  1.586131  2.382893
C    0.314009  0.163430  2.524239
C    1.771139  0.053764  2.072314
O    2.453792  1.044269  1.746990
H    -0.780853  1.636985  1.595695
H    -0.689467  1.840538  3.197233
H    0.346158  -0.076549  3.601053
C    -0.601533  -0.856792  1.796850
C    -1.964838  -1.152699  2.459494
C    -1.913845  -2.293244  3.497804
N    -3.224184  -2.632082  4.058077
C    -4.123751  -3.508963  3.563794
N    -5.358261  -3.535326  4.074134
N    -3.804248  -4.331549  2.556110
H    -0.042609  -1.794756  1.673962
H    -0.767565  -0.482082  0.774140
H    -2.666737  -1.440245  1.664505
H    -2.395601  -0.250917  2.922054
H    -1.273392  -2.037439  4.352777
H    -1.453795  -3.186855  3.052280
H    -3.472400  -2.193944  4.938885
H    -5.696352  -2.813714  4.700736
H    -4.509183  -4.935521  2.145960
H    -2.841813  -4.577232  2.360846
H    -5.989652  -4.308626  3.891505
O    2.245245  -1.163028  2.094010
H    3.193001  -1.194068  1.833174
Ba    2.024013  3.482513  1.801486
