28
Energy: -241651.324292 eV PBE+vdW (tier 2 basis)
N    2.281653  -0.514354  0.576805
C    1.866042  -0.656879  2.036660
C    2.113298  -2.145686  2.396390
O    2.776916  -2.845446  1.555072
H    2.867464  -1.350876  0.357800
H    2.814268  0.345532  0.390736
H    2.602204  -0.080055  2.618825
C    0.452148  -0.086963  2.269307
C    0.123967  0.183270  3.749980
C    -1.262204  0.797235  4.003478
N    -1.328660  2.223233  3.649953
C    -2.479904  2.926222  3.521462
N    -2.422090  4.217652  3.180192
N    -3.665788  2.334372  3.692266
H    -0.293598  -0.772690  1.836426
H    0.381634  0.857227  1.704874
H    0.897692  0.827448  4.199220
H    0.160943  -0.758624  4.311467
H    -1.502710  0.659746  5.069874
H    -2.022413  0.262719  3.415111
H    -0.510809  2.780397  3.883763
H    -1.565592  4.646159  2.849189
H    -3.235034  4.820830  3.251976
H    -3.762740  1.474303  4.217920
H    -4.526855  2.820042  3.461113
O    1.715605  -2.602472  3.503472
H    1.470617  -0.526628  -0.057773
Ba    2.878950  -4.891715  3.182441
