28
Energy: -241651.277230 eV PBE+vdW (tier 2 basis)
N    0.344383  0.433608  0.194296
C    0.463771  0.205008  1.695136
C    1.974501  0.052516  1.999084
O    2.339036  -0.339189  3.142483
H    0.133185  -0.434610  -0.315817
H    -0.377573  1.125652  -0.047716
H    0.195764  1.169759  2.155504
C    -0.507179  -0.845409  2.249913
C    -0.442631  -2.274653  1.681755
C    -1.494222  -3.161237  2.378510
N    -1.539549  -4.508898  1.807397
C    -2.612673  -5.331616  1.832860
N    -2.584764  -6.461870  1.119783
N    -3.704055  -5.012114  2.535925
H    -1.526328  -0.444970  2.134623
H    -0.319408  -0.865913  3.333425
H    0.561833  -2.701052  1.831910
H    -0.649344  -2.293832  0.598366
H    -2.488654  -2.709878  2.250913
H    -1.279267  -3.204122  3.459275
H    -0.656663  -4.941632  1.553039
H    -1.905186  -6.613608  0.383310
H    -4.564024  -5.540196  2.424765
H    -3.666565  -4.374487  3.321957
H    -3.267153  -7.197817  1.270501
O    2.794390  0.440358  1.098080
H    1.277563  0.770008  -0.125936
Ba    4.786812  0.379194  2.808662
