28
Energy: -241651.003407 eV PBE+vdW (tier 2 basis)
N    1.003115  -1.742224  0.546743
C    0.852512  -0.403469  1.255844
C    2.287658  0.115809  1.520217
O    3.236958  -0.432246  0.861530
H    0.940922  -2.535952  1.198717
H    1.960372  -1.746979  0.133226
H    0.458459  0.285246  0.490914
C    -0.149530  -0.413407  2.417526
C    0.064610  -1.420064  3.562151
C    -0.988143  -1.188595  4.667389
N    -0.873020  -2.137902  5.779158
C    -1.885481  -2.790824  6.396342
N    -1.726502  -3.187358  7.662496
N    -3.030160  -3.061462  5.760323
H    -1.154336  -0.545702  1.987322
H    -0.134070  0.612017  2.815763
H    1.073012  -1.307680  3.990939
H    -0.023494  -2.463177  3.214690
H    -2.000077  -1.256249  4.249709
H    -0.889100  -0.165045  5.062361
H    -0.005432  -2.104128  6.307347
H    -2.347079  -3.872234  8.082825
H    -1.020744  -2.783019  8.267968
H    -3.838833  -3.402194  6.270152
H    -3.101874  -3.053408  4.751375
O    2.457271  1.112324  2.276218
H    0.302724  -1.883973  -0.193520
Ba    4.881259  1.507894  1.509276
