28
Energy: -241651.339155 eV PBE+vdW (tier 2 basis)
N    -0.439834  1.199693  2.003670
C    0.463454  0.009481  2.307720
C    1.813112  0.316911  1.608626
O    2.716515  -0.562855  1.588519
H    -1.126412  0.991204  1.265696
H    -0.951498  1.546276  2.825054
H    0.666614  0.050197  3.389558
C    -0.174785  -1.339816  1.945448
C    -1.418631  -1.681861  2.791161
C    -2.153575  -2.981896  2.406879
N    -1.554998  -4.190981  2.981631
C    -2.242449  -5.300530  3.333844
N    -1.636657  -6.239373  4.069651
N    -3.519030  -5.458479  2.971870
H    0.620648  -2.087627  2.076839
H    -0.423740  -1.348879  0.870934
H    -2.171453  -0.884597  2.686109
H    -1.160536  -1.713941  3.860928
H    -2.225671  -3.068435  1.309738
H    -3.176182  -2.912355  2.799897
H    -0.543963  -4.273124  2.999731
H    -0.802479  -6.039295  4.609079
H    -4.089376  -6.189075  3.386191
H    -3.918414  -4.967569  2.180971
H    -2.038989  -7.165000  4.175798
O    1.967501  1.490022  1.122665
H    0.197634  1.946511  1.642550
Ba    4.477194  0.993389  0.527244
