28
Energy: -241650.522556 eV PBE+vdW (tier 2 basis)
N    0.627902  -0.847807  -0.154561
C    0.111510  -0.562837  1.220162
C    1.316558  -0.267286  2.123535
O    2.474773  -0.526339  1.755701
H    0.399344  -1.818568  -0.392663
H    0.091281  -0.291508  -0.826388
H    -0.481917  0.365656  1.177806
C    -0.804075  -1.711574  1.747839
C    -1.495794  -1.479033  3.104829
C    -2.472209  -2.588503  3.541820
N    -3.755052  -2.542332  2.827011
C    -4.676330  -3.538129  2.861652
N    -5.810515  -3.400408  2.168618
N    -4.443310  -4.662422  3.544317
H    -0.208959  -2.638057  1.795950
H    -1.567195  -1.861332  0.968901
H    -2.028374  -0.512135  3.110248
H    -0.748482  -1.433362  3.910712
H    -2.635530  -2.481276  4.626247
H    -2.014795  -3.573184  3.366293
H    -4.135499  -1.616921  2.645579
H    -5.935633  -2.661933  1.486067
H    -5.066243  -5.459845  3.458771
H    -3.766576  -4.702571  4.296842
H    -6.596557  -4.026541  2.311153
O    1.164513  0.287790  3.299899
H    0.241034  0.523368  3.518811
Ba    3.574009  -0.607283  -0.432072
