28
Energy: -241650.526722 eV PBE+vdW (tier 2 basis)
N    1.136745  -1.392698  0.823757
C    0.145665  -0.291122  0.660075
C    0.791901  1.004458  1.184242
O    1.992846  1.034518  1.500944
H    0.910560  -1.912307  1.679369
H    1.007071  -2.070021  0.067462
H    0.030198  -0.119746  -0.425662
C    -1.258280  -0.578875  1.263816
C    -1.996644  -1.748177  0.581697
C    -3.322403  -2.180794  1.241417
N    -4.476142  -1.354980  0.869961
C    -5.749885  -1.803240  0.778209
N    -6.677151  -1.024375  0.211213
N    -6.082184  -3.017454  1.226401
H    -1.870433  0.335416  1.188854
H    -1.146596  -0.773021  2.343444
H    -1.357307  -2.643108  0.605217
H    -2.173134  -1.525956  -0.481956
H    -3.206648  -2.214900  2.337901
H    -3.538417  -3.201963  0.901452
H    -4.364867  -0.347372  0.834909
H    -6.429103  -0.249422  -0.393030
H    -5.537078  -3.497069  1.932797
H    -6.982849  -3.426019  0.996268
H    -7.666866  -1.225821  0.312457
O    0.118395  2.121266  1.263299
H    -0.818415  2.046603  0.995137
Ba    3.932020  -0.431821  1.241350
