28
Energy: -241651.003679 eV PBE+vdW (tier 2 basis)
N    -0.639373  0.245276  0.295875
C    -0.245890  0.083024  1.757570
C    1.271955  0.380581  1.838333
O    1.898038  0.124140  2.903957
H    -1.560832  0.687083  0.176840
H    0.096893  0.840416  -0.140560
H    -0.711314  0.935815  2.277912
C    -0.778479  -1.196543  2.415739
C    -0.420888  -2.551244  1.778189
C    -0.977549  -3.702528  2.643410
N    -0.703198  -5.030085  2.083818
C    -1.578088  -6.055821  1.963907
N    -1.112805  -7.308231  1.945177
N    -2.892207  -5.839429  1.844892
H    -1.872161  -1.097791  2.495145
H    -0.405604  -1.161282  3.450171
H    0.671609  -2.658786  1.689008
H    -0.837935  -2.650699  0.761888
H    -2.061123  -3.593380  2.774366
H    -0.541911  -3.648557  3.653530
H    0.275510  -5.298351  2.030278
H    -1.688632  -8.080539  1.624657
H    -3.553941  -6.604712  1.924058
H    -3.267556  -4.942214  1.567589
H    -0.194027  -7.545176  2.303038
O    1.802592  0.982631  0.842794
H    -0.650911  -0.653688  -0.204596
Ba    3.954833  1.523092  2.245014
