28
Energy: -241650.484996 eV PBE+vdW (tier 2 basis)
N    1.002758  -1.190882  -0.120081
C    0.366305  -0.989179  1.218740
C    1.486694  -0.843864  2.256334
O    2.645614  -1.215920  2.006519
H    0.646861  -2.062704  -0.524745
H    0.665433  -0.462232  -0.756070
H    -0.185807  -0.035025  1.206525
C    -0.639390  -2.134482  1.556278
C    -1.425480  -1.995374  2.875186
C    -2.440441  -3.124186  3.158632
N    -3.726890  -2.958044  2.474983
C    -4.918726  -3.378422  2.959650
N    -6.045116  -2.973368  2.363668
N    -4.980104  -4.172520  4.032287
H    -0.092833  -3.091568  1.556315
H    -1.332721  -2.163841  0.700948
H    -1.952230  -1.028382  2.919771
H    -0.727630  -2.025930  3.724829
H    -2.646091  -3.114403  4.236770
H    -1.993402  -4.102770  2.916330
H    -3.730489  -2.655239  1.506757
H    -6.067780  -2.162512  1.756085
H    -5.863236  -4.337504  4.505517
H    -4.200790  -4.753224  4.317821
H    -6.934238  -3.422508  2.558815
O    1.258378  -0.312303  3.431114
H    0.345884  0.018007  3.553489
Ba    3.969471  -1.354621  -0.051465
