28
Energy: -241650.536405 eV PBE+vdW (tier 2 basis)
N    0.121235  -0.193501  -0.809113
C    -0.291882  0.323770  0.526250
C    0.980163  0.637219  1.325577
O    2.086296  0.699897  0.762384
H    0.215463  -1.213800  -0.757213
H    -0.651520  -0.040991  -1.464840
H    -0.730738  1.322569  0.346011
C    -1.385694  -0.482077  1.275981
C    -1.039428  -1.899850  1.769179
C    -2.236321  -2.507160  2.527911
N    -1.942411  -3.856074  3.015222
C    -2.871335  -4.782759  3.347054
N    -4.171979  -4.474644  3.358385
N    -2.476588  -6.026441  3.634974
H    -2.255994  -0.521797  0.603092
H    -1.737669  0.132889  2.122965
H    -0.161155  -1.873767  2.435434
H    -0.786496  -2.561765  0.926364
H    -3.101783  -2.571021  1.852333
H    -2.511776  -1.844793  3.366721
H    -0.999746  -4.039479  3.346347
H    -4.875051  -5.201254  3.451608
H    -3.103046  -6.689197  4.080490
H    -1.549613  -6.362448  3.400169
H    -4.496357  -3.521129  3.465123
O    0.925415  0.909724  2.603171
H    0.021161  0.880133  2.975229
Ba    2.767846  0.834747  -1.601807
