28
Energy: -241651.468847 eV PBE+vdW (tier 2 basis)
N    1.445687  -1.227638  -0.537401
C    0.835125  -0.901213  0.820845
C    1.751116  0.185552  1.442426
O    1.547769  0.558873  2.630002
H    2.139949  -0.464911  -0.717941
H    1.955405  -2.121610  -0.531104
H    -0.125629  -0.403751  0.614538
C    0.608204  -2.135911  1.701242
C    -0.505212  -3.080000  1.207032
C    -0.748273  -4.239508  2.189693
N    -1.810883  -5.123294  1.703329
C    -2.574523  -5.931779  2.469796
N    -3.639380  -6.531249  1.928181
N    -2.291122  -6.113147  3.764530
H    0.352753  -1.746020  2.697276
H    1.560562  -2.678768  1.823907
H    -0.245700  -3.501423  0.220599
H    -1.442235  -2.516661  1.079744
H    -1.061794  -3.834005  3.162594
H    0.186253  -4.805683  2.341950
H    -1.879405  -5.268429  0.700450
H    -4.106007  -7.301384  2.396156
H    -2.948191  -6.587358  4.375926
H    -1.358828  -5.967036  4.131750
H    -4.034395  -6.226626  1.045652
O    2.649930  0.697157  0.690906
H    0.757786  -1.257577  -1.300294
Ba    3.289036  2.442398  2.564219
