28
Energy: -241650.853918 eV PBE+vdW (tier 2 basis)
N    -0.125974  1.835513  1.574597
C    -0.003671  0.426135  2.066290
C    1.328602  -0.121058  1.553876
O    2.226906  0.621324  1.113557
H    -0.683823  1.818570  0.711506
H    -0.716478  2.349710  2.236108
H    0.125774  0.476640  3.162600
C    -1.251846  -0.448384  1.756705
C    -1.474170  -1.672021  2.668014
C    -2.765349  -2.422969  2.283172
N    -2.937996  -3.678094  3.022331
C    -3.989817  -4.037057  3.788410
N    -4.238790  -5.334872  3.988720
N    -4.780880  -3.117655  4.354979
H    -1.219448  -0.760275  0.700526
H    -2.120239  0.222091  1.853581
H    -1.529192  -1.354370  3.720632
H    -0.626117  -2.365278  2.591930
H    -2.752621  -2.666038  1.209288
H    -3.653995  -1.798999  2.442826
H    -2.304656  -4.434057  2.777372
H    -3.862172  -6.053027  3.379746
H    -5.662923  -3.383614  4.779854
H    -4.473645  -2.165284  4.500809
H    -4.850931  -5.645938  4.736155
O    1.467875  -1.417822  1.648733
H    2.359970  -1.705199  1.349827
Ba    2.367605  3.101030  0.879857
