28
Energy: -241651.468210 eV PBE+vdW (tier 2 basis)
N    1.265813  -1.065760  -0.738637
C    0.846990  -0.820020  0.706449
C    1.868692  0.201483  1.271471
O    1.833284  0.496272  2.497400
H    1.746220  -1.968150  -0.857131
H    0.484073  -1.030264  -1.404788
H    -0.116579  -0.288444  0.660990
C    0.698168  -2.106845  1.526814
C    -0.504085  -2.985860  1.129911
C    -0.651504  -4.203045  2.060673
N    -1.798983  -5.026303  1.670360
C    -2.490070  -5.851100  2.486704
N    -3.637081  -6.385918  2.056613
N    -2.052831  -6.112251  3.723859
H    0.593569  -1.780868  2.571880
H    1.638934  -2.681085  1.481812
H    -0.395495  -3.344852  0.092016
H    -1.429568  -2.391343  1.169422
H    -0.817357  -3.856269  3.090871
H    0.275268  -4.801285  2.048010
H    -1.998341  -5.114853  0.678386
H    -4.069255  -7.166476  2.540166
H    -2.646077  -6.597623  4.389381
H    -1.076099  -6.020079  3.974578
H    -4.128913  -6.020407  1.249003
O    2.676711  0.744659  0.442891
H    1.952525  -0.306768  -0.959442
Ba    3.606989  2.342455  2.325337
