28
Energy: -241651.355045 eV PBE+vdW (tier 2 basis)
N    -0.436196  0.114577  0.042404
C    -0.037036  0.051995  1.512416
C    1.429225  0.547996  1.572431
O    1.900154  1.102551  0.518562
H    -1.401084  0.443185  -0.097046
H    -0.346642  -0.801235  -0.420530
H    -0.641730  0.820155  2.019847
C    -0.341680  -1.337255  2.108488
C    -0.548864  -1.343794  3.635065
C    -0.979951  -2.735790  4.130232
N    -1.258646  -2.717099  5.568690
C    -2.075997  -3.569818  6.222028
N    -2.408388  -3.314806  7.491948
N    -2.574358  -4.646942  5.604967
H    0.452803  -2.042996  1.820586
H    -1.270658  -1.696147  1.635623
H    -1.327247  -0.613774  3.904792
H    0.379136  -1.035992  4.138376
H    -0.197765  -3.478160  3.898539
H    -1.901380  -3.043127  3.614094
H    -0.687200  -2.111576  6.149939
H    -2.838168  -4.023408  8.077371
H    -2.277510  -2.398695  7.905158
H    -3.310536  -5.196285  6.036765
H    -2.122515  -5.055130  4.795914
O    2.088307  0.440238  2.642637
H    0.233252  0.766142  -0.420657
Ba    4.124677  1.749189  1.696361
