28
Energy: -241650.826648 eV PBE+vdW (tier 2 basis)
N    0.098503  0.798547  0.370123
C    -0.108848  0.364663  1.787660
C    1.273994  0.171812  2.408075
O    2.292866  0.705724  1.929928
H    0.107258  -0.041788  -0.221264
H    -0.742333  1.302056  0.069446
H    -0.517847  1.239414  2.327235
C    -1.113724  -0.808511  1.961027
C    -1.800218  -0.864796  3.341920
C    -3.061078  -1.739022  3.421334
N    -2.766688  -3.178908  3.459547
C    -3.708235  -4.145046  3.344943
N    -3.337846  -5.429574  3.381151
N    -4.992575  -3.827266  3.158480
H    -0.621017  -1.760910  1.713931
H    -1.891300  -0.653098  1.197079
H    -2.128423  0.149046  3.617528
H    -1.091947  -1.167433  4.126169
H    -3.708772  -1.544322  2.553503
H    -3.613840  -1.442300  4.327753
H    -1.921461  -3.454252  3.952173
H    -2.366187  -5.708520  3.317302
H    -5.678109  -4.541787  2.935383
H    -5.357260  -2.912454  3.394529
H    -4.020660  -6.173679  3.478483
O    1.299368  -0.553125  3.496420
H    2.203372  -0.585477  3.883291
Ba    2.597006  2.170006  -0.074151
