27
Energy: -105278.298267 eV PBE+vdW (tier 2 basis)
C    0.552928  0.683838  1.295495
C    -0.273545  0.889735  2.516932
O    0.047773  1.709146  3.415286
H    1.480052  0.183061  1.619090
H    0.848993  1.644990  0.860451
H    0.078944  0.047573  0.541554
N    -1.412477  0.147945  2.711314
C    -2.467886  -0.042830  1.716909
C    -2.653508  1.244225  0.868461
O    -2.328100  2.365719  1.349782
H    -1.749152  0.208881  3.670262
H    -2.217186  -0.881358  1.052751
C    -3.776687  -0.421080  2.447900
C    -4.321671  0.592930  3.462410
O    -3.640999  1.557015  3.904168
N    -5.560659  0.377932  3.893883
H    -3.606141  -1.368300  2.985916
H    -4.555881  -0.639932  1.705207
H    -6.124984  -0.402190  3.571373
H    -5.955097  0.976003  4.616508
N    -3.158815  1.151955  -0.356681
C    -3.599916  -0.028809  -1.103506
H    -3.274204  2.052153  -0.823917
H    -3.418563  0.149026  -2.168233
H    -4.673546  -0.208055  -0.959248
H    -3.037500  -0.920387  -0.809997
Sr    -1.881172  3.149817  3.554930
