27
Energy: -105277.822719 eV PBE+vdW (tier 2 basis)
C    -2.255617  -1.417639  -0.710567
C    -1.651990  -1.700431  0.626486
O    -1.441735  -2.905134  0.987000
H    -3.242131  -1.900053  -0.758819
H    -1.637578  -1.874769  -1.494724
H    -2.369541  -0.349348  -0.918569
N    -1.347929  -0.661296  1.406264
C    -0.967481  -0.615059  2.834801
C    0.345283  -1.329840  3.181247
O    0.460592  -2.595244  3.179454
H    -1.713129  0.241656  1.100143
H    -0.807929  0.457836  3.003821
C    -2.131522  -1.010496  3.760159
C    -3.243705  0.055388  3.600780
O    -3.128256  0.943987  2.757657
N    -4.307930  -0.071700  4.416507
H    -1.784959  -1.049088  4.803812
H    -2.529816  -2.004532  3.509799
H    -4.362280  -0.762918  5.154241
H    -5.049502  0.620188  4.357110
N    1.350374  -0.549755  3.549768
C    2.664398  -1.015516  3.993550
H    1.204790  0.456314  3.512898
H    2.574599  -2.024114  4.405045
H    3.035900  -0.335692  4.766774
H    3.371487  -1.020485  3.153720
Sr    -0.291250  -4.464378  2.108583
