27
Energy: -105277.266751 eV PBE+vdW (tier 2 basis)
C    0.727135  0.677463  0.769926
C    0.006419  -0.397264  1.551279
O    0.418394  -1.527829  1.694358
H    1.657246  0.245716  0.390772
H    0.979678  1.550134  1.388947
H    0.136289  1.026060  -0.089969
N    -1.221712  -0.058902  2.159234
C    -1.969227  1.170368  2.048994
C    -2.540356  1.503690  3.437436
O    -3.798780  1.478091  3.662516
H    -1.674783  -0.866174  2.585794
H    -1.260626  1.971273  1.787543
C    -3.040620  1.072233  0.911338
C    -3.783899  2.339680  0.549365
O    -4.846721  2.676536  1.156768
N    -3.299686  3.107262  -0.418949
H    -3.779507  0.305161  1.178581
H    -2.502849  0.692827  0.033032
H    -2.489743  2.837699  -0.968077
H    -3.789914  3.957819  -0.688815
N    -1.704428  1.773886  4.428920
C    -0.239660  1.828029  4.406370
H    -2.150039  1.899210  5.337171
H    0.187729  0.817953  4.400143
H    0.091455  2.356349  5.304696
H    0.117017  2.382454  3.531700
Sr    -5.900828  2.118762  3.112040
