27
Energy: -105278.010979 eV PBE+vdW (tier 2 basis)
C    2.136285  0.969435  0.919879
C    1.304467  0.870583  2.154323
O    1.793853  1.140195  3.299008
H    2.530992  1.990119  0.824865
H    1.587444  0.712860  0.007886
H    3.001415  0.298619  1.017232
N    0.024441  0.490885  2.051891
C    -0.862310  0.366320  3.209112
C    -2.130769  -0.505617  2.963315
O    -3.168019  -0.190392  3.544052
H    -0.367797  0.366304  1.120428
H    -0.279088  -0.161348  3.981820
C    -1.309113  1.749972  3.757509
C    -1.280041  1.745490  5.267521
O    -0.182031  1.988883  5.871527
N    -2.384986  1.438933  5.914701
H    -2.310040  1.982246  3.378663
H    -0.616990  2.529322  3.418635
H    -3.196041  1.118354  5.381054
H    -2.407384  1.402555  6.931442
N    -1.997931  -1.569534  2.149188
C    -3.103469  -2.497927  1.894492
H    -1.074422  -1.840746  1.827677
H    -3.153483  -3.273332  2.670009
H    -2.955154  -2.968038  0.917778
H    -4.043456  -1.938600  1.893364
Sr    2.056136  1.948268  5.419958
