27
Energy: -105277.786932 eV PBE+vdW (tier 2 basis)
C    0.458742  0.455606  0.467496
C    -0.183314  -0.593322  1.324778
O    0.376674  -1.629844  1.686137
H    0.768148  -0.007773  -0.478759
H    1.373739  0.809794  0.959364
H    -0.192741  1.309624  0.252212
N    -1.498726  -0.371889  1.718263
C    -2.065194  -1.363433  2.603084
C    -3.589814  -1.447170  2.593781
O    -4.211566  -1.661748  3.691009
H    -1.904649  0.555706  1.641668
H    -1.713866  -2.329086  2.188084
C    -1.468047  -1.257777  4.042121
C    -1.251220  -2.616000  4.665942
O    -2.101422  -3.105309  5.478951
N    -0.174764  -3.283860  4.290484
H    -2.100945  -0.642458  4.691878
H    -0.501928  -0.751409  3.949136
H    0.443302  -2.894018  3.573831
H    0.015315  -4.214634  4.655228
N    -4.277033  -1.374576  1.462996
C    -3.807191  -1.304816  0.072866
H    -5.286763  -1.438923  1.590500
H    -2.858452  -1.833744  -0.046553
H    -3.692715  -0.264666  -0.254425
H    -4.562197  -1.788912  -0.554619
Sr    -4.333258  -2.685767  5.734792
