27
Energy: -105277.91098 eV PBE+vdW (tier 2 basis)
C    0.396808  1.589173  0.605414
C    0.119098  0.725817  1.791403
O    1.045671  -0.009494  2.279757
H    1.262532  2.232776  0.808281
H    -0.458545  2.208773  0.319272
H    0.669510  0.943142  -0.241562
N    -1.101309  0.738945  2.312937
C    -1.666426  -0.175154  3.298962
C    -3.128775  -0.396804  2.767637
O    -3.581719  0.461487  2.009834
H    -1.874122  1.216538  1.812274
H    -1.087462  -1.107850  3.310178
C    -1.774670  0.432821  4.713578
C    -0.482126  0.751337  5.437091
O    0.567783  0.059310  5.282503
N    -0.503284  1.763145  6.295465
H    -2.309693  -0.281926  5.361499
H    -2.407202  1.330640  4.668419
H    -1.336442  2.325516  6.441706
H    0.304388  1.960822  6.881407
N    -3.822301  -1.471620  3.181000
C    -3.417460  -2.556945  4.064736
H    -4.775797  -1.495432  2.821710
H    -3.724247  -2.376886  5.105483
H    -2.332984  -2.710841  4.029107
H    -3.888709  -3.486278  3.726969
Sr    2.233483  -0.822013  3.980942
