27
Energy: -105278.816209 eV PBE+vdW (tier 2 basis)
C    -1.023038  1.034589  -0.124376
C    -0.575144  0.777936  1.279794
O    0.622671  0.490209  1.536569
H    -0.423776  1.849251  -0.551611
H    -2.084942  1.286506  -0.211427
H    -0.816659  0.138599  -0.726372
N    -1.508949  0.846828  2.252620
C    -1.372852  0.537707  3.681619
C    -0.621325  1.653277  4.441991
O    0.440609  2.158225  3.994325
H    -2.447174  1.089730  1.948895
H    -2.406139  0.558922  4.042793
C    -0.866302  -0.926889  3.958678
C    0.402416  -1.126144  4.774280
O    1.485781  -0.572756  4.461934
N    0.336577  -1.959150  5.812026
H    -0.665916  -1.403590  2.988784
H    -1.691261  -1.490487  4.409322
H    -0.512068  -2.455437  6.061059
H    1.184809  -2.187387  6.325988
N    -1.136900  2.069747  5.597646
C    -2.378795  1.655459  6.259656
H    -0.602122  2.814608  6.044134
H    -3.262734  1.967357  5.688081
H    -2.419270  2.147232  7.235579
H    -2.402902  0.572797  6.431590
Sr    2.307403  1.091864  3.018423
