27
Energy: -105277.975239 eV PBE+vdW (tier 2 basis)
C    0.038170  -0.037483  -0.330548
C    -0.717016  0.353677  0.908955
O    -1.281800  1.415515  1.069499
H    1.104087  0.195217  -0.176431
H    -0.312039  0.558552  -1.178444
H    -0.026017  -1.108345  -0.566905
N    -0.781670  -0.668973  1.925028
C    -0.708476  -0.320857  3.375237
C    -1.179440  -1.563578  4.163875
O    -2.079554  -2.312118  3.688355
H    -0.104128  -1.408940  1.725935
H    0.348924  -0.145747  3.633575
C    -1.443427  0.972655  3.816106
C    -2.861594  1.205595  3.324955
O    -3.568909  0.280711  2.833719
N    -3.356608  2.423954  3.482229
H    -0.834727  1.838827  3.532556
H    -1.473528  0.967127  4.918439
H    -2.803908  3.193154  3.846729
H    -4.309015  2.624949  3.187654
N    -0.603165  -1.789168  5.335567
C    -0.946082  -2.881170  6.249887
H    0.149073  -1.167148  5.623694
H    -1.748868  -3.476549  5.809963
H    -1.274142  -2.467886  7.211024
H    -0.065006  -3.513004  6.412556
Sr    -3.382132  -1.762966  1.838789
