27
Energy: -105277.820869 eV PBE+vdW (tier 2 basis)
C    -1.674561  1.699458  0.134299
C    -1.141861  1.307082  1.478592
O    -0.118937  1.889691  1.958430
H    -0.893622  1.517346  -0.617295
H    -1.893744  2.775159  0.119741
H    -2.577386  1.152781  -0.156763
N    -1.781233  0.333728  2.136626
C    -1.422712  -0.343279  3.403371
C    -2.674000  -1.158197  3.831227
O    -3.553687  -0.617852  4.516515
H    -2.594982  -0.047720  1.659230
H    -0.584412  -1.023160  3.192339
C    -0.955022  0.573366  4.561395
C    -1.627670  1.928331  4.742130
O    -0.917875  2.986717  4.649956
N    -2.912556  1.958015  5.009772
H    0.119379  0.753609  4.458288
H    -1.083562  0.001970  5.492797
H    -3.422428  1.048882  4.996133
H    -3.387504  2.841457  5.180359
N    -2.767641  -2.428434  3.404840
C    -1.791205  -3.231153  2.665216
H    -3.609794  -2.902090  3.730441
H    -0.948615  -3.535505  3.300813
H    -1.416937  -2.702584  1.780160
H    -2.294535  -4.136771  2.314276
Sr    0.726910  3.607105  3.215605
