27
Energy: -105277.904538 eV PBE+vdW (tier 2 basis)
C    -0.166241  1.814233  -0.293880
C    0.055585  1.280448  1.081408
O    1.180310  1.457913  1.670760
H    0.003892  2.899335  -0.297072
H    -1.171183  1.605444  -0.673185
H    0.574382  1.370221  -0.973570
N    -0.924140  0.623816  1.680250
C    -0.882101  -0.055932  2.965224
C    -2.044854  -1.099678  2.839391
O    -2.855758  -0.946527  1.927736
H    -1.810298  0.391711  1.191112
H    0.086192  -0.563656  3.077432
C    -1.134031  0.900344  4.174058
C    -0.012829  0.981377  5.187616
O    1.198470  1.092308  4.830534
N    -0.333302  0.973016  6.474761
H    -2.077863  0.645329  4.672585
H    -1.270989  1.921456  3.785463
H    -1.295932  0.900008  6.789083
H    0.387282  1.087991  7.184250
N    -2.113861  -2.094750  3.743450
C    -1.209090  -2.400164  4.842244
H    -2.919732  -2.704321  3.614260
H    -1.214976  -3.481225  5.016243
H    -1.508153  -1.905231  5.778003
H    -0.177356  -2.119229  4.597548
Sr    2.762577  1.614762  3.223296
