27
Energy: -105278.00314 eV PBE+vdW (tier 2 basis)
C    -0.615769  1.258592  -0.218951
C    -0.323988  0.673468  1.121539
O    0.886798  0.475332  1.494962
H    -0.194502  0.604176  -0.994807
H    -0.113782  2.231244  -0.310718
H    -1.687010  1.386807  -0.401974
N    -1.329986  0.360666  1.921933
C    -1.246864  -0.276804  3.225004
C    -2.694483  -0.829241  3.445953
O    -3.604725  -0.340501  2.781227
H    -2.319978  0.476283  1.639822
H    -0.517205  -1.099101  3.181450
C    -0.866021  0.726425  4.365893
C    0.327531  0.297627  5.187384
O    1.445726  0.060420  4.636761
N    0.187615  0.185930  6.501349
H    -1.735971  0.919545  5.005248
H    -0.598315  1.691419  3.911262
H    -0.691101  0.393282  6.966033
H    0.986154  -0.056186  7.084691
N    -2.839308  -1.766216  4.399537
C    -4.140699  -2.354974  4.730311
H    -2.010916  -2.204626  4.787950
H    -4.923661  -1.627904  4.497654
H    -4.168224  -2.595739  5.797782
H    -4.318784  -3.266951  4.146218
Sr    2.718468  0.131029  2.715484
