27
Energy: -105277.971884 eV PBE+vdW (tier 2 basis)
C    0.484326  0.065991  0.142163
C    -0.655317  0.294909  1.091902
O    -1.578645  -0.507870  1.241093
H    0.805591  -0.979323  0.213810
H    1.340913  0.729300  0.306019
H    0.116914  0.217035  -0.883485
N    -0.621506  1.474056  1.815777
C    -1.705420  1.977952  2.647260
C    -1.710725  1.420902  4.081913
O    -2.618530  1.809575  4.887822
H    0.105706  2.141048  1.574810
H    -1.468195  3.042389  2.796219
C    -3.128817  1.956890  1.973396
C    -4.169203  0.986810  2.513231
O    -5.075707  1.415702  3.306082
N    -4.119843  -0.270729  2.132870
H    -2.983484  1.775457  0.902365
H    -3.573119  2.954375  2.062593
H    -3.288437  -0.589149  1.607028
H    -4.835009  -0.928866  2.432646
N    -0.734544  0.613387  4.438647
C    -0.524556  0.044990  5.767402
H    -0.069357  0.378701  3.702407
H    -0.820016  -1.011966  5.778275
H    -1.113136  0.601916  6.500337
H    0.537598  0.118966  6.024333
Sr    -4.802479  2.301553  5.366085
