27
Energy: -105277.911123 eV PBE+vdW (tier 2 basis)
C    -0.148601  0.425898  -0.139398
C    -0.053513  0.292364  1.343174
O    1.008220  0.614626  1.957004
H    0.681455  -0.115482  -0.611429
H    -0.027048  1.487321  -0.399597
H    -1.097562  0.065485  -0.549369
N    -1.116903  -0.169028  2.020856
C    -1.216439  -0.191936  3.485279
C    -0.522961  -1.430184  4.072812
O    0.725983  -1.352212  4.301625
H    -1.943702  -0.413049  1.481018
H    -0.630489  0.678756  3.837427
C    -2.625831  0.158372  3.958279
C    -2.694046  1.708574  4.091181
O    -1.653056  2.362238  4.156935
N    -3.925415  2.241154  4.154462
H    -2.808145  -0.255129  4.961578
H    -3.416743  -0.229068  3.299251
H    -4.770282  1.682941  4.128819
H    -4.020403  3.241198  4.305939
N    -1.220783  -2.525964  4.318282
C    -0.687879  -3.773377  4.870128
H    -2.217041  -2.501849  4.113558
H    -0.769098  -4.573532  4.124220
H    -1.263683  -4.052596  5.759973
H    0.359858  -3.626746  5.140306
Sr    2.315568  0.256264  3.778587
