27
Energy: -105278.308826 eV PBE+vdW (tier 2 basis)
C    -0.193338  0.152029  0.172536
C    -0.309973  0.136565  1.658463
O    0.678493  0.381664  2.401361
H    0.547693  -0.598150  -0.136248
H    0.195825  1.129389  -0.143229
H    -1.140695  -0.043808  -0.340264
N    -1.527717  -0.148395  2.209415
C    -1.613810  -0.160467  3.656362
C    -1.224104  -1.511071  4.291259
O    -0.093628  -1.559262  4.859605
H    -2.308204  -0.374758  1.600407
H    -0.743154  0.448016  3.875159
C    -2.660119  0.678007  4.394272
C    -1.921554  1.449754  5.521895
O    -0.664377  1.483170  5.581236
N    -2.677258  2.086091  6.407569
H    -3.490386  0.102535  4.822777
H    -3.097747  1.423120  3.712197
H    -3.691248  2.077331  6.360535
H    -2.242963  2.634939  7.145867
N    -2.015742  -2.573363  4.234222
C    -3.317108  -2.709531  3.585182
H    -1.628359  -3.413127  4.667789
H    -4.030211  -3.161705  4.284246
H    -3.235797  -3.353180  2.699848
H    -3.705833  -1.732862  3.282748
Sr    1.360789  0.337365  4.745012
