27
Energy: -105277.762808 eV PBE+vdW (tier 2 basis)
C    0.693214  2.379117  0.799380
C    0.313067  1.658852  2.057869
O    0.304320  2.274206  3.167076
H    0.036876  3.250740  0.672629
H    0.633907  1.757268  -0.100102
H    1.720355  2.757575  0.893788
N    -0.003146  0.361258  1.954653
C    -0.404795  -0.650060  2.954172
C    -1.935000  -0.910752  3.067830
O    -2.305248  -1.701119  3.940904
H    0.109905  -0.018507  1.017211
H    -0.035896  -1.588176  2.512106
C    0.301801  -0.586974  4.340906
C    -0.330793  0.154820  5.513458
O    0.199850  1.222637  5.969812
N    -1.383021  -0.381415  6.095247
H    1.316453  -0.197311  4.205151
H    0.412598  -1.630763  4.664243
H    -1.852581  -1.172905  5.627272
H    -1.788789  0.048420  6.923050
N    -2.745754  -0.321541  2.174926
C    -4.181202  -0.598094  2.095179
H    -2.342077  0.288338  1.473041
H    -4.751588  0.333951  2.181673
H    -4.449139  -1.270545  2.914182
H    -4.420393  -1.081306  1.140153
Sr    0.796078  3.234286  5.173189
