27
Energy: -105277.905393 eV PBE+vdW (tier 2 basis)
C    -1.972633  -2.078299  -1.235123
C    -1.670798  -2.078929  0.230759
O    -1.619356  -3.175051  0.871475
H    -1.901433  -1.089333  -1.699438
H    -2.994749  -2.460619  -1.374201
H    -1.302763  -2.772778  -1.757338
N    -1.470250  -0.894921  0.825496
C    -1.381785  -0.542421  2.251356
C    -0.113737  -1.052823  2.975798
O    0.438189  -2.168497  2.690085
H    -1.515556  -0.091861  0.203696
H    -1.292726  0.551725  2.248530
C    -2.677180  -0.848771  3.043704
C    -2.908691  0.243250  4.110438
O    -2.025340  1.066351  4.381029
N    -4.107482  0.235804  4.713897
H    -2.645422  -1.832810  3.532216
H    -3.525909  -0.869132  2.345834
H    -4.854620  -0.397147  4.455141
H    -4.302470  0.940110  5.420152
N    0.320289  -0.262016  3.931273
C    1.461307  -0.518992  4.802571
H    -0.319558  0.528564  4.154926
H    1.115071  -0.819363  5.800384
H    2.044224  0.403546  4.899699
H    2.089704  -1.304042  4.375457
Sr    0.044678  -4.269543  1.973180
