27
Energy: -105278.949678 eV PBE+vdW (tier 2 basis)
C    -0.662822  0.558898  0.216859
C    -0.413747  -0.098840  1.539073
O    0.620806  -0.780721  1.733954
H    -0.645105  -0.205210  -0.571263
H    0.165092  1.250253  0.007473
H    -1.608318  1.108403  0.164154
N    -1.343972  0.088996  2.505066
C    -1.340640  -0.367594  3.907074
C    0.048951  -0.251495  4.585314
O    0.855564  -1.214702  4.640954
H    -2.133738  0.672505  2.243532
H    -1.973623  0.366761  4.424297
C    -2.065529  -1.719985  4.162155
C    -1.811983  -2.898296  3.233665
O    -0.660012  -3.255782  2.885151
N    -2.882090  -3.585977  2.838723
H    -3.142790  -1.511635  4.184648
H    -1.804137  -2.060876  5.177152
H    -3.825293  -3.340248  3.119192
H    -2.758828  -4.433757  2.289782
N    0.312558  0.923591  5.149425
C    1.552946  1.243333  5.857442
H    -0.387705  1.657655  5.089264
H    1.996766  0.321152  6.241547
H    1.320736  1.911972  6.692200
H    2.263129  1.743150  5.185728
Sr    1.572875  -2.585059  2.875722
