27
Energy: -105278.920832 eV PBE+vdW (tier 2 basis)
C    1.330858  -1.902269  1.542776
C    0.588143  -0.707540  2.050810
O    1.167182  0.398525  2.209550
H    1.786799  -1.658678  0.574205
H    0.708441  -2.796182  1.432436
H    2.154807  -2.122750  2.235898
N    -0.719070  -0.866400  2.351475
C    -1.635382  0.116045  2.951721
C    -2.065039  1.180196  1.911572
O    -1.230958  1.914745  1.325485
H    -1.106574  -1.791572  2.191038
H    -2.531155  -0.473240  3.179289
C    -1.116398  0.645369  4.342391
C    -1.035605  2.146070  4.574094
O    -0.228868  2.862133  3.929413
N    -1.811369  2.672115  5.520075
H    -0.092657  0.277694  4.488428
H    -1.726974  0.176986  5.122616
H    -1.720704  3.659067  5.751662
H    -2.431724  2.109438  6.091949
N    -3.372318  1.252359  1.667501
C    -3.994274  2.168690  0.711208
H    -3.987904  0.596857  2.140857
H    -4.351394  1.611472  -0.164035
H    -3.256589  2.908382  0.392949
H    -4.843631  2.670700  1.187682
Sr    0.926358  2.691788  1.891952
