27
Energy: -105278.385126 eV PBE+vdW (tier 2 basis)
C    0.785903  -0.001854  0.549621
C    0.380345  0.784396  1.747497
O    1.121476  1.664100  2.255639
H    1.588456  -0.684201  0.874912
H    1.218612  0.650927  -0.216640
H    -0.017057  -0.615494  0.129408
N    -0.825169  0.536529  2.356875
C    -2.109809  0.459208  1.660929
C    -2.134199  1.445419  0.457867
O    -1.461111  2.510312  0.494731
H    -0.878018  0.955446  3.283532
H    -2.284680  -0.561133  1.285778
C    -3.240896  0.766333  2.670245
C    -3.212518  2.132726  3.365822
O    -2.201947  2.885927  3.363338
N    -4.316255  2.474922  4.022708
H    -3.211780  -0.004322  3.458601
H    -4.210829  0.640445  2.169999
H    -5.138460  1.880039  4.058466
H    -4.336852  3.337844  4.561574
N    -2.894163  1.101471  -0.573462
C    -3.091764  1.901479  -1.784329
H    -3.364252  0.199624  -0.536061
H    -2.479348  2.803308  -1.719735
H    -4.148720  2.177495  -1.880184
H    -2.793736  1.315917  -2.661886
Sr    -0.250795  3.647364  2.212228
