27
Energy: -105278.873755 eV PBE+vdW (tier 2 basis)
C    -1.364528  0.633317  0.431068
C    -0.807353  0.763788  1.814480
O    0.278003  1.358068  2.021296
H    -0.626545  0.126980  -0.205066
H    -1.506406  1.639228  0.012620
H    -2.313115  0.088623  0.383722
N    -1.529665  0.226076  2.826220
C    -1.242702  0.267393  4.269346
C    -0.672157  1.633566  4.714447
O    0.557651  1.802440  4.932501
H    -2.401308  -0.224320  2.561578
H    -2.231846  0.202173  4.743566
C    -0.477815  -0.963689  4.829457
C    0.718015  -1.515707  4.068655
O    1.644685  -0.786791  3.635969
N    0.772802  -2.838078  3.920307
H    -1.212546  -1.766979  4.968137
H    -0.115482  -0.708819  5.838489
H    0.055525  -3.459238  4.278525
H    1.595110  -3.261513  3.496233
N    -1.539253  2.625184  4.905255
C    -2.997586  2.614429  4.755122
H    -1.114517  3.491579  5.234538
H    -3.470493  1.943680  5.484844
H    -3.292676  2.334070  3.737220
H    -3.363298  3.627041  4.945852
Sr    2.230501  1.447499  3.322618
