27
Energy: -105277.980123 eV PBE+vdW (tier 2 basis)
C    0.242943  0.231376  0.017699
C    0.043522  0.160871  1.500922
O    0.854287  0.572124  2.327787
H    1.088576  -0.418472  -0.248259
H    0.529156  1.252795  -0.260760
H    -0.633386  -0.079897  -0.561468
N    -1.141291  -0.442387  1.948962
C    -1.353833  -0.422824  3.380221
C    -2.288414  -1.522845  3.878329
O    -2.823954  -1.417838  5.030618
H    -1.946693  -0.395982  1.327269
H    -0.363502  -0.682281  3.798099
C    -1.718366  0.991112  3.942244
C    -0.952202  1.288703  5.211709
O    -1.487905  1.096274  6.352199
N    0.297318  1.696444  5.087339
H    -2.793394  1.086276  4.134439
H    -1.454119  1.730043  3.178302
H    0.738009  1.715621  4.162904
H    0.866803  1.882049  5.909998
N    -2.457845  -2.583045  3.110317
C    -3.235892  -3.774109  3.447106
H    -1.937932  -2.579903  2.232300
H    -2.572134  -4.575292  3.797287
H    -3.766789  -4.116891  2.553039
H    -3.959771  -3.529389  4.228010
Sr    -3.010190  -0.430530  7.087389
