28
Energy: -173810.1176533  eV PBE+vdW (tier 2 basis)
C    -0.31181  -0.85394  0.50104
C    -0.21743  -0.00749  1.73518
O    0.86059  0.03776  2.37576
H    -1.28692  -0.79039  0.00591
H    -0.10702  -1.89839  0.76813
H    0.47123  -0.53875  -0.20009
N    -1.33491  0.68610  2.09969
C    -1.26840  1.58577  3.24612
C    -1.50661  0.78402  4.54300
O    -0.51611  0.23154  5.09740
H    -2.17653  0.58102  1.54293
H    -0.19633  1.75655  3.23966
C    -1.75907  3.03749  3.07035
C    -0.95880  4.05832  3.96970
C    0.39925  3.44588  4.31245
O    1.21529  3.20843  3.35759
O    0.53128  2.92330  5.46587
H    -2.82930  3.17487  3.25676
H    -1.57621  3.28413  2.01622
H    -1.49399  4.26595  4.90076
H    -0.83744  4.99316  3.41149
N    -2.72814  0.60536  5.04963
C    -4.01321  1.06392  4.53449
H    -2.73928  0.05651  5.90786
H    -4.28950  2.04317  4.94793
H    -4.00275  1.12216  3.44167
H    -4.78050  0.33713  4.82047
Cd    1.47884  1.12911  4.38249
