28
Energy: -173809.3494513  eV PBE+vdW (tier 2 basis)
C    0.08036  -0.13942  0.09544
C    -0.14587  0.39268  1.48811
O    0.65737  1.16338  2.03373
H    0.16883  0.70290  -0.60137
H    -0.71475  -0.81322  -0.24240
H    1.03739  -0.67573  0.08085
N    -1.28056  -0.01397  2.11927
C    -1.62401  0.30343  3.48544
C    -2.67318  -0.75838  3.90582
O    -3.40031  -1.26306  3.05192
H    -1.97610  -0.58246  1.63392
H    -0.71467  0.23462  4.09945
C    -2.26973  1.71272  3.66007
C    -1.21231  2.81153  3.69257
C    -1.78333  4.22553  3.54064
O    -1.22931  5.14458  4.22971
O    -2.73908  4.44562  2.73550
H    -2.85567  1.72790  4.58996
H    -2.97628  1.86827  2.83495
H    -0.49491  2.70629  2.85766
H    -0.61600  2.78874  4.61177
N    -2.76180  -1.05612  5.22247
C    -1.87818  -0.62732  6.29996
H    -3.46250  -1.76187  5.43298
H    -2.26051  -1.04159  7.23742
H    -1.86084  0.46589  6.40412
H    -0.85043  -0.99209  6.16389
Cd    -2.56449  6.65559  3.24167
