28
Energy: -173810.5397561  eV PBE+vdW (tier 2 basis)
C    0.27137  0.12083  0.22960
C    0.07291  -0.04794  1.71037
O    1.08105  -0.08534  2.45817
H    0.68681  -0.81843  -0.16160
H    1.01695  0.90594  0.06044
H    -0.64432  0.36221  -0.32113
N    -1.21409  -0.14397  2.12100
C    -1.87192  -0.27850  3.43675
C    -1.04501  0.21287  4.64937
O    0.00863  -0.29668  5.09486
H    -1.88382  -0.10307  1.35899
H    -2.70291  0.43702  3.36711
C    -2.57306  -1.66712  3.71023
C    -2.06787  -2.94309  2.99367
C    -0.59459  -3.12096  3.29467
O    -0.25038  -3.20845  4.52319
O    0.24419  -2.92610  2.35638
H    -3.63160  -1.54578  3.44470
H    -2.53998  -1.84335  4.79342
H    -2.21618  -2.89382  1.90982
H    -2.64771  -3.78809  3.38654
N    -1.60186  1.23743  5.30848
C    -1.03038  1.78481  6.53607
H    -2.46489  1.63787  4.96068
H    -0.00269  2.12316  6.35885
H    -1.01727  1.02452  7.32670
H    -1.64213  2.63231  6.85604
Cd    1.33975  -1.71930  3.96064
