28
Energy: -173810.5113149  eV PBE+vdW (tier 2 basis)
C    0.20735  1.19585  0.90911
C    -0.13312  0.34312  2.08386
O    0.55064  0.45122  3.15323
H    -0.40505  0.97813  0.02893
H    1.26195  1.00974  0.65892
H    0.12538  2.25504  1.18139
N    -1.11566  -0.59272  1.99892
C    -2.47841  -0.31964  1.52716
C    -2.91751  1.06339  2.09024
O    -2.23238  1.65084  2.95484
H    -1.11283  -1.25771  2.78594
H    -2.49654  -0.27162  0.42736
C    -3.42143  -1.48560  1.96729
C    -3.98804  -1.50548  3.41902
C    -2.92713  -1.09559  4.42722
O    -1.80496  -1.69859  4.42096
O    -3.11070  -0.01564  5.09117
H    -2.87281  -2.41653  1.77099
H    -4.28396  -1.49550  1.28851
H    -4.33059  -2.52621  3.63252
H    -4.84351  -0.83020  3.52120
N    -4.05853  1.56608  1.61108
C    -4.64749  2.81807  2.08101
H    -4.51991  1.07792  0.85006
H    -4.41593  2.94581  3.14252
H    -5.73240  2.77336  1.94583
H    -4.24860  3.67561  1.52339
Cd    -0.97381  0.47585  4.75733
