28
Energy: -173809.3429049  eV PBE+vdW (tier 2 basis)
C    -0.45808  1.21523  0.74787
C    0.03370  0.08165  1.61409
O    1.20891  -0.08646  1.90080
H    -0.75155  0.84505  -0.24527
H    -1.32151  1.73306  1.18674
H    0.36396  1.92375  0.61803
N    -0.91369  -0.80964  2.12660
C    -2.27928  -0.98122  1.70347
C    -3.31753  -0.52820  2.78369
O    -4.51992  -0.71014  2.57330
H    -0.47850  -1.57618  2.64107
H    -2.46623  -0.31287  0.85021
C    -2.55621  -2.44406  1.27925
C    -3.86365  -2.60117  0.50870
C    -4.20087  -4.05469  0.17268
O    -3.87622  -4.98115  0.97912
O    -4.83486  -4.26629  -0.91208
H    -1.71048  -2.76160  0.65317
H    -2.56596  -3.09744  2.16419
H    -3.87290  -2.02705  -0.42548
H    -4.71425  -2.24734  1.11680
N    -2.81538  0.05146  3.88227
C    -3.64172  0.57439  4.96333
H    -1.80783  0.18287  3.90736
H    -4.60498  0.05560  4.95611
H    -3.81930  1.65137  4.84163
H    -3.13833  0.39961  5.92020
Cd    -4.94561  -6.45492  -0.39286
