28
Energy: -173809.0967036  eV PBE+vdW (tier 2 basis)
C    -0.49047  -0.87025  -0.01918
C    -0.71567  0.10473  1.11243
O    -0.13057  1.17894  1.18328
H    0.20778  -0.41463  -0.72557
H    -1.42660  -1.10493  -0.54344
H    -0.05835  -1.81210  0.34668
N    -1.62445  -0.23221  2.10303
C    -2.21548  -1.52763  2.36190
C    -3.70057  -1.32965  2.80597
O    -4.05182  -1.64907  3.94379
H    -1.64644  0.44653  2.86425
H    -2.22626  -2.09274  1.41780
C    -1.41107  -2.30010  3.42928
C    -1.93947  -3.70690  3.69255
C    -1.15525  -4.46079  4.76393
O    -1.05999  -5.72706  4.63376
O    -0.66180  -3.83012  5.75120
H    -1.41358  -1.72692  4.36541
H    -0.37103  -2.34190  3.07514
H    -1.96318  -4.33389  2.79266
H    -2.96481  -3.65240  4.09532
N    -4.56033  -0.80462  1.90607
C    -4.30712  -0.39237  0.53148
H    -5.49874  -0.67242  2.27379
H    -5.27183  -0.18930  0.05693
H    -3.82018  -1.19098  -0.04370
H    -3.69573  0.51781  0.47714
Cd    0.03104  -5.81429  6.59784
