28
Energy: -173810.4407202  eV PBE+vdW (tier 2 basis)
C    -0.11407  -0.81264  0.23201
C    -0.36978  -0.13738  1.55244
O    0.12768  -0.55128  2.61042
H    0.96742  -0.92850  0.09481
H    -0.53731  -0.28200  -0.62801
H    -0.54423  -1.82241  0.27137
N    -1.18543  0.95978  1.52918
C    -1.72847  1.64517  2.70820
C    -0.65115  2.44666  3.48449
O    -0.76791  3.70220  3.73632
H    -1.52907  1.27339  0.62887
H    -2.40295  2.40442  2.29294
C    -2.56031  0.69493  3.63918
C    -4.02244  1.15409  3.90259
C    -3.93601  2.59456  4.34909
O    -4.12540  3.50459  3.46462
O    -3.43415  2.85313  5.49411
H    -2.05404  0.56954  4.60316
H    -2.59756  -0.29463  3.16950
H    -4.63712  1.08494  2.99891
H    -4.45655  0.53063  4.69223
N    0.42713  1.79532  3.86517
C    1.52824  2.40316  4.60099
H    0.46796  0.79297  3.56194
H    1.96491  3.23409  4.03320
H    1.18199  2.78618  5.56967
H    2.29098  1.63839  4.76869
Cd    -2.53636  4.65570  4.52091
