28
Energy: -173810.4548179  eV PBE+vdW (tier 2 basis)
C    0.06357  -0.46307  0.25374
C    -0.11608  -0.15238  1.70752
O    0.86588  -0.32165  2.51227
H    -0.86402  -0.38181  -0.32172
H    0.80782  0.22422  -0.17146
H    0.46631  -1.47928  0.15705
N    -1.31453  0.27003  2.10718
C    -1.79214  0.43979  3.48009
C    -3.01295  -0.51899  3.58457
O    -3.67864  -0.73971  2.57352
H    -2.09466  0.16833  1.44894
H    -0.98291  0.14458  4.15791
C    -2.29187  1.86974  3.81679
C    -1.40544  3.07098  3.40626
C    0.06490  2.75478  3.55518
O    0.47074  2.19117  4.63185
O    0.82585  2.90483  2.53998
H    -2.45369  1.88779  4.90228
H    -3.27505  2.02096  3.34871
H    -1.65682  3.92992  4.04399
H    -1.57892  3.36679  2.36718
N    -3.27756  -1.00141  4.81527
C    -4.42864  -1.84801  5.10809
H    -2.63877  -0.77904  5.57075
H    -5.02561  -1.93484  4.19580
H    -4.10511  -2.84836  5.42223
H    -5.04034  -1.40076  5.90111
Cd    2.05471  1.24741  3.37693
