28
Energy: -173809.7685392  eV PBE+vdW (tier 2 basis)
C    -0.08669  -0.47033  0.63770
C    -0.54222  -0.61558  2.06910
O    0.19460  -1.05353  2.93614
H    0.89760  0.01156  0.63036
H    0.06640  -1.48495  0.24171
H    -0.76732  0.06861  -0.02838
N    -1.88718  -0.37475  2.41325
C    -2.85949  0.59857  1.91330
C    -3.58864  0.11623  0.63942
O    -4.44134  0.86566  0.06958
H    -2.00739  -0.59486  3.40163
H    -3.67493  0.56033  2.65570
C    -2.43026  2.09659  1.95304
C    -1.42204  2.68964  0.93670
C    -2.08720  2.66287  -0.42357
O    -1.88057  1.65695  -1.18554
O    -2.99811  3.52634  -0.66085
H    -1.99965  2.23924  2.95354
H    -3.34438  2.70353  1.91758
H    -0.47237  2.14886  0.91313
H    -1.23241  3.72966  1.22502
N    -3.36252  -1.12903  0.25009
C    -4.00563  -1.75287  -0.89466
H    -2.70151  -1.65596  0.81940
H    -3.57071  -1.38425  -1.83705
H    -3.84471  -2.83322  -0.84579
H    -5.08177  -1.54637  -0.88581
Cd    -4.04071  1.94367  -1.81945
