28
Energy: -173809.4879850  eV PBE+vdW (tier 2 basis)
C    -0.21528  -1.37552  -0.04382
C    -0.10934  -0.15923  0.84344
O    0.87986  0.56132  0.84363
H    0.56645  -1.29863  -0.80439
H    -1.18823  -1.46357  -0.54084
H    -0.02999  -2.28682  0.54279
N    -1.12678  0.13317  1.74459
C    -2.49148  -0.35268  1.91953
C    -2.61678  -1.89202  1.89247
O    -3.52691  -2.50346  1.25878
H    -0.89091  0.95998  2.29062
H    -2.71826  -0.15216  2.98512
C    -3.56042  0.49765  1.18181
C    -3.49054  0.70570  -0.35074
C    -3.96369  -0.56952  -1.01148
O    -3.09301  -1.34790  -1.53367
O    -5.17582  -0.92594  -0.82453
H    -3.47000  1.49869  1.62771
H    -4.55998  0.13202  1.45249
H    -4.17451  1.52223  -0.61162
H    -2.48314  0.96326  -0.69371
N    -1.80201  -2.60046  2.68147
C    -0.80719  -2.14468  3.65114
H    -1.96933  -3.60300  2.63543
H    0.13901  -1.87378  3.16754
H    -1.17540  -1.28234  4.21794
H    -0.62650  -2.96405  4.35350
Cd    -4.36725  -2.99511  -0.72809
