28
Energy: -173810.3160852  eV PBE+vdW (tier 2 basis)
C    -3.00083  -1.26888  1.58098
C    -1.63136  -0.69423  1.34308
O    -0.85246  -1.15438  0.49657
H    -3.60819  -1.09709  0.68215
H    -3.51604  -0.82703  2.44135
H    -2.92041  -2.35393  1.71350
N    -1.28255  0.39148  2.10454
C    -0.01849  1.08410  1.88835
C    1.13932  0.32090  2.60182
O    1.79216  0.71770  3.62650
H    -1.80889  0.60724  2.94743
H    0.20364  0.92355  0.82196
C    -0.11568  2.61748  2.06938
C    -1.06934  3.20364  3.14995
C    -0.58281  2.68415  4.47808
O    0.38919  3.28591  5.04806
O    -0.98615  1.52597  4.85021
H    -0.46594  3.02419  1.11128
H    0.89433  3.01824  2.22869
H    -2.10898  2.90509  2.97500
H    -1.00124  4.29592  3.11743
N    1.44502  -0.81998  2.00439
C    2.44043  -1.76494  2.48939
H    0.82649  -1.08031  1.20994
H    2.75318  -2.39972  1.65542
H    3.30692  -1.22539  2.88424
H    2.02487  -2.40407  3.28210
Cd    1.12984  1.27838  5.60321
