28
Energy: -173810.0846225  eV PBE+vdW (tier 2 basis)
 C    0.51926   -0.04779   -0.15107
 C    0.38367   -0.10541    1.34178
 O    1.40457   -0.45294    2.01915
 H    0.84866   -1.03197   -0.50966
 H    1.30406    0.67206   -0.41641
 H   -0.40990    0.22624   -0.66233
 N   -0.81813    0.17935    1.86004
 C   -1.25805    0.06301    3.25632
 C   -2.32336   -1.05133    3.46617
 O   -2.10241   -1.89504    4.32457
 H   -1.52406    0.43561    1.17566
 H   -0.41064   -0.35638    3.80752
 C   -1.68877    1.42685    3.88111
 C   -0.98217    1.76266    5.22347
 C    0.49487    1.54404    4.99093
 O    1.04318    0.51326    5.52467
 O    1.08563    2.23479    4.09554
 H   -2.77028    1.43431    4.06858
 H   -1.47057    2.22879    3.16451
 H   -1.32288    1.11262    6.03542
 H   -1.18388    2.80895    5.48336
 N   -3.47408   -1.03134    2.73683
 C   -3.91519   -0.10046    1.71075
 H   -4.09143   -1.80804    2.95947
 H   -3.60670    0.92903    1.93498
 H   -5.01015   -0.09451    1.68413
 H   -3.56560   -0.38080    0.70278
Cd    2.34019    0.40565    3.74770
