28
Energy: -173809.9776277  eV PBE+vdW (tier 2 basis)
C    0.56180  0.07103  0.16760
C    -0.16869  0.95575  1.13440
O    -0.11833  2.22958  1.02011
H    0.23114  -0.97277  0.19826
H    1.63440  0.08582  0.41758
H    0.43855  0.45926  -0.84968
N    -0.85277  0.36469  2.11311
C    -1.66335  0.89138  3.22977
C    -3.10903  1.30175  2.78074
O    -4.06337  0.85541  3.40160
H    -0.89507  -0.64776  2.03880
H    -1.83478  0.01149  3.86022
C    -1.08717  2.00869  4.11898
C    0.32693  1.79505  4.73182
C    1.33554  2.34177  3.74251
O    2.02118  1.54851  3.02136
O    1.30831  3.60950  3.53253
H    -1.80624  2.08929  4.94586
H    -1.10715  2.97622  3.60421
H    0.54107  0.74362  4.95080
H    0.39276  2.37348  5.66128
N    -3.18165  2.15755  1.73433
C    -4.45254  2.67493  1.24147
H    -2.32112  2.53003  1.34395
H    -4.47581  2.63386  0.14624
H    -4.61441  3.71142  1.56744
H    -5.25526  2.05123  1.64618
Cd    1.84588  3.18941  1.44330
