28
Energy: -173809.9557109  eV PBE+vdW (tier 2 basis)
C    0.21762  -0.05524  0.45980
C    0.20739  -0.22669  1.96170
O    1.17867  -0.64851  2.58364
H    1.19316  0.33893  0.15667
H    -0.57645  0.59902  0.08037
H    0.10519  -1.04455  -0.00512
N    -0.98388  0.11901  2.57226
C    -1.41706  -0.11722  3.94927
C    -1.42975  1.16689  4.81637
O    -2.49996  1.53345  5.42603
H    -1.71696  0.43871  1.94912
H    -2.48655  -0.35319  3.85601
C    -0.73518  -1.32377  4.67562
C    -1.69842  -2.47907  5.06385
C    -2.81427  -1.83806  5.85626
O    -3.88908  -1.52942  5.22783
O    -2.55610  -1.38785  7.02348
H    0.04727  -1.72255  4.02174
H    -0.23045  -0.97535  5.58537
H    -1.15222  -3.20288  5.67880
H    -2.10867  -2.97944  4.18055
N    -0.37379  1.95818  4.94298
C    0.96436  1.85793  4.36626
H    -0.55911  2.77647  5.52248
H    1.04020  2.48022  3.46456
H    1.21072  0.82480  4.10277
H    1.68155  2.22282  5.10913
Cd    -3.92536  0.29765  6.50877
