28
Energy: -173810.5385385  eV PBE+vdW (tier 2 basis)
C    0.23620  -0.44357  0.82560
C    -0.02022  -0.43394  2.30680
O    0.93153  -0.67520  3.09003
H    -0.57985  -0.02564  0.22609
H    0.40463  -1.48645  0.52268
H    1.15947  0.11109  0.62316
N    -1.29152  -0.15320  2.67932
C    -1.97774  -0.00959  3.97926
C    -1.06383  0.33730  5.17911
O    -0.19416  -0.40029  5.69686
H    -1.91660  0.00320  1.89463
H    -2.58927  0.89168  3.83378
C    -3.02366  -1.14066  4.32680
C    -2.86608  -2.55399  3.71478
C    -1.49721  -3.09219  4.07479
O    -1.20521  -3.17756  5.31688
O    -0.62407  -3.19423  3.15314
H    -4.00970  -0.76555  4.02216
H    -3.04983  -1.23866  5.42005
H    -2.98136  -2.54741  2.62580
H    -3.65481  -3.18450  4.14485
N    -1.33003  1.52337  5.74147
C    -0.64353  1.99403  6.94152
H    -2.04254  2.11605  5.33245
H    -1.06334  2.96277  7.22463
H    0.43080  2.10445  6.74974
H    -0.78079  1.28153  7.76376
Cd    0.72969  -2.20385  4.70788
