28
Energy: -173809.4504281  eV PBE+vdW (tier 2 basis)
C    -0.46270  0.10198  -0.19968
C    -0.10968  0.09733  1.26551
O    1.05362  0.16365  1.66913
H    0.03214  0.95422  -0.68006
H    -1.53910  0.14492  -0.39990
H    -0.05395  -0.80857  -0.65767
N    -1.17061  0.01543  2.14169
C    -1.10278  -0.17205  3.57656
C    -0.56821  1.03879  4.41642
O    -1.11864  1.23827  5.50687
H    -2.10176  0.04117  1.73991
H    -2.14262  -0.27017  3.91043
C    -0.31996  -1.44849  4.00742
C    -0.70316  -1.86197  5.42387
C    0.20679  -2.94325  6.01448
O    1.45851  -2.90042  5.80151
O    -0.34418  -3.83686  6.73739
H    0.75974  -1.27849  3.92785
H    -0.57764  -2.24471  3.29509
H    -0.61226  -1.01340  6.12429
H    -1.73614  -2.22126  5.49193
N    0.46043  1.73392  3.92641
C    1.06556  2.84776  4.64570
H    0.91238  1.35257  3.08607
H    1.46503  3.56537  3.92178
H    0.30564  3.33681  5.26328
H    1.88189  2.50597  5.29755
Cd    1.68335  -4.72627  7.13440
