28
Energy: -173810.4941361  eV PBE+vdW (tier 2 basis)
C    -1.24801  0.89386  -1.88734
C    -0.88063  -0.21257  -0.95256
O    -0.34594  -1.27406  -1.44915
H    -2.21119  0.65134  -2.36016
H    -0.49735  0.94096  -2.68396
H    -1.33111  1.86847  -1.39641
N    -1.10437  -0.12336  0.35316
C    -1.94512  0.80421  1.10955
C    -1.47902  0.58686  2.57406
O    -0.83038  -0.42954  2.84086
H    -0.70922  -0.82596  1.00720
H    -1.74955  1.83841  0.79448
C    -3.45820  0.50214  0.93059
C    -3.91863  -0.91665  1.33970
C    -3.28804  -1.97272  0.44870
O    -2.48652  -2.82554  0.97535
O    -3.47234  -1.90930  -0.81014
H    -3.72857  0.67798  -0.11938
H    -4.02869  1.23068  1.52146
H    -5.00835  -0.97110  1.21348
H    -3.67797  -1.14447  2.38375
N    -1.82718  1.49685  3.50611
C    -2.55105  2.75137  3.35008
H    -1.52180  1.24552  4.44349
H    -2.16613  3.47500  4.07669
H    -3.63035  2.63036  3.52177
H    -2.39556  3.17635  2.35242
Cd    -1.51373  -3.04109  -0.99780
