28
Energy: -173810.4234914  eV PBE+vdW (tier 2 basis)
C    -1.01175  -0.29072  -0.31091
C    -0.39542  -0.63971  1.00526
O    0.88027  -0.52908  1.13899
H    -2.03124  0.09757  -0.22020
H    -1.02605  -1.18761  -0.94832
H    -0.37700  0.45410  -0.80150
N    -1.12872  -1.08122  2.02367
C    -2.52230  -1.52724  2.06832
C    -3.20711  -0.67135  3.16621
O    -2.54531  -0.34225  4.14718
H    -0.67707  -1.11188  2.94192
H    -2.97099  -1.38467  1.07732
C    -2.60223  -3.01355  2.50285
C    -1.88100  -4.04022  1.60587
C    -0.38580  -3.78647  1.52802
O    0.28155  -3.67062  2.61805
O    0.14833  -3.58681  0.38829
H    -3.66562  -3.28685  2.54984
H    -2.21450  -3.08931  3.52849
H    -2.03254  -5.03892  2.04004
H    -2.27988  -4.05328  0.58534
N    -4.51444  -0.39237  2.97083
C    -5.32432  0.32944  3.94564
H    -4.95729  -0.70204  2.11290
H    -6.15029  -0.29817  4.30319
H    -4.67987  0.59198  4.78957
H    -5.73264  1.24681  3.50415
Cd    1.78024  -2.47659  1.48597
