28
Energy: -173810.0477519  eV PBE+vdW (tier 2 basis)
C    -0.05210  -0.57697  -0.19046
C    -0.27586  0.20698  1.06597
O    0.64007  0.98972  1.48340
H    0.90721  -1.10402  -0.11284
H    0.02665  0.11951  -1.03647
H    -0.84727  -1.30051  -0.40049
N    -1.43826  0.03324  1.71076
C    -1.80874  0.62915  2.99663
C    -1.71104  -0.35311  4.20642
O    -1.11016  0.03845  5.19794
H    -2.08316  -0.62600  1.28485
H    -1.01713  1.34244  3.23988
C    -3.15786  1.37644  3.01230
C    -3.35115  2.51236  1.96536
C    -2.02833  3.18098  1.66027
O    -1.33940  3.65086  2.63574
O    -1.55451  3.09028  0.48023
H    -3.23598  1.79608  4.02363
H    -3.99980  0.67911  2.89823
H    -4.05456  3.24983  2.37345
H    -3.76087  2.13432  1.02380
N    -2.31397  -1.57196  4.15210
C    -3.07923  -2.19831  3.08634
H    -2.16920  -2.11378  5.00033
H    -3.71048  -2.97924  3.52297
H    -2.43939  -2.67843  2.32836
H    -3.76033  -1.48790  2.59912
Cd    0.47198  3.15118  1.45749
