28
Energy: -173809.6012426  eV PBE+vdW (tier 2 basis)
C    -0.44925  1.82161  -0.63307
C    0.26828  0.74913  0.15590
O    1.22701  0.13801  -0.29201
H    0.19965  2.11284  -1.46323
H    -0.70268  2.70854  -0.04095
H    -1.38149  1.42017  -1.05620
N    -0.20519  0.40563  1.41738
C    -1.21648  1.04176  2.25898
C    -2.58058  1.04121  1.52493
O    -3.18686  2.11122  1.19671
H    0.38223  -0.29551  1.86244
H    -1.36569  0.34315  3.09930
C    -0.74197  2.38442  2.86667
C    -1.33112  2.77537  4.24913
C    -2.79614  3.07206  4.03111
O    -3.62554  2.10420  4.11031
O    -3.11045  4.21375  3.54466
H    -0.88861  3.20953  2.15831
H    0.34199  2.27769  3.00641
H    -0.81869  3.67171  4.61408
H    -1.21453  1.96437  4.97730
N    -3.10771  -0.13907  1.20036
C    -2.58385  -1.48152  1.44658
H    -3.97332  -0.07494  0.66870
H    -1.76397  -1.71967  0.75826
H    -3.39981  -2.19490  1.29988
H    -2.22801  -1.57821  2.47891
Cd    -4.69645  3.16527  2.42339
