28
Energy: -173809.6027426  eV PBE+vdW (tier 2 basis)
C    -0.23754  -1.68833  -0.51705
C    0.20544  -0.83402  0.64824
O    1.38415  -0.61452  0.88540
H    0.57659  -2.37736  -0.75904
H    -0.39702  -1.04043  -1.39088
H    -1.15990  -2.25367  -0.34169
N    -0.75275  -0.25481  1.47307
C    -2.21272  -0.27104  1.39788
C    -2.72546  -1.71137  1.66110
O    -3.33156  -2.39901  0.77580
H    -0.33391  0.37603  2.15171
H    -2.54659  0.30158  2.27824
C    -2.76916  0.45489  0.15082
C    -4.17488  1.10000  0.28759
C    -5.16546  -0.03440  0.40840
O    -5.51631  -0.64017  -0.66356
O    -5.42013  -0.49095  1.57340
H    -2.75216  -0.20299  -0.72691
H    -2.06571  1.27384  -0.05078
H    -4.23438  1.74876  1.16912
H    -4.38667  1.68549  -0.61329
N    -2.47355  -2.25096  2.85261
C    -1.76074  -1.67486  3.99082
H    -2.77315  -3.21965  2.94256
H    -1.98665  -2.27886  4.87418
H    -0.67716  -1.67575  3.81940
H    -2.09800  -0.65001  4.18532
Cd    -5.53029  -2.49775  0.52883
