28
Energy: -173809.9720277  eV PBE+vdW (tier 2 basis)
C    0.29079  -0.08371  -0.06434
C    0.40780  -0.30113  1.42172
O    1.42603  -0.73196  1.96538
H    1.22413  0.35041  -0.43834
H    0.16599  -1.06082  -0.55108
H    -0.55339  0.55670  -0.34540
N    -0.68741  0.01190  2.18402
C    -0.74380  -0.34122  3.60014
C    0.66226  -0.14369  4.22774
O    1.29255  -1.09191  4.80332
H    -1.54279  0.31998  1.73448
H    -1.38448  0.41105  4.09072
C    -1.38563  -1.73703  3.80165
C    -2.21581  -1.94609  5.09771
C    -1.24630  -1.90546  6.25550
O    -0.57962  -2.96689  6.51676
O    -0.95626  -0.76735  6.75691
H    -0.61813  -2.51629  3.70989
H    -2.08112  -1.88087  2.96390
H    -2.70358  -2.92556  5.05298
H    -2.97497  -1.16358  5.21397
N    1.14774  1.09938  4.30190
C    0.63058  2.32400  3.70365
H    2.09365  1.14118  4.67411
H    -0.45905  2.37404  3.79768
H    0.90519  2.40132  2.64312
H    1.05627  3.17517  4.24413
Cd    1.13370  -1.62451  6.90294
