28
Energy: -173810.4237018  eV PBE+vdW (tier 2 basis)
C    -1.02964  -0.05479  -0.01239
C    -0.33568  0.49477  1.20766
O    0.66126  1.23097  1.03059
H    -1.20645  0.76862  -0.71412
H    -1.97823  -0.56118  0.19675
H    -0.34547  -0.76055  -0.50250
N    -0.88550  0.12111  2.39304
C    -0.68799  0.38722  3.83702
C    -0.00723  1.71165  4.23540
O    0.94983  2.27536  3.65494
H    -1.68205  -0.49312  2.25586
H    -1.71960  0.52038  4.18962
C    -0.15887  -0.84744  4.66752
C    0.87494  -1.80337  4.03221
C    2.00708  -0.99806  3.42969
O    2.57645  -0.12884  4.17460
O    2.18197  -1.04822  2.17026
H    0.25877  -0.45133  5.60224
H    -1.03494  -1.45038  4.94305
H    1.25089  -2.46337  4.82499
H    0.42776  -2.42617  3.25080
N    -0.50777  2.29813  5.33682
C    -1.65133  1.92323  6.16530
H    0.00821  3.13278  5.60616
H    -1.50150  0.95711  6.66357
H    -2.58269  1.89764  5.58359
H    -1.76626  2.68618  6.94052
Cd    2.44306  1.20866  2.35383
