28
Energy: -173810.1769195  eV PBE+vdW (tier 2 basis)
C    0.09994  0.27510  -0.15327
C    -0.34841  0.43324  1.27720
O    -0.56992  1.50927  1.80782
H    -0.76450  0.44309  -0.81071
H    0.52091  -0.71285  -0.37557
H    0.83770  1.05092  -0.38386
N    -0.49498  -0.75943  2.00013
C    -1.16902  -0.72449  3.28273
C    -0.25779  -1.25590  4.40343
O    -0.72391  -1.54769  5.55419
H    -0.48734  -1.63520  1.48430
H    -1.25951  0.35941  3.50017
C    -2.61453  -1.27150  3.24582
C    -2.84480  -2.74261  2.80397
C    -2.21646  -3.61154  3.87033
O    -2.87678  -3.80511  4.95111
O    -0.98066  -3.90707  3.75774
H    -3.15569  -0.62982  2.53718
H    -3.07887  -1.11627  4.22806
H    -3.92261  -2.92942  2.75362
H    -2.39997  -2.96056  1.82597
N    1.04023  -1.31277  4.14210
C    2.04598  -1.73123  5.10192
H    1.30729  -1.07622  3.18756
H    3.03251  -1.43635  4.73343
H    1.86526  -1.25701  6.07276
H    2.04608  -2.82751  5.22561
Cd    -0.96215  -3.67549  6.03526
