28
Energy: -173810.1806029  eV PBE+vdW (tier 2 basis)
C    -0.25196  0.62283  0.69843
C    -0.93841  -0.70181  0.68183
O    -0.25052  -1.76225  0.45109
H    0.78232  0.47997  1.02864
H    -0.75567  1.35907  1.33341
H    -0.21406  1.01832  -0.32902
N    -2.25608  -0.78706  0.88989
C    -3.25642  0.28201  0.73883
C    -3.55993  1.11462  2.01739
O    -3.62778  2.33131  1.88745
H    -2.63372  -1.73505  0.92893
H    -2.84116  1.03170  0.05377
C    -4.54121  -0.29992  0.11431
C    -4.41170  -0.76478  -1.35773
C    -3.29891  -1.78236  -1.53282
O    -2.29381  -1.48030  -2.25710
O    -3.33123  -2.86849  -0.84785
H    -4.91667  -1.13139  0.72828
H    -5.30541  0.48742  0.15001
H    -4.21351  0.08099  -2.02477
H    -5.35921  -1.23075  -1.66123
N    -3.76200  0.49084  3.20824
C    -3.74310  -0.92458  3.54966
H    -3.94939  1.14855  3.96063
H    -2.72242  -1.32551  3.63186
H    -4.31565  -1.52896  2.83405
H    -4.22979  -1.04687  4.52244
Cd    -1.10062  -3.00254  -1.12958
