28
Energy: -173809.2910682  eV PBE+vdW (tier 2 basis)
C    0.04720  -0.14361  0.82888
C    0.11673  -0.12695  2.33587
O    0.99359  -0.69163  2.97419
H    0.99517  -0.53265  0.44863
H    -0.13457  0.85486  0.40981
H    -0.75849  -0.80833  0.48491
N    -0.86444  0.58149  3.03104
C    -2.15382  1.00157  2.54442
C    -2.34117  2.56710  2.55854
O    -3.45305  3.03096  2.32290
H    -0.75937  0.48566  4.04200
H    -2.22588  0.74343  1.47768
C    -3.32515  0.36408  3.30843
C    -3.46927  -1.12154  2.99481
C    -4.57162  -1.79855  3.81037
O    -4.71062  -1.50362  5.03919
O    -5.29591  -2.66280  3.21668
H    -4.23054  0.91573  3.02000
H    -3.19430  0.51338  4.39092
H    -2.55221  -1.67929  3.24906
H    -3.67985  -1.30226  1.93408
N    -1.23568  3.28539  2.80661
C    -1.21133  4.74294  2.77607
H    -0.37215  2.76801  2.94150
H    -0.96223  5.11691  1.77386
H    -0.46418  5.10375  3.49033
H    -2.19901  5.12219  3.05627
Cd    -6.42326  -2.99940  5.13980
