28
Energy: -173810.2573118  eV PBE+vdW (tier 2 basis)
C    -0.24442  -0.17683  -0.79903
C    -0.11878  0.29735  0.61786
O    0.93374  0.87492  0.98690
H    -0.14519  0.68782  -1.46793
H    -1.19490  -0.68160  -1.00291
H    0.58616  -0.85751  -1.02310
N    -1.18279  0.08073  1.44230
C    -1.13545  0.58500  2.80961
C    -0.42510  -0.43948  3.71472
O    0.83405  -0.49988  3.70191
H    -1.97978  -0.43681  1.08661
H    -0.41677  1.38552  2.65232
C    -2.32443  1.39742  3.35061
C    -1.86335  2.46610  4.42247
C    -0.36151  2.70658  4.24985
O    0.04417  3.27881  3.18195
O    0.42457  2.05937  5.01407
H    -3.12180  0.78072  3.78805
H    -2.76074  1.92152  2.49096
H    -2.04673  2.10436  5.43811
H    -2.42724  3.39120  4.26350
N    -1.17135  -1.26809  4.44270
C    -0.63394  -2.29775  5.32773
H    -2.17969  -1.16483  4.38898
H    -0.83595  -3.29707  4.92193
H    0.44611  -2.15351  5.41142
H    -1.09492  -2.20886  6.31798
Cd    1.65003  1.57880  3.11642
