28
Energy: -173810.4402188  eV PBE+vdW (tier 2 basis)
C    -0.39805  -0.03982  -0.45286
C    -0.47124  0.37190  0.99292
O    0.26970  -0.12201  1.85612
H    -0.65598  -1.10506  -0.52206
H    0.63662  0.06373  -0.80087
H    -1.06356  0.52886  -1.11169
N    -1.40099  1.32285  1.31044
C    -1.78566  1.72388  2.66895
C    -0.68431  2.54251  3.39120
O    -0.90271  3.70590  3.89420
H    -1.95103  1.71461  0.55476
H    -2.60985  2.43168  2.51609
C    -2.31195  0.52777  3.53711
C    -3.75670  0.70686  4.08557
C    -3.78022  2.05957  4.75717
O    -4.22208  3.05452  4.07795
O    -3.13289  2.21457  5.84668
H    -1.63830  0.34769  4.38284
H    -2.29405  -0.37738  2.91941
H    -4.50091  0.67947  3.28270
H    -3.96561  -0.08855  4.80956
N    0.51683  2.00912  3.45816
C    1.65905  2.64441  4.10179
H    0.61900  1.08965  2.96478
H    2.45752  1.90305  4.19178
H    2.02134  3.49335  3.50683
H    1.38428  3.00962  5.09824
Cd    -2.62522  4.25026  5.07422
