28
Energy: -173809.8663482  eV PBE+vdW (tier 2 basis)
C    -0.21757  -0.71907  0.62558
C    -0.26480  0.07708  1.91430
O    0.70175  0.68754  2.33373
H    0.73546  -1.25988  0.60475
H    -0.20026  -0.02081  -0.22214
H    -1.03926  -1.42808  0.47604
N    -1.44071  0.06854  2.68226
C    -2.79754  -0.31910  2.31560
C    -3.03807  -1.83822  2.52348
O    -4.14842  -2.43166  2.31500
H    -1.34976  0.68088  3.49003
H    -3.44945  0.13588  3.08047
C    -3.26614  0.23402  0.92977
C    -4.43684  1.26134  0.99038
C    -5.59987  0.46455  1.52068
O    -6.21470  -0.31376  0.71092
O    -5.73256  0.37439  2.79171
H    -3.55305  -0.58089  0.25285
H    -2.41855  0.75060  0.46813
H    -4.20181  2.10057  1.65412
H    -4.64381  1.62972  -0.01980
N    -2.01322  -2.54109  2.97522
C    -2.06076  -3.96604  3.28040
H    -1.16016  -2.00812  3.14247
H    -1.08408  -4.27087  3.66490
H    -2.82865  -4.17230  4.03640
H    -2.29201  -4.54461  2.37776
Cd    -6.22368  -1.77106  2.37370
