28
Energy: -173810.0488055  eV PBE+vdW (tier 2 basis)
C    -0.57576  -0.15837  0.09140
C    -0.91510  -0.90255  1.35856
O    -0.84791  -2.12450  1.45705
H    -1.09918  -0.63077  -0.74763
H    0.50102  -0.26430  -0.09600
H    -0.82552  0.90849  0.12388
N    -1.29409  -0.11841  2.43108
C    -1.55737  -0.70008  3.73916
C    -3.08700  -0.75266  3.90788
O    -3.74373  0.31747  4.17888
H    -1.37104  0.88692  2.31807
H    -1.18729  -1.73180  3.66893
C    -0.75202  0.05671  4.81617
C    -0.79924  -0.46482  6.27594
C    -2.19483  -0.18720  6.79206
O    -2.50531  1.02854  7.05322
O    -3.06493  -1.11600  6.71251
H    -1.01999  1.12263  4.81054
H    0.29377  -0.01067  4.48460
H    -0.06542  0.09179  6.86899
H    -0.58155  -1.53671  6.33622
N    -3.72512  -1.88992  3.67067
C    -3.16981  -3.22438  3.41942
H    -4.73987  -1.82066  3.72491
H    -2.34777  -3.17096  2.69560
H    -2.82566  -3.67673  4.35909
H    -3.96836  -3.84496  3.00314
Cd    -4.50050  0.58101  6.22042
