28
Energy: -173810.3325112  eV PBE+vdW (tier 2 basis)
C    -0.39817  1.11748  0.49267
C    -0.66728  -0.35297  0.49522
O    0.28511  -1.15608  0.17129
H    0.67149  1.27140  0.66663
H    -0.97586  1.66102  1.24745
H    -0.63633  1.52535  -0.50117
N    -1.86643  -0.84129  0.80135
C    -3.15231  -0.15868  0.95003
C    -3.67121  -0.52904  2.36372
O    -3.38136  -1.63380  2.81665
H    -1.92569  -1.84646  0.98440
H    -2.99684  0.91768  0.81599
C    -4.17514  -0.70051  -0.08199
C    -3.81649  -0.52743  -1.57226
C    -2.53268  -1.24962  -1.94056
O    -1.56167  -0.57895  -2.42122
O    -2.41980  -2.49613  -1.65635
H    -4.34155  -1.76561  0.13266
H    -5.13357  -0.19432  0.09900
H    -3.71087  0.52624  -1.85369
H    -4.63144  -0.95784  -2.17167
N    -4.45967  0.36627  3.00140
C    -4.82646  1.70892  2.56756
H    -4.80262  0.04213  3.90186
H    -5.45997  2.15609  3.33890
H    -5.40319  1.70195  1.63207
H    -3.94794  2.35847  2.44661
Cd    -0.21235  -2.22204  -1.65546
