28
Energy: -173809.0978238  eV PBE+vdW (tier 2 basis)
C    -0.53057  -1.33041  1.84302
C    0.16827  -0.01423  1.58687
O    1.36777  0.13464  1.81654
H    0.22024  -2.06657  2.14129
H    -1.26824  -1.23492  2.65196
H    -1.04353  -1.68429  0.93793
N    -0.55514  1.03124  1.07442
C    -1.99163  1.15265  0.99703
C    -2.27232  2.21396  -0.10052
O    -1.54252  3.19689  -0.19789
H    -0.03534  1.89695  0.91057
H    -2.41677  0.18202  0.70653
C    -2.61859  1.62695  2.33822
C    -4.15141  1.73434  2.36096
C    -4.83998  0.39878  2.09944
O    -4.98596  -0.00297  0.89116
O    -5.23821  -0.28523  3.09420
H    -2.21121  2.62434  2.55964
H    -2.28168  0.95673  3.14144
H    -4.50621  2.44237  1.60072
H    -4.47292  2.08165  3.34820
N    -3.35659  1.98418  -0.87426
C    -3.73979  2.86951  -1.96545
H    -3.89201  1.13531  -0.70954
H    -4.83182  2.88861  -2.05067
H    -3.31304  2.53306  -2.92065
H    -3.36515  3.87593  -1.75309
Cd    -6.07762  -1.85623  1.71557
