28
Energy: -173810.1510242  eV PBE+vdW (tier 2 basis)
C    -0.00287  -2.10138  0.17224
C    0.04816  -1.19677  1.37491
O    0.89042  -0.34528  1.57395
H    1.01661  -2.36891  -0.12397
H    -0.44919  -1.54309  -0.66360
H    -0.60013  -3.00786  0.33094
N    -0.98797  -1.40172  2.33061
C    -1.20972  -0.31646  3.30090
C    -0.17930  -0.44928  4.45055
O    0.48479  -1.50188  4.67056
H    -1.84646  -1.83158  1.98139
H    -0.91796  0.61635  2.79083
C    -2.71561  -0.14511  3.68422
C    -3.43955  -1.09499  4.69205
C    -2.77739  -2.45559  4.66173
O    -2.02119  -2.76783  5.63493
O    -2.77768  -3.10322  3.55267
H    -3.25384  -0.16260  2.72626
H    -2.83698  0.87789  4.06446
H    -3.38129  -0.70446  5.71190
H    -4.49401  -1.16506  4.40078
N    0.01486  0.63005  5.19811
C    0.96411  0.68152  6.30925
H    -0.45543  1.48847  4.92946
H    0.86410  -0.22147  6.92001
H    1.99423  0.74865  5.93645
H    0.73969  1.56119  6.91856
Cd    -0.55237  -3.33458  4.00786
