28
Energy: -173809.4670597  eV PBE+vdW (tier 2 basis)
C    -0.77916  -1.22230  0.28503
C    -0.53499  -0.91074  1.73874
O    0.59916  -0.86953  2.22686
H    -1.84190  -1.23341  0.01831
H    -0.33454  -2.19704  0.05003
H    -0.26015  -0.47320  -0.32616
N    -1.64366  -0.65947  2.50566
C    -1.53303  -0.25076  3.88793
C    -1.27162  -1.49024  4.82459
O    -2.18887  -1.99988  5.47955
H    -2.58028  -0.71502  2.09869
H    -0.62114  0.36216  3.96481
C    -2.71873  0.59024  4.37601
C    -4.09885  -0.07755  4.50921
C    -4.97038  -0.13357  3.26465
O    -6.20868  0.13174  3.41055
O    -4.48211  -0.45976  2.12846
H    -2.77694  1.49171  3.74870
H    -2.45497  0.94594  5.38119
H    -4.68524  0.42277  5.28641
H    -3.96924  -1.12754  4.82958
N    0.00024  -1.90748  4.83809
C    0.43308  -3.09608  5.56156
H    0.61461  -1.49256  4.13009
H    0.30749  -4.00415  4.95524
H    -0.16195  -3.19921  6.47466
H    1.49029  -2.98463  5.82248
Cd    -6.63183  -0.34241  1.27223
