28
Energy: -173809.2934312  eV PBE+vdW (tier 2 basis)
C    -0.17379  -0.23690  0.21486
C    -0.21526  -0.49896  1.70009
O    0.74179  -0.93223  2.33407
H    0.72685  0.34125  -0.02055
H    -1.05793  0.28837  -0.16441
H    -0.08547  -1.19990  -0.30560
N    -1.41955  -0.23165  2.32838
C    -1.61430  -0.45292  3.74063
C    -2.96891  -1.20845  3.94243
O    -3.94980  -0.62002  4.39405
H    -2.15593  0.23004  1.80226
H    -0.78654  -1.10542  4.05410
C    -1.60113  0.82207  4.60055
C    -0.20257  1.44500  4.62770
C    -0.20179  2.68859  5.52473
O    -0.01457  2.54441  6.77430
O    -0.41054  3.82141  4.98106
H    -1.91689  0.54444  5.61478
H    -2.34715  1.53183  4.21764
H    0.12110  1.76045  3.62996
H    0.53533  0.74530  5.03817
N    -2.99138  -2.51347  3.59225
C    -1.93724  -3.31813  2.98679
H    -3.90404  -2.94646  3.70901
H    -2.12739  -4.36999  3.22298
H    -0.95169  -3.05844  3.38810
H    -1.91157  -3.20274  1.89400
Cd    -0.26762  4.77441  7.02221
