28
Energy: -173809.5146326  eV PBE+vdW (tier 2 basis)
C    -0.13644  0.52233  -0.44226
C    -0.16690  -0.15356  0.90999
O    0.79084  -0.79378  1.31546
H    0.06761  1.59541  -0.31662
H    -1.05663  0.41665  -1.02711
H    0.69618  0.08740  -1.00229
N    -1.25915  -0.02603  1.77706
C    -2.62297  0.50254  1.75077
C    -3.63527  -0.67455  1.81059
O    -4.45334  -0.80300  2.79122
H    -1.02336  -0.48710  2.65487
H    -2.75215  0.98909  2.72948
C    -2.95742  1.56709  0.66178
C    -3.59923  2.87841  1.19753
C    -4.72379  2.48412  2.12539
O    -5.75558  1.91583  1.63636
O    -4.48842  2.51318  3.38627
H    -3.62149  1.14142  -0.10080
H    -2.03452  1.86279  0.15762
H    -2.86854  3.47946  1.74826
H    -3.98609  3.45655  0.35056
N    -3.63156  -1.65558  0.91273
C    -2.77611  -1.86183  -0.25239
H    -4.29758  -2.39612  1.12681
H    -3.24046  -2.63314  -0.87352
H    -2.69706  -0.94921  -0.84988
H    -1.77418  -2.19732  0.04240
Cd    -5.79535  0.72965  3.54213
