28
Energy: -173810.2803859  eV PBE+vdW (tier 2 basis)
C    -0.50408  1.34334  0.74779
C    -0.56837  0.49101  1.96826
O    0.33103  0.65438  2.87442
H    0.52788  1.31565  0.37311
H    -0.72316  2.38553  1.01456
H    -1.18994  1.01643  -0.03903
N    -1.51065  -0.44312  2.12936
C    -2.85066  -0.60373  1.52467
C    -3.57380  0.71786  1.13844
O    -4.15391  0.76033  0.06077
H    -1.33049  -1.10256  2.88950
H    -2.75981  -1.14215  0.57182
C    -3.69581  -1.48396  2.47952
C    -4.04673  -0.91989  3.88583
C    -2.80621  -0.44347  4.61905
O    -1.90766  -1.29731  4.94443
O    -2.60211  0.81291  4.75750
H    -3.18066  -2.44886  2.59909
H    -4.64047  -1.69810  1.96337
H    -4.50583  -1.72959  4.46726
H    -4.76056  -0.09252  3.82059
N    -3.53296  1.74870  2.01992
C    -4.24474  2.99287  1.74232
H    -3.18358  1.59876  2.96518
H    -3.89924  3.76121  2.44086
H    -5.33160  2.86996  1.84792
H    -4.04061  3.31417  0.71508
Cd    -0.38933  0.36256  4.90535
