28
Energy: -173810.0626692  eV PBE+vdW (tier 2 basis)
C    -0.16496  0.04926  -0.22260
C    -0.11159  0.40738  1.22250
O    0.97925  0.90076  1.70869
H    -1.04465  0.48585  -0.71228
H    -0.24699  -1.04089  -0.33088
H    0.74258  0.41384  -0.70889
N    -1.13759  0.24059  2.06451
C    -2.58055  -0.03833  1.90254
C    -2.87719  -0.89648  0.64753
O    -2.23473  -1.92684  0.47686
H    -0.89117  0.49095  3.02278
H    -2.81691  -0.74647  2.71382
C    -3.40658  1.23674  2.20649
C    -3.12246  2.50773  1.37873
C    -1.72388  3.05008  1.61977
O    -0.97366  3.27719  0.61359
O    -1.30001  3.17080  2.82258
H    -3.25481  1.48744  3.26631
H    -4.47324  0.97942  2.12847
H    -3.24004  2.35966  0.29921
H    -3.83688  3.28532  1.68667
N    -3.87640  -0.47400  -0.16542
C    -4.35188  -1.26791  -1.29252
H    -4.40366  0.35277  0.08658
H    -4.42268  -0.64375  -2.19117
H    -5.33640  -1.70472  -1.07908
H    -3.63534  -2.07626  -1.46389
Cd    0.78042  3.03520  1.99976
