28
Energy: -173810.1140650  eV PBE+vdW (tier 2 basis)
C    -1.05793  1.48009  0.07478
C    -1.40379  1.02155  1.46061
O    -2.10882  1.73397  2.20789
H    -0.41389  0.77821  -0.46645
H    -0.56314  2.45728  0.13371
H    -1.98930  1.62136  -0.48865
N    -0.91711  -0.19663  1.85305
C    -1.30606  -0.70061  3.16187
C    -0.45144  -0.05756  4.27460
O    -0.91384  0.92970  4.91772
H    -0.33058  -0.72630  1.21736
H    -2.24679  -0.17021  3.24889
C    -1.72115  -2.18389  3.33982
C    -3.27145  -2.36388  3.57840
C    -3.77216  -1.08854  4.24857
O    -4.33059  -0.22012  3.47372
O    -3.36055  -0.79665  5.40572
H    -1.19912  -2.59633  4.21107
H    -1.42608  -2.78498  2.46938
H    -3.43165  -3.23725  4.21963
H    -3.80160  -2.50779  2.63212
N    0.77895  -0.49205  4.54384
C    1.53372  -1.55109  3.88818
H    1.25036  0.02308  5.28646
H    0.92810  -2.03890  3.12057
H    2.43322  -1.13673  3.41516
H    1.83491  -2.31044  4.62040
Cd    -3.07637  1.36926  4.44236
