28
Energy: -173810.1366788  eV PBE+vdW (tier 2 basis)
C    -0.65571  -0.33938  0.51540
C    -0.55630  -0.48250  2.01179
O    0.40196  -0.99144  2.59199
H    -0.32100  -1.26984  0.04382
H    0.03192  0.45423  0.19276
H    -1.66441  -0.09135  0.16494
N    -1.61615  -0.01737  2.75565
C    -1.47178  0.03994  4.19915
C    -1.04406  -1.32076  4.78958
O    -0.12100  -1.41751  5.67115
H    -2.38079  0.48228  2.31576
H    -0.60979  0.69098  4.41739
C    -2.74332  0.62776  4.88727
C    -2.50652  1.96454  5.65135
C    -1.33603  1.69637  6.57118
O    -1.49596  0.88378  7.53835
O    -0.17241  2.07162  6.17498
H    -3.15529  -0.09835  5.59939
H    -3.52073  0.80153  4.13075
H    -2.26441  2.78503  4.96788
H    -3.40625  2.21315  6.22524
N    -1.67325  -2.44795  4.46955
C    -2.75015  -2.68164  3.51242
H    -1.26944  -3.27142  4.91193
H    -3.27484  -3.59294  3.81710
H    -3.46906  -1.85874  3.51499
H    -2.35870  -2.81988  2.49618
Cd    0.56162  0.13938  6.99108
