28
Energy: -173810.3262421  eV PBE+vdW (tier 2 basis)
C    -0.52019  1.40649  0.67632
C    -0.46309  0.58114  1.93507
O    -0.13485  1.01546  3.03289
H    -0.48894  0.80538  -0.24022
H    0.30907  2.12131  0.67789
H    -1.45375  1.98683  0.67923
N    -0.79999  -0.76354  1.81021
C    -1.03744  -1.51120  3.03594
C    0.27947  -1.68300  3.81984
O    0.34936  -1.74400  5.09198
H    -1.25650  -1.08200  0.96124
H    -1.67321  -0.89589  3.69329
C    -1.73561  -2.87491  2.74539
C    -3.14690  -3.03515  3.38518
C    -2.92959  -2.79180  4.86075
O    -3.13443  -1.60335  5.30239
O    -2.29294  -3.66800  5.53359
H    -1.10903  -3.70372  3.09855
H    -1.83634  -3.00570  1.65922
H    -3.86069  -2.30871  2.98274
H    -3.50832  -4.05352  3.20451
N    1.38504  -1.81920  3.10708
C    2.72153  -1.95687  3.67457
H    1.28008  -1.66672  2.10607
H    3.40817  -2.26003  2.87950
H    3.05880  -1.00345  4.10257
H    2.71841  -2.71880  4.46088
Cd    -1.28514  -1.90904  6.49934
