28
Energy: -173810.4240495  eV PBE+vdW (tier 2 basis)
C    -1.23991  -0.50169  -0.68830
C    -0.38390  -0.90230  0.46958
O    0.89587  -0.86474  0.33395
H    -2.19302  -0.05599  -0.38603
H    -1.44030  -1.38766  -1.30945
H    -0.67824  0.21147  -1.30016
N    -0.91283  -1.31473  1.61848
C    -2.28913  -1.68723  1.95150
C    -2.68983  -0.80295  3.16164
O    -1.82724  -0.51976  3.98879
H    -0.28129  -1.38383  2.42115
H    -2.92365  -1.51694  1.07274
C    -2.35335  -3.16950  2.40099
C    -1.89787  -4.22698  1.37467
C    -0.44200  -4.05383  0.97954
O    0.44745  -3.98772  1.90217
O    -0.15264  -3.86905  -0.24789
H    -3.39447  -3.38630  2.67797
H    -1.75811  -3.27214  3.31931
H    -2.00847  -5.21939  1.83477
H    -2.50511  -4.20938  0.46269
N    -3.99173  -0.44834  3.23094
C    -4.54715  0.31346  4.34363
H    -4.61451  -0.72517  2.48019
H    -3.73486  0.52616  5.04461
H    -4.97410  1.25947  3.98841
H    -5.32609  -0.26393  4.85723
Cd    1.73549  -2.86402  0.47689
