28
Energy: -173810.1915996  eV PBE+vdW (tier 2 basis)
C    1.04059  0.55278  1.09296
C    0.10908  0.66398  2.24700
O    0.60500  0.88334  3.41916
H    0.55985  0.17457  0.18934
H    1.83918  -0.14321  1.38275
H    1.51253  1.53215  0.92785
N    -1.22402  0.56551  2.14696
C    -2.15483  0.67499  1.00691
C    -2.12374  -0.58354  0.09765
O    -1.09186  -1.22354  -0.07155
H    -1.68545  0.59121  3.05407
H    -3.14088  0.72397  1.48931
C    -1.96537  1.97438  0.19174
C    -2.33561  3.27522  0.94884
C    -1.45119  3.47472  2.16465
O    -1.93352  3.24765  3.33067
O    -0.21710  3.74423  1.98740
H    -2.60643  1.91611  -0.69839
H    -0.93572  2.03804  -0.18218
H    -3.38335  3.26043  1.27036
H    -2.18717  4.12479  0.26978
N    -3.29350  -0.90036  -0.51381
C    -4.61420  -0.31012  -0.33126
H    -3.21639  -1.71156  -1.12154
H    -4.64510  0.74740  -0.62838
H    -5.31840  -0.84819  -0.97264
H    -4.97195  -0.40623  0.70408
Cd    0.16584  2.91013  4.04124
