28
Energy: -173810.3149641  eV PBE+vdW (tier 2 basis)
C    -2.50066  -0.83670  -0.71960
C    -1.42303  -0.33579  0.20290
O    -0.21693  -0.45296  -0.05521
H    -2.29990  -1.88468  -0.97072
H    -2.44915  -0.26392  -1.65509
H    -3.51127  -0.74663  -0.30562
N    -1.83594  0.27705  1.35638
C    -0.88887  0.96075  2.23723
C    -0.17719  -0.09704  3.13026
O    -0.43973  -0.26036  4.36891
H    -2.82516  0.31544  1.57800
H    -0.10058  1.36145  1.58026
C    -1.58468  2.12615  2.95935
C    -0.66769  3.26634  3.48011
C    0.18930  2.68767  4.58382
O    1.30135  2.14969  4.26087
O    -0.33212  2.55215  5.74466
H    -2.21251  1.75496  3.78154
H    -2.25435  2.58983  2.22105
H    -1.29505  4.07003  3.87988
H    -0.03223  3.65946  2.67869
N    0.69644  -0.84979  2.48479
C    1.46551  -1.90804  3.11496
H    0.71008  -0.71889  1.45142
H    2.22437  -1.48737  3.79552
H    0.81408  -2.58038  3.68620
H    1.98642  -2.47341  2.33786
Cd    0.82050  0.66699  5.89856
