28
Energy: -173810.5873048  eV PBE+vdW (tier 2 basis)
C    -1.59625  0.53882  -1.56358
C    -1.24167  -0.07152  -0.24673
O    -0.40365  -1.04973  -0.23645
H    -0.69938  0.55231  -2.19310
H    -2.00611  1.54993  -1.47878
H    -2.33531  -0.10422  -2.06376
N    -1.77503  0.36469  0.88849
C    -2.93892  1.21732  1.12522
C    -2.80378  1.59218  2.62885
O    -2.03241  0.94414  3.34001
H    -1.40587  0.04022  1.80254
H    -2.88042  2.12684  0.50958
C    -4.27605  0.48947  0.82333
C    -4.54087  -0.80125  1.63332
C    -3.52019  -1.87414  1.29667
O    -3.40625  -2.26136  0.08848
O    -2.71668  -2.27101  2.21535
H    -4.31845  0.25686  -0.24940
H    -5.09926  1.19048  1.01981
H    -5.53544  -1.17860  1.36007
H    -4.52238  -0.62024  2.71349
N    -3.58996  2.59640  3.05922
C    -3.61680  3.05166  4.44531
H    -4.14839  3.10295  2.38070
H    -4.64439  3.04411  4.82817
H    -3.20841  4.06683  4.52792
H    -3.00254  2.36992  5.03990
Cd    -1.27764  -2.83039  0.63238
