28
Energy: -173809.4497887  eV PBE+vdW (tier 2 basis)
C    -0.10889  -0.07834  -0.08728
C    -0.59784  0.43477  1.24395
O    -0.67714  1.64091  1.49686
H    -0.04970  -1.17055  -0.15063
H    0.88190  0.34919  -0.28528
H    -0.78132  0.29141  -0.87202
N    -0.95235  -0.52190  2.16544
C    -1.35391  -0.28424  3.54135
C    -2.80511  0.31809  3.68152
O    -3.59424  -0.28791  4.40729
H    -0.92527  -1.48941  1.86270
H    -1.44579  -1.27207  4.00795
C    -0.38191  0.57700  4.38110
C    0.95754  -0.12261  4.57676
C    1.92883  0.68168  5.44914
O    3.15585  0.66668  5.10111
O    1.50586  1.29607  6.47471
H    -0.85221  0.75984  5.35636
H    -0.24314  1.54864  3.89157
H    1.46435  -0.33541  3.62896
H    0.83383  -1.08097  5.10873
N    -3.05763  1.45141  3.02023
C    -4.35144  2.12169  3.08264
H    -2.29072  1.84522  2.46348
H    -4.48131  2.72025  2.17562
H    -4.41761  2.78031  3.95953
H    -5.15111  1.37576  3.14634
Cd    3.64943  1.96201  6.87751
