24
Energy: -102732.894196 eV PBE+vdW (tier 2 basis)
C    0.118535  -1.190926  1.935351
C    0.025179  0.194698  2.481125
O    1.071274  0.863810  2.745069
H    0.915099  -1.710763  2.484678
H    0.428722  -1.174598  0.879539
H    -0.812418  -1.758106  2.026686
N    -1.185285  0.763769  2.712685
C    -2.257236  0.728911  1.728636
C    -1.950940  1.825452  0.656467
O    -0.773288  2.323936  0.586958
H    -1.127545  1.630368  3.249982
H    -2.225438  -0.238403  1.203911
C    -3.635656  0.840677  2.403443
O    -4.602657  0.668263  1.371415
H    -3.744983  1.818907  2.905963
H    -3.705122  0.047662  3.163179
H    -5.498061  0.645553  1.748398
N    -2.930940  2.162721  -0.149227
C    -2.858851  3.121717  -1.249118
H    -3.835553  1.707685  0.057616
H    -1.822799  3.425373  -1.412672
H    -3.469363  4.002541  -1.013636
H    -3.253216  2.652723  -2.158011
Sr    1.375537  2.675031  1.323560
