24
Energy: -102732.388793 eV PBE+vdW (tier 2 basis)
C    -0.187238  1.152464  0.000178
C    -0.201025  0.738550  1.430171
O    0.854015  0.281111  1.987166
H    0.615094  1.883731  -0.164488
H    -1.139129  1.576683  -0.334936
H    0.049784  0.274029  -0.618183
N    -1.328815  0.831181  2.137572
C    -1.519718  0.254005  3.474329
C    -2.978594  -0.288774  3.684847
O    -3.094755  -1.421030  4.119980
H    -2.167940  1.114594  1.633934
H    -0.934901  -0.676466  3.525285
C    -1.146404  1.157706  4.645060
O    0.316689  1.148377  4.896393
H    -1.630634  0.774729  5.552899
H    -1.450281  2.198018  4.469367
H    0.454885  1.689548  5.695298
N    -3.993707  0.544474  3.351676
C    -5.395639  0.137229  3.508125
H    -3.815491  1.533683  3.205514
H    -6.015757  0.736744  2.835245
H    -5.734937  0.275065  4.542873
H    -5.486709  -0.921228  3.247078
Sr    2.113327  -0.070512  3.781538
