24
Energy: -102732.656887 eV PBE+vdW (tier 2 basis)
C    0.754552  -0.566104  0.773460
C    0.009815  -0.623518  2.071880
O    0.363641  -1.317016  3.032208
H    1.716766  -0.065235  0.952852
H    0.222889  -0.029359  -0.019893
H    0.982719  -1.586301  0.443771
N    -1.128095  0.152792  2.178584
C    -1.783035  0.359220  3.464092
C    -2.660255  -0.834635  3.915480
O    -3.891602  -0.645685  4.250368
H    -1.472282  0.639401  1.356361
H    -0.984468  0.451445  4.222429
C    -2.559557  1.677536  3.389264
O    -3.179514  2.044000  4.670866
H    -3.373725  1.619926  2.652888
H    -1.882796  2.484353  3.085178
H    -2.668734  2.766965  5.072166
N    -2.068488  -1.999245  3.969638
C    -2.683248  -3.266427  4.349917
H    -1.047813  -1.966061  3.712120
H    -2.296820  -3.587571  5.325925
H    -2.416792  -4.025799  3.606082
H    -3.770283  -3.163746  4.394300
Sr    -5.170876  0.797064  5.338062
