24
Energy: -102733.157398 eV PBE+vdW (tier 2 basis)
C    -0.083908  0.436708  -0.182662
C    -0.135562  0.298606  1.301026
O    0.924293  0.363638  1.999727
H    0.632178  -0.285708  -0.595442
H    0.296723  1.439549  -0.425515
H    -1.056973  0.300737  -0.665274
N    -1.323061  0.111495  1.893810
C    -1.536007  0.165292  3.346312
C    -1.032776  -1.112619  4.049965
O    0.149567  -1.079490  4.528597
H    -2.151237  0.156315  1.303600
H    -0.881615  0.960926  3.733871
C    -2.958738  0.644362  3.662378
O    -2.975982  1.988414  3.224934
H    -3.130013  0.543835  4.748950
H    -3.718122  0.035564  3.142311
H    -3.840527  2.389146  3.414335
N    -1.749068  -2.218857  4.164975
C    -3.093744  -2.540473  3.675201
H    -1.275050  -2.957872  4.686172
H    -3.168422  -3.629166  3.596377
H    -3.261200  -2.116804  2.680600
H    -3.863475  -2.188649  4.372889
Sr    2.136720  -0.136947  3.853862
