24
Energy: -102732.390581 eV PBE+vdW (tier 2 basis)
C    -1.091899  -2.350933  0.997581
C    -0.763985  -1.530303  2.196895
O    0.316264  -1.733944  2.854206
H    -0.286458  -2.254044  0.256627
H    -2.041597  -2.069653  0.531388
H    -1.133942  -3.410030  1.288840
N    -1.599526  -0.575602  2.593659
C    -1.402619  0.279486  3.776015
C    -2.683153  1.175240  3.937804
O    -2.590507  2.377841  3.735655
H    -2.443437  -0.423367  2.042798
H    -1.283553  -0.369500  4.659248
C    -0.176941  1.199254  3.662529
O    0.940741  0.739393  4.519214
H    -0.474297  2.208813  3.971876
H    0.194807  1.255399  2.633223
H    1.128229  1.447358  5.158471
N    -3.842622  0.537041  4.225563
C    -4.040076  -0.804333  4.773612
H    -4.633319  1.177372  4.290497
H    -3.430744  -1.550479  4.249786
H    -5.087884  -1.085811  4.629469
H    -3.818998  -0.844809  5.849857
Sr    2.115514  -1.320389  4.092187
