24
Energy: -102732.64603 eV PBE+vdW (tier 2 basis)
C    -0.363752  1.377086  -0.290892
C    -0.855315  0.416796  0.749642
O    -0.471289  0.444387  1.926338
H    -0.494101  2.400536  0.082108
H    -0.855213  1.275459  -1.264268
H    0.716850  1.223136  -0.418647
N    -1.787384  -0.513762  0.339960
C    -2.251174  -1.666853  1.103750
C    -2.955551  -1.415986  2.447870
O    -3.794487  -2.326493  2.815816
H    -2.103772  -0.465940  -0.623294
H    -3.027207  -2.134364  0.479746
C    -1.105046  -2.691800  1.267641
O    -1.629723  -3.985010  1.766901
H    -0.343304  -2.327486  1.968173
H    -0.654955  -2.869118  0.283584
H    -0.909913  -4.629026  1.641130
N    -2.664911  -0.369027  3.169703
C    -3.280066  -0.014948  4.445180
H    -1.822273  0.162551  2.823069
H    -4.206861  -0.575948  4.588824
H    -3.496942  1.058952  4.441238
H    -2.582851  -0.223853  5.267337
Sr    -3.757760  -4.537293  2.870089
