24
Energy: -102733.183322 eV PBE+vdW (tier 2 basis)
C    0.152497  -0.382380  -0.023017
C    -0.060976  -0.006232  1.406036
O    0.902325  0.441514  2.100256
H    0.664959  0.433429  -0.547711
H    -0.771560  -0.634781  -0.552880
H    0.823036  -1.254333  -0.050114
N    -1.289532  -0.161019  1.920433
C    -1.725251  -0.109655  3.331024
C    -1.698439  1.300264  3.932931
O    -0.592907  1.862459  4.218782
H    -1.967928  -0.580272  1.290515
H    -2.763858  -0.455659  3.297530
C    -0.975249  -1.118155  4.228220
O    -1.026599  -2.351740  3.556919
H    -1.476142  -1.134235  5.210823
H    0.072389  -0.796554  4.398969
H    -0.945263  -3.084907  4.188168
N    -2.840687  1.914646  4.198688
C    -4.217496  1.457592  3.961780
H    -2.732360  2.826574  4.644176
H    -4.478364  0.623170  4.624432
H    -4.365756  1.173087  2.914110
H    -4.887770  2.292685  4.182948
Sr    1.645930  1.791503  3.746981
