24
Energy: -102732.518646 eV PBE+vdW (tier 2 basis)
C    -0.362600  1.911298  0.311072
C    -0.322294  1.160105  1.596697
O    0.786297  0.726058  2.067767
H    0.046107  1.275755  -0.487454
H    0.287719  2.793945  0.381635
H    -1.371631  2.231527  0.032314
N    -1.448469  0.931560  2.267967
C    -1.527115  0.181509  3.528608
C    -3.031131  -0.094313  3.915744
O    -3.401139  0.112721  5.061113
H    -2.317648  1.312323  1.895402
H    -1.049053  -0.801205  3.374841
C    -0.834452  0.882833  4.703449
O    0.431374  0.212065  5.078530
H    -1.520859  0.841217  5.560656
H    -0.600769  1.928798  4.475115
H    0.338389  -0.094870  5.996624
N    -3.817097  -0.538556  2.910210
C    -5.231077  -0.863172  3.132517
H    -3.390458  -0.882994  2.055708
H    -5.341319  -1.852603  3.595001
H    -5.752068  -0.847820  2.170757
H    -5.668689  -0.113741  3.798620
Sr    2.310981  0.123558  3.576108
