24
Energy: -102732.219164 eV PBE+vdW (tier 2 basis)
C    -1.476485  1.254318  0.089047
C    -0.451670  0.790071  1.094234
O    0.622519  1.311818  1.277363
H    -2.475458  1.382781  0.529062
H    -1.555272  0.551538  -0.754253
H    -1.140982  2.215680  -0.309654
N    -0.795164  -0.324286  1.922553
C    -1.821742  -1.305784  1.663836
C    -2.726093  -1.522997  2.889300
O    -3.513344  -2.536025  2.922564
H    0.019123  -0.629193  2.459736
H    -2.479611  -0.910677  0.872066
C    -1.185327  -2.612804  1.146138
O    -2.177854  -3.576357  0.609249
H    -0.615991  -3.123798  1.934978
H    -0.500267  -2.352267  0.331985
H    -1.837566  -3.894670  -0.244723
N    -2.664897  -0.629972  3.846311
C    -3.458124  -0.594894  5.071940
H    -1.977606  0.112226  3.674369
H    -4.035446  0.337064  5.103529
H    -2.788564  -0.625690  5.939857
H    -4.136523  -1.450531  5.096868
Sr    -4.107653  -4.386552  1.839646
