24
Energy: -102732.726813 eV PBE+vdW (tier 2 basis)
C    0.223347  -0.445688  -0.135921
C    0.201760  -0.193898  1.332151
O    1.268173  0.194754  1.939270
H    0.936668  -1.256771  -0.343133
H    0.591196  0.445422  -0.661380
H    -0.758083  -0.723737  -0.531892
N    -0.915598  -0.378822  2.008370
C    -1.116919  -0.340644  3.450177
C    -2.495130  -1.114445  3.609996
O    -3.162915  -1.289989  2.593919
H    -1.786859  -0.729609  1.556578
H    -0.318539  -0.899247  3.965617
C    -1.260912  1.059598  4.042791
O    0.051461  1.712037  4.306057
H    -1.775713  0.999251  5.009308
H    -1.835674  1.706564  3.367494
H    -0.145672  2.431756  4.932822
N    -2.834386  -1.496179  4.847965
C    -4.077758  -2.220120  5.136452
H    -2.158396  -1.408649  5.599801
H    -4.812860  -1.977761  4.364320
H    -4.455344  -1.908370  6.115360
H    -3.904727  -3.303764  5.138709
Sr    2.308877  1.467311  3.387166
