24
Energy: -102733.275973 eV PBE+vdW (tier 2 basis)
C    0.285779  -0.336905  0.106819
C    0.030424  -0.023723  1.543857
O    0.998399  0.223175  2.327394
H    -0.625345  -0.396630  -0.497076
H    0.804745  -1.305973  0.056437
H    0.962126  0.412749  -0.321880
N    -1.239612  -0.016995  1.971541
C    -1.757212  0.008613  3.355257
C    -1.571494  1.360240  4.061488
O    -0.423998  1.748872  4.442483
H    -1.930127  -0.276976  1.272579
H    -2.833249  -0.172918  3.236306
C    -1.223647  -1.159431  4.213288
O    -1.380573  -2.322120  3.439726
H    -1.800106  -1.178558  5.153031
H    -0.159777  -0.998491  4.484387
H    -1.461583  -3.101792  4.012570
N    -2.663842  2.070824  4.293989
C    -2.711910  3.354117  4.996063
H    -3.548302  1.702179  3.951996
H    -1.774352  3.508358  5.534610
H    -3.546871  3.340999  5.704983
H    -2.865113  4.169685  4.277755
Sr    1.808639  1.347699  4.103399
