24
Energy: -102733.622298 eV PBE+vdW (tier 2 basis)
C    -0.661586  -1.122480  0.397340
C    -0.414731  -0.340408  1.644009
O    0.752199  0.078848  1.929723
H    -1.696799  -1.463921  0.297418
H    0.012872  -1.987876  0.363708
H    -0.410420  -0.489039  -0.465836
N    -1.447802  -0.074017  2.451030
C    -1.403816  0.789135  3.638671
C    -0.753574  0.049352  4.831339
O    0.517475  0.066700  4.936161
H    -2.361307  -0.468041  2.227204
H    -0.744485  1.641043  3.417125
C    -2.806932  1.344316  3.898865
O    -3.670574  0.217060  4.078266
H    -3.115368  1.953850  3.035020
H    -2.783341  1.993196  4.789256
H    -4.594842  0.510618  4.145794
N    -1.539375  -0.575287  5.683301
C    -1.099178  -1.316064  6.864039
H    -2.543520  -0.545390  5.462828
H    -1.723705  -1.029214  7.717208
H    -0.054364  -1.080669  7.078561
H    -1.209268  -2.394569  6.692134
Sr    2.327440  0.293860  3.554836
