24
Energy: -102732.642773 eV PBE+vdW (tier 2 basis)
C    1.262245  -1.531572  1.814480
C    0.172442  -1.374110  2.832142
O    0.054316  -2.050648  3.840058
H    2.217970  -1.247892  2.276643
H    1.112139  -0.933571  0.908632
H    1.344873  -2.591479  1.545034
N    -0.790229  -0.369007  2.564508
C    -1.739339  -0.088305  3.614618
C    -3.190328  -0.197627  3.169006
O    -4.113068  0.255823  3.939669
H    -0.567196  0.345622  1.875586
H    -1.559071  -0.928940  4.326292
C    -1.420934  1.222537  4.354061
O    -2.058517  1.278788  5.690837
H    -1.751363  2.112400  3.801988
H    -0.336982  1.278379  4.498829
H    -1.353853  1.378475  6.353219
N    -3.450005  -0.798204  2.030317
C    -4.769112  -1.079757  1.469157
H    -2.621903  -1.117389  1.522142
H    -5.538029  -0.614556  2.089736
H    -4.928726  -2.164514  1.431835
H    -4.824072  -0.676738  0.451317
Sr    -4.449255  1.070285  5.986893
