24
Energy: -102733.848408 eV PBE+vdW (tier 2 basis)
C    -0.617252  -0.173493  0.437442
C    -1.174988  -0.502300  1.784722
O    -1.464293  -1.686704  2.094324
H    -0.418523  0.892675  0.288477
H    -1.318111  -0.520868  -0.333466
H    0.315020  -0.737427  0.294715
N    -1.346331  0.516153  2.657313
C    -1.847425  0.439648  4.039677
C    -1.062962  -0.579762  4.895379
O    -1.530362  -1.741421  5.081387
H    -1.092426  1.441684  2.323278
H    -1.654042  1.434010  4.466389
C    -3.371488  0.307430  4.178129
O    -3.915845  -0.915865  3.604791
H    -3.832612  1.162725  3.666951
H    -3.628746  0.353187  5.246828
H    -4.851007  -0.748355  3.399220
N    0.088069  -0.225302  5.452002
C    0.834665  1.031290  5.394519
H    0.514673  -0.968793  6.008559
H    0.277645  1.804424  4.859734
H    1.791561  0.870035  4.882514
H    1.031957  1.382947  6.414018
Sr    -2.653179  -3.058916  3.534097
