24
Energy: -102733.338794 eV PBE+vdW (tier 2 basis)
C    -0.797946  -0.503423  -0.150408
C    -0.346930  -0.368166  1.264954
O    0.884625  -0.469221  1.566286
H    -0.433669  -1.452596  -0.564475
H    -0.336338  0.301572  -0.740610
H    -1.885080  -0.450525  -0.266073
N    -1.262978  -0.132291  2.211486
C    -0.973119  0.252492  3.601943
C    -0.507574  -0.947727  4.451144
O    0.723327  -1.264991  4.442300
H    -2.209688  0.070728  1.893156
H    -0.122442  0.952158  3.582479
C    -2.182285  1.017369  4.161052
O    -2.442532  2.038663  3.221509
H    -1.922441  1.404914  5.159973
H    -3.060756  0.348077  4.270884
H    -3.142484  2.626503  3.550975
N    -1.390706  -1.610873  5.175798
C    -1.086387  -2.754866  6.038949
H    -2.362293  -1.312818  5.127320
H    -1.756996  -2.729360  6.903333
H    -0.049096  -2.691119  6.377457
H    -1.240203  -3.695315  5.493928
Sr    2.511308  -1.086528  3.007950
