16
Energy: -239076.265530 eV PBE+vdW (tier 2 basis)
N    -0.937259  0.592160  -0.315640
C    -0.383613  0.603342  1.057972
C    0.881546  -0.259404  1.038310
O    1.148518  -1.061430  0.142661
H    -0.387266  1.210953  -0.914796
H    -1.889150  0.965194  -0.295618
H    -0.092844  1.609402  1.399872
C    -1.433567  0.040974  2.068904
C    -1.880593  -1.295933  1.494902
O    -1.074310  -2.278777  1.624013
O    -2.842943  -1.318397  0.661138
H    -2.268062  0.748329  2.142962
H    -0.965874  -0.076243  3.052245
O    1.667103  -0.035286  2.082558
H    2.434978  -0.641545  2.041839
Ba    -1.058665  -2.285337  -0.893321
