16
Energy: -239076.246941 eV PBE+vdW (tier 2 basis)
N    -0.145934  0.546337  0.329425
C    0.072694  -0.152240  1.571743
C    1.560182  -0.325828  1.857451
O    2.027724  -0.545692  2.985961
H    0.099723  -0.006946  -0.490650
H    -1.115040  0.845250  0.238972
H    -0.304194  0.475101  2.393141
C    -0.649775  -1.549599  1.720009
C    -0.365809  -2.129195  3.083871
O    0.453416  -3.104325  3.201302
O    -0.789588  -1.494610  4.116457
H    -0.320580  -2.237176  0.932304
H    -1.723031  -1.351946  1.609376
O    2.332221  -0.257275  0.785581
H    3.264530  -0.395399  1.050915
Ba    1.414550  -1.899232  5.144934
