16
Energy: -239076.518703 eV PBE+vdW (tier 2 basis)
N    0.044419  1.188905  0.823888
C    0.315536  -0.085655  1.576559
C    1.519025  -0.692606  0.760657
O    2.047958  -1.769450  1.159008
H    -0.892798  1.228703  0.415238
H    0.856723  1.013546  0.035185
H    0.668406  0.159266  2.585790
C    -0.929558  -0.981656  1.668913
C    -0.520119  -2.329792  2.257970
O    0.026522  -2.341559  3.409239
O    -0.580349  -3.362153  1.517165
H    -1.370705  -1.148210  0.677335
H    -1.674618  -0.508005  2.323560
O    1.856249  -0.002218  -0.230436
H    0.206674  2.036876  1.371340
Ba    1.725636  -3.901993  2.357592
