16
Energy: -239076.330424 eV PBE+vdW (tier 2 basis)
N    -0.756953  0.543709  0.070375
C    -0.125444  0.323162  1.422622
C    1.396768  0.160731  1.127805
O    2.088916  -0.407273  2.019244
H    -0.117155  1.123210  -0.495537
H    -1.704179  0.930967  0.107375
H    -0.327367  1.183676  2.071516
C    -0.679689  -0.997226  2.014033
C    -0.081405  -2.144229  1.190480
O    -0.083189  -1.978937  -0.094444
O    0.588420  -3.057056  1.734664
H    -1.779222  -1.006034  1.981623
H    -0.368883  -1.094501  3.057651
O    1.791061  0.388116  -0.054286
H    -0.724444  -0.445835  -0.345468
Ba    2.581764  -2.251476  0.286346
