16
Energy: -239076.493846 eV PBE+vdW (tier 2 basis)
N    -0.753405  0.929435  0.218224
C    -0.449013  0.568105  1.621750
C    0.742255  -0.393404  1.588265
O    1.109150  -0.992673  0.576748
H    -1.667095  1.387076  0.180949
H    -0.066802  1.606187  -0.120868
H    -0.158786  1.433204  2.239011
C    -1.693263  -0.098491  2.290830
C    -2.118610  -1.214219  1.347014
O    -2.920156  -0.944723  0.394854
O    -1.411960  -2.278883  1.355744
H    -2.480487  0.656114  2.405288
H    -1.413111  -0.486026  3.276119
O    1.347009  -0.496321  2.763611
H    2.070184  -1.153026  2.695395
Ba    -0.957909  -1.710356  -1.053934
