16
Energy: -239076.474487 eV PBE+vdW (tier 2 basis)
N    -0.069161  0.159766  0.074682
C    0.058639  0.062454  1.576188
C    1.615558  -0.095183  1.749647
O    2.307195  0.430572  0.864363
H    0.834460  0.627125  -0.199229
H    -0.902744  0.648916  -0.262436
H    -0.253667  1.024775  2.002863
C    -0.775170  -1.096024  2.130896
C    -0.074802  -2.410274  1.806512
O    0.529592  -2.484650  0.670962
O    0.073166  -3.291553  2.700177
H    -1.796075  -1.082958  1.719160
H    -0.869207  -1.001423  3.217333
O    2.021386  -0.809861  2.732151
H    -0.023396  -0.823459  -0.268885
Ba    2.553229  -3.148226  2.234617
