16
Energy: -239076.460785 eV PBE+vdW (tier 2 basis)
N    0.535313  -0.961189  0.267434
C    0.243509  -0.149025  1.516479
C    1.422842  -0.303087  2.526978
O    1.562301  0.552428  3.379095
H    0.015559  -0.625176  -0.550273
H    0.223225  -1.957721  0.533404
H    0.128999  0.904402  1.240966
C    -1.055615  -0.713843  2.141469
C    -0.755186  -2.141876  2.583265
O    -0.689861  -2.423872  3.812663
O    -0.362030  -2.975317  1.676292
H    -1.880526  -0.689435  1.414484
H    -1.328980  -0.099993  3.004869
O    2.094884  -1.424337  2.390287
H    1.541152  -0.965184  0.067964
Ba    1.560910  -3.506713  3.484642
