16
Energy: -239076.124027 eV PBE+vdW (tier 2 basis)
N    0.510616  0.316267  0.214250
C    0.172454  0.110764  1.629915
C    1.532211  0.005343  2.362345
O    1.686969  -0.472491  3.498838
H    0.551323  -0.570523  -0.291114
H    -0.144738  0.933987  -0.260747
H    -0.276534  1.047268  1.997818
C    -0.796251  -1.048326  1.973353
C    -0.038564  -2.318178  2.312333
O    -0.331217  -2.955127  3.377226
O    1.003840  -2.610666  1.626695
H    -1.459545  -1.222256  1.114631
H    -1.434467  -0.789775  2.824809
O    2.533533  0.472590  1.666197
H    2.077171  0.682814  0.766284
Ba    2.098280  -2.979856  3.884035
