16
Energy: -239076.199943 eV PBE+vdW (tier 2 basis)
N    -0.427144  -0.018234  -0.118346
C    -0.387027  -0.109524  1.317988
C    0.995880  -0.036497  1.994454
O    1.175322  0.159743  3.207308
H    0.081005  -0.770722  -0.580716
H    -0.074998  0.870670  -0.468225
H    -0.942072  0.744091  1.739202
C    -1.136537  -1.395021  1.783487
C    -1.197528  -1.446545  3.292219
O    -1.830675  -0.519818  3.912484
O    -0.473192  -2.286636  3.927635
H    -0.643025  -2.294436  1.395869
H    -2.144956  -1.324560  1.358519
O    2.016949  -0.188109  1.161488
H    2.852817  -0.129981  1.668558
Ba    0.048182  -0.443423  5.503075
