16
Energy: -239075.651449 eV PBE+vdW (tier 2 basis)
N    -0.423517  0.088853  -0.145431
C    0.054569  0.008141  1.261116
C    1.281743  -0.897915  1.370457
O    2.004124  -0.959584  2.323645
H    -1.304524  0.610687  -0.157291
H    0.241477  0.636246  -0.696595
H    0.388147  0.985287  1.644876
C    -1.085922  -0.501095  2.191571
C    -1.636137  -1.739304  1.508917
O    -0.897757  -2.785653  1.519052
O    -2.615460  -1.625476  0.701514
H    -1.853855  0.274876  2.289654
H    -0.665225  -0.729057  3.177080
O    1.525181  -1.643872  0.211106
H    2.346076  -2.139082  0.409744
Ba    -0.985920  -2.632054  -0.952415
