16
Energy: -239076.472699 eV PBE+vdW (tier 2 basis)
N    0.343614  -0.169959  0.507144
C    0.086232  -0.061339  1.954502
C    1.253228  -0.633435  2.777253
O    2.159279  -1.295540  2.172964
H    -0.078876  0.598358  -0.013184
H    -0.227684  -1.672796  0.302236
H    -0.132526  0.963231  2.283085
C    -1.135092  -0.981013  2.307595
C    -0.681274  -2.387952  1.980353
O    -0.415555  -3.230725  2.868049
O    -0.413024  -2.623962  0.723434
H    -1.996438  -0.691707  1.692143
H    -1.389104  -0.889609  3.366100
O    1.139421  -0.630757  4.044343
H    1.348580  -0.189519  0.321639
Ba    1.841220  -3.057279  4.011343
