16
Energy: -239075.473264 eV PBE+vdW (tier 2 basis)
N    -0.451226  0.405941  0.259972
C    -0.089854  -0.179127  1.527282
C    1.403255  -0.012294  1.867005
O    2.291436  0.240689  1.105548
H    0.118406  0.041542  -0.504493
H    -0.342673  1.419396  0.265134
H    -0.660882  0.321673  2.323135
C    -0.498828  -1.680301  1.540570
C    -0.290120  -2.255242  2.915089
O    0.659004  -3.084607  3.133676
O    -0.962737  -1.761099  3.894101
H    0.075130  -2.248699  0.799301
H    -1.562899  -1.706132  1.275032
O    1.714982  -0.128632  3.261742
H    2.660741  0.129334  3.273116
Ba    1.000367  -1.983158  5.306264
