16
Energy: -239076.067370 eV PBE+vdW (tier 2 basis)
N    -0.069887  -0.142283  -0.088194
C    0.125622  0.016114  1.342595
C    1.620387  -0.100479  1.713063
O    2.286727  -1.138507  1.622456
H    0.500541  0.484971  -0.652590
H    0.064486  -1.110903  -0.380618
H    -0.213853  1.028421  1.618760
C    -0.759249  -0.980500  2.132078
C    -0.198389  -2.386603  2.067724
O    0.293119  -2.907563  3.125214
O    -0.066184  -2.958738  0.927410
H    -1.753665  -0.945861  1.666686
H    -0.841301  -0.676717  3.181132
O    2.268091  1.008539  2.069351
H    1.655687  1.766180  2.124146
Ba    2.174212  -3.712877  1.736593
