16
Energy: -239076.312006 eV PBE+vdW (tier 2 basis)
N    1.029346  -1.124635  0.101610
C    0.306860  -0.345693  1.100829
C    1.375249  0.083112  2.114608
O    1.997087  -0.681163  2.868070
H    0.712115  -0.910510  -0.840197
H    0.929411  -2.125072  0.277495
H    -0.063450  0.575146  0.635335
C    -0.904287  -1.050174  1.784350
C    -0.427200  -2.208786  2.629356
O    -0.485056  -2.130745  3.901684
O    0.209935  -3.169934  2.058786
H    -1.561206  -1.408027  0.980309
H    -1.462879  -0.345789  2.411906
O    1.626323  1.383770  2.083898
H    2.355641  1.588951  2.705475
Ba    1.821110  -3.040451  3.947487
