16
Energy: -239076.249523 eV PBE+vdW (tier 2 basis)
N    0.024060  -1.044990  -0.054211
C    0.269691  -0.211285  1.140213
C    1.768691  -0.344936  1.476399
O    2.459134  -1.261298  1.041835
H    0.376105  -0.572847  -0.889024
H    -0.982306  -1.175235  -0.178730
H    0.051553  0.857037  0.961653
C    -0.629693  -0.693395  2.324163
C    -0.394959  -2.195343  2.441853
O    0.683451  -2.565536  3.014691
O    -1.087494  -2.981545  1.720281
H    -1.675989  -0.464199  2.088823
H    -0.348138  -0.177415  3.249619
O    2.325138  0.576808  2.254008
H    1.687910  1.269043  2.512118
Ba    1.222848  -3.628868  0.795308
