34
Energy: -175947.752815 eV PBE+vdW (tier 2 basis)
C    -0.284081  -2.020038  0.205511
C    -0.237931  -1.415209  1.574012
O    0.609580  -1.865731  2.406918
H    -1.100712  -1.640376  -0.417301
H    -0.381442  -3.109071  0.307754
H    0.673962  -1.836364  -0.300139
N    -1.115986  -0.434919  1.847982
C    -1.472083  0.214409  3.118459
C    -0.484136  1.309618  3.531104
O    0.777538  1.138649  3.509195
H    -1.726235  -0.193797  1.072295
H    -2.433200  0.698255  2.906492
C    -1.725000  -0.759386  4.317636
C    -2.823768  -1.756921  4.080662
C    -4.171721  -1.388657  4.281297
C    -2.532699  -3.077386  3.678480
C    -5.196747  -2.290298  4.075755
C    -3.542836  -4.002027  3.475613
C    -4.888841  -3.613093  3.671555
O    -5.925195  -4.438002  3.510584
H    -1.986134  -0.119446  5.174136
H    -0.795547  -1.283477  4.582770
H    -4.417176  -0.380824  4.619992
H    -1.495857  -3.391503  3.554906
H    -6.239868  -2.020400  4.233232
H    -3.306722  -5.027188  3.187537
H    -5.644393  -5.336936  3.253730
N    -0.957643  2.475529  3.953543
C    -2.346154  2.947517  3.994773
H    -0.235784  3.128513  4.261136
H    -2.336243  3.984231  4.341969
H    -2.947709  2.359571  4.699164
H    -2.803542  2.930302  2.997689
Cd    1.923124  -0.699858  3.692043
