34
Energy: -175947.936105 eV PBE+vdW (tier 2 basis)
C    0.246133  1.621282  0.311733
C    -0.030270  0.307716  0.964380
O    0.489425  -0.787133  0.497901
H    -0.261371  2.457900  0.802120
H    -0.080268  1.565630  -0.736763
H    1.327403  1.821609  0.296540
N    -0.856318  0.261387  1.990342
C    -1.385891  -0.891967  2.711871
C    -2.761824  -0.346013  3.232851
O    -2.867297  0.877978  3.350313
H    -1.379218  1.108481  2.301568
H    -1.505722  -1.739453  2.023469
C    -0.516920  -1.290184  3.950832
C    0.779614  -1.964568  3.591789
C    1.983753  -1.270059  3.526628
C    0.797228  -3.345587  3.262939
C    3.183189  -1.901390  3.051350
C    1.945992  -4.021569  2.879828
C    3.174305  -3.326724  2.802902
O    4.352131  -3.888415  2.572253
H    -1.122175  -1.965734  4.570865
H    -0.338345  -0.387499  4.550146
H    2.040410  -0.223858  3.833164
H    -0.131142  -3.915462  3.328714
H    4.154541  -1.419101  3.191526
H    1.914570  -5.095076  2.687265
H    4.293600  -4.856351  2.450356
N    -3.696283  -1.247321  3.551184
C    -5.012845  -0.881903  4.081588
H    -3.530559  -2.224450  3.332397
H    -4.973441  0.154347  4.427487
H    -5.264220  -1.541206  4.919337
H    -5.780189  -0.973330  3.302846
Cd    2.454005  -1.347978  0.909279
