34
Energy: -175947.897357 eV PBE+vdW (tier 2 basis)
C    -3.172968  -1.433741  -0.428624
C    -2.159830  -1.191119  0.644316
O    -0.932645  -1.183045  0.327396
H    -4.205916  -1.397522  -0.066674
H    -2.979987  -2.408653  -0.895282
H    -3.037391  -0.675262  -1.212091
N    -2.606275  -0.974802  1.895720
C    -1.831884  -0.466536  3.035983
C    -1.210005  -1.636204  3.829014
O    -0.190457  -2.254941  3.382648
H    -3.614987  -1.014590  2.019412
H    -0.979334  0.094701  2.621452
C    -2.690776  0.515953  3.865892
C    -3.117473  1.746549  3.100443
C    -2.182794  2.756791  2.789653
C    -4.460792  1.923813  2.716608
C    -2.565980  3.899768  2.115294
C    -4.870334  3.063497  2.042810
C    -3.920705  4.064618  1.736329
O    -4.224499  5.200179  1.101952
H    -2.095699  0.818574  4.741300
H    -3.589061  0.001962  4.245358
H    -1.143737  2.659790  3.108836
H    -5.207143  1.172083  2.978980
H    -1.858128  4.694609  1.885435
H    -5.916961  3.197091  1.766559
H    -5.176664  5.262346  0.896540
N    -1.740923  -2.009578  4.979760
C    -1.226006  -3.116389  5.795930
H    -2.543942  -1.496316  5.330915
H    -0.170407  -2.946129  6.036652
H    -1.321030  -4.064022  5.252677
H    -1.809456  -3.163249  6.718534
Cd    0.794189  -1.887222  1.464269
