34
Energy: -175947.893534 eV PBE+vdW (tier 2 basis)
C    -0.337899  -1.485599  -0.123727
C    -0.261799  -1.052026  1.304565
O    0.874066  -0.763702  1.795211
H    0.309945  -2.358594  -0.275601
H    0.067459  -0.678295  -0.750821
H    -1.355989  -1.716868  -0.454484
N    -1.409743  -0.963341  2.001718
C    -1.626598  -0.283469  3.289022
C    -1.480946  -1.286345  4.449578
O    -0.376912  -1.896920  4.643799
H    -2.251329  -1.249697  1.506034
H    -0.801100  0.436383  3.414035
C    -2.959623  0.505340  3.181064
C    -3.380687  1.290808  4.400004
C    -4.638932  1.049149  4.993176
C    -2.572236  2.318813  4.929827
C    -5.078619  1.790410  6.075901
C    -2.992750  3.073501  6.010809
C    -4.254386  2.813590  6.596910
O    -4.740263  3.499758  7.634564
H    -3.767191  -0.188711  2.898831
H    -2.836252  1.191437  2.328545
H    -5.305255  0.295216  4.567353
H    -1.612933  2.558061  4.468687
H    -6.056935  1.623591  6.524154
H    -2.366759  3.878178  6.398675
H    -4.134148  4.207467  7.924394
N    -2.504435  -1.525782  5.245836
C    -2.466161  -2.444714  6.386637
H    -3.360377  -0.992977  5.093054
H    -2.561645  -3.482431  6.042735
H    -3.301298  -2.205033  7.050044
H    -1.518484  -2.334207  6.923525
Cd    1.549210  -1.371988  3.769946
