34
Energy: -175947.818975 eV PBE+vdW (tier 2 basis)
C    2.456029  2.269681  2.332983
C    1.207605  1.502165  2.642747
O    0.943565  0.483534  1.943475
H    2.436800  2.557496  1.273345
H    3.320865  1.605594  2.466451
H    2.587271  3.165116  2.949372
N    0.431599  1.964346  3.645475
C    -0.884826  1.504057  4.143716
C    -0.697995  0.236469  5.005798
O    -0.556486  -0.913491  4.488867
H    0.783471  2.802678  4.098905
H    -1.211676  2.311925  4.806621
C    -1.980135  1.393407  3.050153
C    -3.375627  1.648398  3.516018
C    -4.157220  2.616246  2.844999
C    -3.960511  0.928494  4.583245
C    -5.450507  2.890845  3.240063
C    -5.256884  1.183325  4.990121
C    -6.015604  2.175135  4.321281
O    -7.272588  2.479959  4.644170
H    -1.960985  0.371197  2.557890
H    -1.719653  2.087839  2.241882
H    -3.731283  3.168296  2.006676
H    -3.408250  0.134026  5.087019
H    -6.053166  3.646274  2.738126
H    -5.702985  0.613667  5.806263
H    -7.605552  1.941449  5.386773
N    -0.665545  0.355411  6.327639
C    -0.818277  1.562275  7.148819
H    -0.495631  -0.522430  6.820088
H    -1.776453  2.059153  6.954192
H    0.012833  2.261567  6.993925
H    -0.805640  1.253628  8.197803
Cd    -0.382557  -1.206732  2.310100
