34
Energy: -175947.789391 eV PBE+vdW (tier 2 basis)
C    0.792870  3.018586  2.195002
C    0.172870  1.770774  2.744841
O    0.049881  0.777286  1.971241
H    0.753639  3.869827  2.882835
H    0.288577  3.282070  1.256426
H    1.841429  2.807547  1.941637
N    -0.229140  1.799734  4.031330
C    -0.927842  0.799638  4.858952
C    0.015541  -0.336419  5.292092
O    0.433990  -1.215715  4.472490
H    -0.064879  2.686905  4.497729
H    -1.211868  1.353600  5.760608
C    -2.262174  0.229940  4.292595
C    -3.365924  1.217993  4.079139
C    -3.358563  2.130323  3.000319
C    -4.472338  1.217419  4.956905
C    -4.386599  3.034796  2.825864
C    -5.507841  2.121734  4.806736
C    -5.472059  3.044359  3.736510
O    -6.430595  3.942257  3.503814
H    -2.591405  -0.536199  5.009602
H    -2.084006  -0.318017  3.330986
H    -2.554501  2.107786  2.265266
H    -4.515385  0.496717  5.774340
H    -4.400682  3.733510  1.990873
H    -6.348827  2.118709  5.501206
H    -7.157960  3.879908  4.151881
N    0.392677  -0.422675  6.560735
C    0.075875  0.465242  7.686430
H    0.997177  -1.221634  6.758340
H    0.643331  0.116002  8.553464
H    -0.990425  0.425578  7.940848
H    0.381796  1.497859  7.480269
Cd    -0.190402  -1.351148  2.390404
