34
Energy: -175947.562539 eV PBE+vdW (tier 2 basis)
C    0.765256  -3.310476  2.125635
C    0.238041  -3.052834  3.499935
O    1.028849  -3.151875  4.484176
H    1.269265  -4.285019  2.107108
H    1.527107  -2.552592  1.893979
H    -0.012767  -3.282973  1.355089
N    -1.061671  -2.717728  3.636429
C    -1.650645  -2.306745  4.904064
C    -1.839467  -3.494753  5.875761
O    -1.181691  -3.467559  6.974154
H    -1.624413  -2.656225  2.791504
H    -0.886962  -1.699387  5.415776
C    -2.843322  -1.313797  4.771159
C    -4.081804  -1.714661  4.016062
C    -4.126918  -1.646907  2.606527
C    -5.251022  -2.091217  4.708474
C    -5.273189  -1.980223  1.907042
C    -6.414729  -2.415771  4.031446
C    -6.433282  -2.369388  2.618466
O    -7.511092  -2.655925  1.883155
H    -2.413415  -0.411548  4.309248
H    -3.110468  -1.030338  5.798760
H    -3.267685  -1.270005  2.046938
H    -5.251223  -2.108353  5.799129
H    -5.322974  -1.913464  0.821257
H    -7.317647  -2.684094  4.581793
H    -8.286101  -2.872804  2.435364
N    -2.619972  -4.538672  5.643393
C    -3.440262  -4.903745  4.490528
H    -2.596371  -5.225143  6.401075
H    -3.110805  -5.884756  4.125498
H    -3.350788  -4.167974  3.691184
H    -4.492962  -4.970594  4.787969
Cd    0.950131  -3.010451  6.691923
