34
Energy: -175947.576408 eV PBE+vdW (tier 2 basis)
C    -0.403932  1.322043  -0.366385
C    -0.376954  0.135959  0.533580
O    0.005651  -1.008311  0.074485
H    0.540325  1.415690  -0.916862
H    -0.627525  2.258928  0.155003
H    -1.191831  1.146462  -1.116479
N    -0.795688  0.266797  1.793450
C    -1.209702  -0.818151  2.689275
C    -2.754996  -0.596465  2.920200
O    -3.450151  -0.612353  1.912963
H    -1.125057  1.198107  2.047465
H    -1.177709  -1.741546  2.096291
C    -0.277255  -0.967391  3.926359
C    0.956240  -1.746150  3.546067
C    2.093440  -1.139031  3.020979
C    0.932268  -3.165020  3.602261
C    3.151558  -1.922196  2.441339
C    1.971664  -3.961683  3.145488
C    3.116571  -3.361277  2.577402
O    4.206294  -4.010426  2.195821
H    -0.815138  -1.524638  4.704472
H    -0.019431  0.017538  4.338301
H    2.201373  -0.052641  3.027113
H    0.059601  -3.659926  4.032316
H    4.115857  -1.461706  2.209026
H    1.922563  -5.045964  3.257348
H    4.143069  -4.975317  2.338273
N    -3.192631  -0.411590  4.177856
C    -4.610667  -0.208379  4.487790
H    -2.530713  -0.345131  4.941965
H    -4.851565  -0.720959  5.424704
H    -5.209166  -0.625585  3.673016
H    -4.839855  0.860257  4.588500
Cd    1.886488  -1.807946  0.495618
