34
Energy: -175947.668425 eV PBE+vdW (tier 2 basis)
C    0.016649  2.007755  0.427923
C    -0.102777  0.641504  1.015785
O    0.357277  -0.378386  0.375630
H    -0.421406  2.791882  1.054715
H    -0.481757  2.011185  -0.552603
H    1.072634  2.246516  0.239930
N    -0.742097  0.488658  2.177625
C    -1.052727  -0.770145  2.856371
C    -2.547900  -0.832258  3.355922
O    -2.794769  -1.492780  4.355034
H    -1.071274  1.342010  2.630245
H    -0.958358  -1.563601  2.100294
C    -0.101897  -1.056423  4.051980
C    1.109423  -1.818767  3.601334
C    2.318798  -1.200168  3.299330
C    1.007471  -3.217786  3.369717
C    3.373781  -1.918565  2.631201
C    2.034046  -3.973464  2.823161
C    3.245856  -3.348671  2.456493
O    4.320966  -3.977929  2.006427
H    -0.699616  -1.640978  4.768259
H    0.172198  -0.116310  4.548556
H    2.486025  -0.149344  3.545556
H    0.081278  -3.726024  3.645436
H    4.377289  -1.490923  2.557357
H    1.921766  -5.053038  2.710500
H    4.195083  -4.945081  1.942095
N    -3.461167  -0.168205  2.621929
C    -4.892651  -0.226898  2.935363
H    -3.190845  0.220386  1.725027
H    -5.019697  -0.220464  4.022113
H    -5.348789  -1.140119  2.531641
H    -5.384405  0.649477  2.502934
Cd    2.224590  -1.275043  0.719717
