34
Energy: -175947.839078 eV PBE+vdW (tier 2 basis)
C    0.293303  -1.012309  0.554629
C    0.241313  -0.642524  1.999534
O    1.334272  -0.420954  2.666777
H    0.897196  -1.925071  0.449287
H    0.801935  -0.227237  -0.023724
H    -0.697115  -1.184277  0.121727
N    -0.925061  -0.597998  2.609974
C    -1.230505  -0.392984  4.023169
C    -2.597518  -1.144790  4.171663
O    -3.245359  -1.324770  3.135476
H    -1.802368  -0.901941  2.130976
H    -0.435792  -0.830398  4.640244
C    -1.463142  1.110403  4.387761
C    -0.198051  1.923119  4.443779
C    0.215608  2.725421  3.384842
C    0.641755  1.855016  5.586433
C    1.492920  3.383782  3.403411
C    1.844183  2.538635  5.687793
C    2.280967  3.350348  4.616271
O    3.342726  4.142462  4.646534
H    -1.958425  1.141626  5.367661
H    -2.171574  1.533528  3.663347
H    -0.423406  2.867629  2.511201
H    0.324993  1.249968  6.437721
H    1.723920  4.163097  2.671931
H    2.427970  2.492101  6.608400
H    3.816149  4.110642  5.500964
N    -3.011324  -1.519877  5.389245
C    -2.332669  -1.392280  6.673956
H    -3.933712  -1.953434  5.389074
H    -1.244813  -1.444844  6.553274
H    -2.628657  -2.231287  7.312069
H    -2.603611  -0.459029  7.188673
Cd    2.355891  1.389229  2.572931
