34
Energy: -175947.881672 eV PBE+vdW (tier 2 basis)
C    0.357738  -1.210417  0.965092
C    -0.389731  0.085988  0.915013
O    0.124317  1.131204  0.475697
H    -0.249292  -2.062682  1.288235
H    1.203958  -1.094014  1.656895
H    0.784031  -1.414968  -0.024664
N    -1.682977  0.078053  1.372322
C    -2.509175  1.249829  1.645851
C    -2.861316  2.113331  0.422102
O    -4.083162  2.551789  0.323370
H    -2.064093  -0.812936  1.674306
H    -3.476450  0.861879  1.990753
C    -1.899267  2.137001  2.796616
C    -2.801111  3.281740  3.176168
C    -3.920811  3.075642  4.023385
C    -2.627960  4.556662  2.638610
C    -4.856574  4.063011  4.297790
C    -3.627893  5.586261  2.815140
C    -4.726865  5.342689  3.714420
O    -5.519959  6.376530  3.961900
H    -0.914214  2.502275  2.480224
H    -1.743880  1.470574  3.655233
H    -4.052909  2.099301  4.492855
H    -1.731002  4.801586  2.064522
H    -5.676131  3.862227  4.989672
H    -3.408756  6.622782  2.545786
H    -6.225656  6.167446  4.604545
N    -1.933832  2.399357  -0.452911
C    -2.150576  3.213346  -1.640097
H    -0.970354  1.983373  -0.208499
H    -1.265688  3.142498  -2.278481
H    -2.286527  4.277069  -1.374038
H    -3.034837  2.871193  -2.190049
Cd    -4.480764  4.509587  0.928997
