34
Energy: -175947.906634 eV PBE+vdW (tier 2 basis)
C    -2.724147  -1.359695  1.412848
C    -2.003372  -0.065477  1.634092
O    -1.141478  -0.015457  2.559413
H    -3.130007  -1.708234  2.371322
H    -1.996985  -2.115651  1.084515
H    -3.531856  -1.293388  0.676364
N    -2.336791  0.968412  0.836651
C    -1.889515  2.373758  0.823029
C    -0.473196  2.519200  0.232942
O    0.566079  2.134873  0.855087
H    -3.053550  0.750772  0.150626
H    -2.582856  2.867077  0.129044
C    -2.024180  3.158389  2.161277
C    -3.411327  3.320160  2.700450
C    -4.039716  4.582549  2.619832
C    -4.102847  2.258202  3.325181
C    -5.326426  4.774354  3.088895
C    -5.383735  2.430531  3.809779
C    -6.013589  3.694046  3.687961
O    -7.249200  3.788024  4.181187
H    -1.587456  4.149965  1.973724
H    -1.386068  2.694436  2.957580
H    -3.509108  5.424795  2.174318
H    -3.617961  1.292605  3.466251
H    -5.804683  5.751015  3.005670
H    -5.923047  1.625045  4.305710
H    -7.615828  4.687748  4.085608
N    -0.368175  3.092271  -0.957468
C    0.894915  3.335155  -1.661009
H    -1.224154  3.359298  -1.436738
H    0.840782  4.309394  -2.157341
H    1.062937  2.553976  -2.413403
H    1.716992  3.329068  -0.941338
Cd    0.538546  1.338786  2.885945
