34
Energy: -175947.698968 eV PBE+vdW (tier 2 basis)
C    0.983793  -0.648268  0.912108
C    -0.339215  0.046021  0.813400
O    -1.267937  -0.367156  0.101085
H    1.732206  -0.092556  1.487476
H    1.363561  -0.845922  -0.097310
H    0.823973  -1.625212  1.389983
N    -0.510428  1.189671  1.558399
C    -1.825628  1.797699  1.733375
C    -2.196030  2.668864  0.489886
O    -2.344548  3.960977  0.478610
H    0.276027  1.562243  2.081524
H    -2.543334  0.960585  1.701319
C    -1.881266  2.452215  3.133214
C    -3.188342  3.132710  3.458563
C    -4.435523  2.475345  3.341342
C    -3.208805  4.492384  3.794391
C    -5.651791  3.142436  3.447468
C    -4.440916  5.241497  3.799272
C    -5.684215  4.536478  3.661446
O    -6.785515  5.265790  3.790060
H    -1.064160  3.180304  3.237574
H    -1.680518  1.646451  3.855121
H    -4.457597  1.400527  3.154629
H    -2.280306  5.019647  4.030791
H    -6.585818  2.582583  3.377695
H    -4.466490  6.271763  4.161762
H    -7.602436  4.734031  3.727351
N    -2.272188  1.985442  -0.624836
C    -2.545428  2.520886  -1.951978
H    -2.014641  0.959811  -0.517105
H    -3.166770  1.801941  -2.496610
H    -1.602182  2.650307  -2.500685
H    -3.051171  3.487334  -1.883760
Cd    -3.638360  5.185164  1.546440
