34
Energy: -175947.851386 eV PBE+vdW (tier 2 basis)
C    -1.317089  -1.013170  -1.196894
C    -1.099493  -0.040934  -0.092610
O    -0.199183  0.876997  -0.264595
H    -1.468747  -0.441671  -2.124393
H    -2.178045  -1.667189  -1.033826
H    -0.411893  -1.616281  -1.353506
N    -1.794159  -0.057704  1.036812
C    -2.564203  -1.087823  1.726603
C    -3.461583  -0.253886  2.679060
O    -3.002171  0.828562  3.083230
H    -1.788684  0.779194  1.656287
H    -3.150849  -1.694975  1.026714
C    -1.599322  -2.019725  2.557987
C    -0.511872  -1.232183  3.249313
C    -0.760203  -0.490117  4.436748
C    0.747360  -1.116201  2.681175
C    0.164725  0.383011  4.992538
C    1.716575  -0.157100  3.168330
C    1.413828  0.573227  4.379021
O    2.386281  1.340350  4.852799
H    -1.150958  -2.746596  1.867552
H    -2.205672  -2.588379  3.275888
H    -1.712019  -0.615782  4.951400
H    1.035897  -1.756366  1.843582
H    -0.069965  0.903385  5.922148
H    2.776569  -0.285803  2.922727
H    2.145645  1.776533  5.693404
N    -4.634762  -0.782494  3.034853
C    -5.578601  -0.134450  3.947330
H    -4.927620  -1.651638  2.596919
H    -5.814564  -0.806890  4.780414
H    -6.503819  0.114684  3.413941
H    -5.122958  0.783135  4.327710
Cd    1.025540  1.163936  1.426408
