34
Energy: -175947.806657 eV PBE+vdW (tier 2 basis)
C    -2.630481  -1.550025  0.893124
C    -1.471621  -1.158258  1.753208
O    -0.300219  -1.444678  1.354280
H    -2.513270  -1.064550  -0.086383
H    -3.599564  -1.268288  1.318309
H    -2.602906  -2.632676  0.714848
N    -1.730184  -0.500324  2.896180
C    -0.786415  0.251776  3.736230
C    -0.162887  -0.624294  4.846190
O    0.520061  -1.656730  4.547853
H    -2.713938  -0.333424  3.103421
H    0.073587  0.511592  3.094556
C    -1.421055  1.592555  4.156739
C    -2.817503  1.614062  4.751096
C    -3.452657  0.518007  5.372893
C    -3.517812  2.841012  4.694510
C    -4.722433  0.635486  5.918617
C    -4.779513  2.983158  5.240663
C    -5.397858  1.875282  5.862235
O    -6.613977  1.916705  6.413625
H    -1.429591  2.227378  3.258278
H    -0.712751  2.104725  4.832065
H    -2.965459  -0.455242  5.449524
H    -3.053252  3.702642  4.213613
H    -5.215704  -0.208342  6.398466
H    -5.296139  3.942402  5.187896
H    -7.018177  2.802261  6.342574
N    -0.298062  -0.276283  6.114628
C    0.310751  -0.993999  7.238330
H    -0.901223  0.512201  6.333939
H    -0.331077  -1.826415  7.554882
H    0.435548  -0.294835  8.069973
H    1.283855  -1.390552  6.934731
Cd    1.359926  -2.110333  2.578906
