34
Energy: -175947.90774 eV PBE+vdW (tier 2 basis)
C    -3.584942  1.186666  0.899755
C    -2.638712  0.941817  2.034746
O    -1.401402  0.884280  1.775718
H    -4.640206  1.110178  1.182193
H    -3.367950  0.471126  0.096142
H    -3.392124  2.188461  0.490795
N    -3.175997  0.783218  3.260373
C    -2.557928  0.465036  4.561271
C    -1.815865  1.677663  5.154759
O    -0.710100  2.100280  4.692411
H    -4.188944  0.854752  3.284081
H    -3.412475  0.255825  5.218243
C    -1.676425  -0.816897  4.615463
C    -2.365250  -2.111278  4.313421
C    -2.719702  -2.484008  2.997495
C    -2.637260  -3.010390  5.368193
C    -3.359152  -3.680814  2.744603
C    -3.286832  -4.209503  5.138694
C    -3.657624  -4.555069  3.819143
O    -4.273019  -5.694503  3.500075
H    -1.259963  -0.853242  5.632500
H    -0.792798  -0.718055  3.932424
H    -2.459132  -1.844333  2.154677
H    -2.338836  -2.757971  6.386336
H    -3.625545  -3.986993  1.734221
H    -3.504361  -4.886760  5.965477
H    -4.428332  -6.259631  4.280799
N    -2.358876  2.275823  6.204442
C    -1.757224  3.427692  6.887116
H    -3.251296  1.934306  6.549696
H    -2.323866  3.620244  7.801406
H    -1.791927  4.313511  6.241069
H    -0.713726  3.209692  7.139383
Cd    0.354194  1.138375  3.048065
