34
Energy: -175947.491505 eV PBE+vdW (tier 2 basis)
C    0.362373  0.106945  0.105532
C    0.191631  -0.052766  1.580195
O    1.268136  -0.198365  2.269597
H    -0.583224  0.287877  -0.416846
H    0.813956  -0.815069  -0.290543
H    1.066007  0.922107  -0.104160
N    -1.046319  -0.069042  2.084072
C    -1.475766  -0.520869  3.414059
C    -2.397839  -1.786417  3.307013
O    -1.921875  -2.824977  3.744813
H    -1.781537  0.038521  1.388065
H    -0.596305  -0.979743  3.882216
C    -2.002978  0.600059  4.356202
C    -0.859701  1.401266  4.924828
C    -0.556961  2.706886  4.476341
C    0.020126  0.812955  5.844818
C    0.588810  3.394179  4.868362
C    1.271228  1.442769  6.188296
C    1.525181  2.784017  5.729356
O    2.624881  3.360242  6.197051
H    -2.557581  0.103528  5.165863
H    -2.712495  1.254300  3.836874
H    -1.249818  3.206396  3.797715
H    -0.220429  -0.144272  6.316228
H    0.754196  4.416509  4.524575
H    1.882056  1.053630  7.006865
H    2.733809  4.279991  5.886609
N    -3.619035  -1.696523  2.728988
C    -4.416338  -0.523611  2.382476
H    -4.109714  -2.590107  2.727788
H    -4.927546  -0.093631  3.255679
H    -5.177169  -0.825705  1.655759
H    -3.818152  0.263106  1.903961
Cd    1.772659  0.309204  4.214394
