34
Energy: -175947.722036 eV PBE+vdW (tier 2 basis)
C    -0.075077  -1.243918  1.370157
C    -1.172545  -0.222930  1.357052
O    -2.365557  -0.485667  1.367575
H    -0.192754  -1.896400  0.494844
H    -0.193253  -1.881725  2.255693
H    0.932111  -0.812594  1.362318
N    -0.761553  1.131978  1.299505
C    -1.804512  2.119058  1.475786
C    -1.876710  3.083248  0.287387
O    -2.758323  4.019313  0.137773
H    0.173849  1.341962  1.642613
H    -2.724321  1.497811  1.391088
C    -1.784105  2.752826  2.911194
C    -3.161218  3.162333  3.365275
C    -4.193977  2.195541  3.476034
C    -3.507846  4.504320  3.541840
C    -5.528327  2.537894  3.651124
C    -4.894415  4.908323  3.590425
C    -5.911949  3.896224  3.695818
O    -7.150803  4.333546  3.872463
H    -1.082278  3.595341  2.968575
H    -1.398514  1.966096  3.573738
H    -3.937686  1.136353  3.399332
H    -2.738548  5.279322  3.595072
H    -6.281831  1.756118  3.760153
H    -5.167133  5.938586  3.830925
H    -7.798916  3.608655  3.968313
N    -1.016412  2.902101  -0.689054
C    -0.985485  3.651261  -1.946125
H    -0.370993  2.122641  -0.544652
H    -0.675836  4.687774  -1.765848
H    -1.976873  3.647753  -2.413421
H    -0.265653  3.171036  -2.613304
Cd    -4.339553  4.705816  1.304338
