34
Energy: -175947.402536 eV PBE+vdW (tier 2 basis)
C    -2.135134  -1.902256  0.873847
C    -1.002275  -1.135682  1.462786
O    0.191236  -1.518391  1.259041
H    -2.190226  -1.718498  -0.209796
H    -3.097813  -1.677484  1.342561
H    -1.913846  -2.972250  0.990590
N    -1.219472  -0.038925  2.234120
C    -2.150443  1.036437  1.925131
C    -1.400578  2.029223  0.990622
O    -0.248561  1.773407  0.512934
H    -0.397696  0.254579  2.764987
H    -2.979068  0.608682  1.342069
C    -2.711965  1.665297  3.235623
C    -3.887319  2.599279  3.078013
C    -3.764486  3.972965  3.385499
C    -5.155575  2.103861  2.695142
C    -4.853830  4.823355  3.319152
C    -6.257933  2.935229  2.621814
C    -6.116196  4.308731  2.938105
O    -7.127048  5.178268  2.907459
H    -1.896858  2.180098  3.764244
H    -3.013836  0.815263  3.865424
H    -2.801965  4.369465  3.711158
H    -5.286426  1.041632  2.482902
H    -4.772855  5.878853  3.574781
H    -7.234076  2.536338  2.342843
H    -7.972093  4.754786  2.662721
N    -2.013521  3.155140  0.672605
C    -1.455835  4.174286  -0.222644
H    -2.915684  3.339724  1.114805
H    -1.258098  3.743592  -1.210919
H    -0.521253  4.575334  0.187034
H    -2.186228  4.981357  -0.319249
Cd    1.381955  0.239303  0.588598
