34
Energy: -175947.649362 eV PBE+vdW (tier 2 basis)
C    0.082188  0.071823  0.137534
C    -0.036428  -0.044573  1.626466
O    0.914782  -0.158530  2.402090
H    0.363199  1.105242  -0.112892
H    -0.846417  -0.171855  -0.391193
H    0.893095  -0.576088  -0.212305
N    -1.304394  -0.023568  2.182211
C    -1.360480  0.067603  3.617225
C    -0.494322  -1.012287  4.301545
O    0.231189  -0.724259  5.337784
H    -2.127823  0.175392  1.622164
H    -0.855019  1.008080  3.923839
C    -2.819944  0.124986  4.154001
C    -2.819117  0.451304  5.629728
C    -2.377548  1.705093  6.072693
C    -3.106024  -0.523113  6.611105
C    -2.049027  1.933291  7.454882
C    -2.905719  -0.304815  7.971077
C    -2.369315  0.918700  8.422882
O    -2.165152  1.241791  9.694049
H    -3.344610  -0.820556  3.967608
H    -3.348505  0.907871  3.589595
H    -2.254763  2.535805  5.372795
H    -3.496645  -1.491817  6.296488
H    -1.827931  2.940367  7.816136
H    -3.175319  -1.078496  8.691574
H    -2.433846  0.535204  10.312564
N    -0.540601  -2.293140  3.977092
C    -1.192069  -2.962116  2.848214
H    0.105269  -2.868509  4.519105
H    -0.553488  -2.924143  1.956044
H    -2.161570  -2.514196  2.621909
H    -1.345379  -4.008942  3.128387
Cd    -0.085867  0.938647  6.550632
