34
Energy: -175947.249616 eV PBE+vdW (tier 2 basis)
C    -0.585506  -0.041354  2.267469
C    -1.822912  0.076867  3.089860
O    -1.951274  -0.663622  4.115177
H    -0.762676  -0.735041  1.429197
H    0.199306  -0.488521  2.887796
H    -0.248738  0.919947  1.869381
N    -2.816746  0.961529  2.801816
C    -3.453579  1.212474  1.503348
C    -4.242610  -0.064527  1.103186
O    -4.433341  -1.026267  1.914894
H    -3.454169  1.088186  3.587651
H    -4.216444  1.977448  1.715896
C    -2.517352  1.790115  0.406877
C    -3.225852  2.526803  -0.708724
C    -3.989579  3.687036  -0.444423
C    -3.067372  2.113206  -2.050009
C    -4.576593  4.403635  -1.467444
C    -3.644615  2.819718  -3.093825
C    -4.406129  3.976533  -2.808908
O    -4.989054  4.726051  -3.745239
H    -1.888013  1.000067  -0.020266
H    -1.848243  2.499805  0.917476
H    -4.099291  4.052575  0.577837
H    -2.453981  1.240266  -2.278471
H    -5.153626  5.307201  -1.276196
H    -3.498737  2.498505  -4.125927
H    -4.812604  4.395629  -4.646988
N    -4.762995  -0.111653  -0.110490
C    -5.599170  -1.209794  -0.605831
H    -4.575251  0.675395  -0.735390
H    -5.948896  -0.948720  -1.607698
H    -6.461818  -1.357151  0.053925
H    -5.021789  -2.140692  -0.654134
Cd    -3.886586  -1.741416  3.957425
