34
Energy: -175947.693771 eV PBE+vdW (tier 2 basis)
C    -0.208297  1.458903  0.281072
C    -0.405003  0.108553  0.887772
O    -0.114623  -0.911283  0.157678
H    0.839054  1.578094  -0.026244
H    -0.489246  2.277676  0.952318
H    -0.812570  1.523464  -0.635658
N    -0.915552  0.026757  2.119852
C    -1.360802  -1.158265  2.857552
C    -2.812367  -0.998390  3.458940
O    -3.099537  -1.682313  4.429290
H    -1.064873  0.920350  2.588554
H    -1.452799  -1.976123  2.125287
C    -0.399870  -1.573719  3.999381
C    0.847093  -2.240314  3.492182
C    2.105538  -1.593162  3.506172
C    0.782625  -3.508831  2.898845
C    3.241854  -2.129863  2.907548
C    1.903697  -4.051223  2.172560
C    3.171575  -3.367029  2.232110
O    4.197949  -3.994808  1.673908
H    -0.991428  -2.245913  4.640004
H    -0.154368  -0.696918  4.613577
H    2.196072  -0.631518  4.013485
H    -0.128688  -4.109579  2.963335
H    4.196455  -1.606504  2.982436
H    1.896090  -5.090073  1.833160
H    5.040349  -3.510527  1.774922
N    -3.639844  -0.130940  2.843067
C    -5.031473  0.039447  3.273515
H    -3.368611  0.277166  1.955694
H    -5.379524  1.029027  2.962766
H    -5.077682  -0.040604  4.363666
H    -5.678228  -0.731810  2.835437
Cd    0.899033  -2.676724  0.588817
