34
Energy: -175947.888338 eV PBE+vdW (tier 2 basis)
C    0.398806  -1.182476  0.671403
C    0.401204  -0.735084  2.096836
O    1.563508  -0.705900  2.673911
H    0.803458  -2.204385  0.628892
H    1.072403  -0.550008  0.079312
H    -0.603754  -1.177776  0.232053
N    -0.754779  -0.442074  2.666067
C    -1.166826  -0.319015  4.064871
C    -2.565024  -1.043781  4.047583
O    -3.127045  -1.131551  2.953035
H    -1.629844  -0.635657  2.123968
H    -0.449680  -0.836754  4.718059
C    -1.397863  1.150319  4.535055
C    -0.147324  1.986661  4.534154
C    0.129367  2.898693  3.487876
C    0.827159  1.829193  5.529406
C    1.327931  3.599312  3.393596
C    2.122535  2.455312  5.413306
C    2.344614  3.405502  4.355180
O    3.497439  4.060164  4.392170
H    -1.823641  1.112836  5.547123
H    -2.160501  1.603190  3.887782
H    -0.630767  3.069270  2.724327
H    0.628358  1.223627  6.417288
H    1.473569  4.322360  2.589304
H    2.824087  2.440645  6.250789
H    3.586761  4.714903  3.672663
N    -3.088915  -1.486678  5.198882
C    -2.530398  -1.456233  6.545466
H    -4.020312  -1.886548  5.090376
H    -2.890712  -2.331931  7.095284
H    -2.837433  -0.555903  7.096892
H    -1.436305  -1.517709  6.521912
Cd    2.323923  0.549473  4.103181
