34
Energy: -175947.887128 eV PBE+vdW (tier 2 basis)
C    -0.330295  2.281742  0.644859
C    -0.336016  1.336607  1.807040
O    0.423266  1.593598  2.786763
H    -0.738388  3.247506  0.975204
H    -0.905595  1.924387  -0.215698
H    0.708225  2.465760  0.341599
N    -1.145384  0.262937  1.722476
C    -1.340957  -0.883036  2.629649
C    -2.174344  -0.501449  3.867479
O    -1.721944  0.241005  4.794706
H    -1.682620  0.212356  0.861878
H    -1.939652  -1.590572  2.040806
C    -0.058479  -1.668008  3.034380
C    0.688292  -2.330534  1.917538
C    0.567692  -3.726556  1.739141
C    1.542057  -1.607988  1.055165
C    1.224520  -4.375365  0.712703
C    2.220438  -2.240111  0.029035
C    2.060353  -3.634688  -0.156278
O    2.679791  -4.324584  -1.115144
H    -0.388008  -2.431637  3.753907
H    0.648773  -1.006993  3.594490
H    -0.058405  -4.307907  2.417014
H    1.707915  -0.542080  1.211610
H    1.125607  -5.448683  0.557866
H    2.890889  -1.676979  -0.621297
H    3.253742  -3.758730  -1.665520
N    -3.397818  -1.001884  3.957203
C    -4.308672  -0.761017  5.081487
H    -3.745993  -1.563973  3.185247
H    -5.008976  -1.598468  5.146986
H    -4.868062  0.170373  4.925607
H    -3.733546  -0.684388  6.008621
Cd    0.328598  0.976360  4.879477
