34
Energy: -175947.919597 eV PBE+vdW (tier 2 basis)
C    0.576435  -1.363571  0.867365
C    0.388198  -0.804464  2.240836
O    1.376456  -0.223005  2.790051
H    0.849370  -0.540724  0.191251
H    -0.317808  -1.863776  0.480401
H    1.421172  -2.064367  0.871934
N    -0.823095  -0.925399  2.812311
C    -1.293665  -0.273347  4.039307
C    -0.977055  -1.160325  5.259873
O    0.163311  -1.090254  5.836742
H    -1.521949  -1.454704  2.292827
H    -0.685502  0.635524  4.176946
C    -2.756912  0.242338  3.888267
C    -3.838274  -0.763628  3.573066
C    -4.030855  -1.241925  2.257896
C    -4.744890  -1.188634  4.571163
C    -5.044078  -2.134221  1.955407
C    -5.774930  -2.074553  4.287111
C    -5.926129  -2.566145  2.973798
O    -6.888275  -3.416372  2.602977
H    -2.722364  1.006093  3.097840
H    -2.999075  0.774199  4.818839
H    -3.421126  -0.854579  1.438419
H    -4.675758  -0.771361  5.577998
H    -5.207630  -2.488909  0.938752
H    -6.480651  -2.364493  5.066650
H    -7.484842  -3.641544  3.341347
N    -1.875834  -2.015933  5.699238
C    -1.664668  -2.929004  6.827429
H    -2.786937  -2.019896  5.229787
H    -2.544585  -3.570808  6.916605
H    -1.528196  -2.362800  7.756661
H    -0.776027  -3.546382  6.653628
Cd    1.818308  -0.048065  4.904055
