34
Energy: -175947.736691 eV PBE+vdW (tier 2 basis)
C    -0.135287  0.617867  0.966516
C    -0.542139  0.367967  2.380149
O    -0.438044  1.296177  3.234050
H    -0.694442  1.481222  0.581585
H    -0.302861  -0.244867  0.312937
H    0.928130  0.892537  0.943883
N    -1.019167  -0.874303  2.700255
C    -1.450225  -1.072063  4.068895
C    -0.298992  -1.433827  5.025564
O    0.123308  -0.531257  5.823618
H    -1.067261  -1.587165  1.978155
H    -1.612748  -0.027597  4.304211
C    -2.861956  -1.598271  4.482874
C    -3.154117  -0.757693  5.725555
C    -2.902680  -1.234556  7.029535
C    -3.336144  0.619149  5.567442
C    -2.751812  -0.384307  8.117663
C    -3.073768  1.537739  6.635368
C    -2.817493  1.010078  7.947829
O    -2.670858  1.766349  9.034284
H    -2.898115  -2.673455  4.690151
H    -3.568688  -1.383409  3.669205
H    -2.805000  -2.308768  7.194437
H    -3.641396  1.031402  4.601249
H    -2.585504  -0.777715  9.119771
H    -3.377894  2.583420  6.528554
H    -2.861703  2.709369  8.876130
N    0.257763  -2.632791  5.035048
C    -0.053871  -3.784797  4.190281
H    1.036801  -2.737909  5.688014
H    0.763058  -3.962601  3.479357
H    -0.984193  -3.622665  3.639254
H    -0.175026  -4.674826  4.818361
Cd    -0.825671  1.443564  5.530823
