34
Energy: -175947.838915 eV PBE+vdW (tier 2 basis)
C    0.616220  0.897050  1.199025
C    -0.022579  0.570882  2.507397
O    0.333567  1.194165  3.549536
H    0.206262  0.317551  0.364963
H    1.697105  0.715923  1.273778
H    0.487251  1.968812  0.996638
N    -0.982920  -0.403700  2.527155
C    -1.620636  -0.664314  3.801599
C    -0.824656  -1.635042  4.693676
O    -0.189915  -1.151226  5.689304
H    -1.219739  -0.882366  1.663067
H    -1.394504  0.291000  4.259101
C    -3.165677  -0.648096  4.033661
C    -3.265085  -0.018887  5.422712
C    -2.858034  1.312256  5.576223
C    -3.405972  -0.789844  6.592307
C    -2.382760  1.808387  6.827290
C    -3.068204  -0.304665  7.853901
C    -2.517570  0.979356  7.993414
O    -2.142190  1.528309  9.147475
H    -3.637371  -1.635934  3.989373
H    -3.628854  -0.014240  3.264455
H    -2.852382  1.991355  4.718378
H    -3.771172  -1.815228  6.514570
H    -2.220015  2.878777  6.978496
H    -3.218148  -0.931114  8.734172
H    -2.306147  0.940276  9.908850
N    -0.777448  -2.934134  4.450779
C    -1.401439  -3.676092  3.356350
H    -0.183088  -3.467295  5.088373
H    -0.635994  -4.019612  2.648887
H    -2.128311  -3.052869  2.828556
H    -1.925382  -4.549691  3.760726
Cd    -0.235211  1.062250  5.803818
