31
Energy: -609765.813778 eV PBE+vdW (tier 2 basis)
C    -1.33749  1.47031  -0.10297
C    -1.11857  0.69885  1.14341
O    -0.12114  -0.09468  1.23835
H    -1.36021  0.74258  -0.93240
H    -0.48175  2.12747  -0.31671
H    -2.27063  2.04013  -0.11295
N    -1.97775  0.77435  2.19501
C    -2.38570  2.04446  2.79468
C    -1.13624  2.59273  3.57438
O    -0.07687  1.87903  3.66517
H    -1.80672  0.04216  2.88735
H    -2.60057  2.75813  1.98612
C    -3.63512  1.87697  3.69994
C    -4.92761  1.58361  2.98628
N    -5.79510  0.57373  3.39273
C    -5.57940  2.23240  1.96557
C    -6.91928  0.60114  2.66599
N    -6.79338  1.60244  1.79258
H    -3.76798  2.79386  4.29369
H    -3.43748  1.08693  4.44047
H    -5.64459  -0.08095  4.15857
H    -5.30320  3.09425  1.37034
H    -7.77089  -0.06448  2.76971
H    -7.50713  1.86412  1.11148
N    -1.19734  3.79245  4.11126
C    -0.12045  4.46033  4.86148
H    -2.04947  4.33553  3.97840
H    0.49288  5.06345  4.17889
H    0.49970  3.71267  5.36198
H    -0.57827  5.11910  5.60615
Pb    1.38674  0.26693  2.90504
