31
Energy: -609765.479660 eV PBE+vdW (tier 2 basis)
C    0.20788  -0.75309  0.03431
C    0.07905  -0.18157  1.40103
O    1.11529  0.26854  2.00098
H    -0.61597  -0.45328  -0.62210
H    0.23365  -1.85584  0.08217
H    1.16071  -0.42904  -0.39945
N    -1.10677  -0.11563  2.05654
C    -2.06002  -1.22990  2.18170
C    -1.26742  -2.42749  2.79972
O    -0.13858  -2.22098  3.36254
H    -1.06980  0.48569  2.88015
H    -2.75120  -0.89441  2.97006
C    -2.89280  -1.49950  0.89804
C    -4.31689  -1.94466  1.10828
N    -5.12401  -2.27757  0.02185
C    -5.13635  -2.03246  2.20765
C    -6.37020  -2.54750  0.42959
N    -6.38741  -2.40582  1.75526
H    -2.37762  -2.21597  0.24062
H    -2.92647  -0.54565  0.34889
H    -4.84126  -2.29722  -0.95755
H    -4.95895  -1.84532  3.25964
H    -7.20731  -2.83040  -0.20244
H    -7.21404  -2.54383  2.33821
N    -1.79045  -3.63647  2.77640
C    -1.17214  -4.82915  3.38321
H    -2.69750  -3.75995  2.33149
H    -1.00639  -4.66248  4.45389
H    -0.21693  -5.05066  2.89273
H    -1.85136  -5.67438  3.24666
Pb    1.74224  -0.92776  3.82175
