31
Energy: -609766.237682 eV PBE+vdW (tier 2 basis)
C    2.08322  -1.04873  1.71490
C    1.08569  -1.12480  2.81861
O    1.47607  -1.38020  4.00581
H    2.70113  -1.95823  1.72462
H    2.76968  -0.21044  1.91058
H    1.63866  -0.91690  0.72268
N    -0.21369  -0.93490  2.52262
C    -1.39674  -0.96518  3.40882
C    -1.30207  0.09531  4.52772
O    -0.63679  -0.13066  5.60371
H    -0.40204  -0.70829  1.54808
H    -2.22954  -0.66816  2.76194
C    -1.74030  -2.37676  3.98634
C    -2.53869  -3.27017  3.08035
N    -2.00167  -4.23915  2.23436
C    -3.90125  -3.38892  2.94722
C    -2.98132  -4.91737  1.62054
N    -4.13724  -4.40126  2.04348
H    -2.33533  -2.23089  4.89876
H    -0.82308  -2.89001  4.30371
H    -1.01702  -4.46757  2.11986
H    -4.71182  -2.86086  3.43595
H    -2.85754  -5.73674  0.91892
H    -5.05737  -4.73274  1.74995
N    -1.95357  1.23526  4.41307
C    -2.80241  1.75006  3.32713
H    -1.86819  1.84591  5.23110
H    -2.44306  1.42176  2.34741
H    -2.75451  2.84379  3.35552
H    -3.84595  1.44462  3.47907
Pb    1.40575  -0.85478  6.19020
