31
Energy: -609766.410424 eV PBE+vdW (tier 2 basis)
C    1.60139  -0.38734  1.10434
C    0.88633  -0.65671  2.38281
O    1.55622  -0.93197  3.43304
H    2.25129  0.49123  1.23429
H    0.93601  -0.21501  0.25177
H    2.27002  -1.23235  0.88359
N    -0.45857  -0.61523  2.38471
C    -1.41010  -0.87150  3.48542
C    -1.19853  0.10186  4.66582
O    -0.30032  -0.12736  5.55619
H    -0.87965  -0.36576  1.49216
H    -2.39164  -0.64272  3.05564
C    -1.43800  -2.35599  3.96743
C    -2.11173  -3.32136  3.03593
N    -3.45207  -3.68972  3.14823
C    -1.61661  -4.07160  1.99739
C    -3.75951  -4.61781  2.23332
N    -2.65153  -4.85119  1.52595
H    -1.94214  -2.38950  4.94454
H    -0.41476  -2.70900  4.14430
H    -4.11411  -3.36419  3.85069
H    -0.61956  -4.13865  1.57980
H    -4.72519  -5.09641  2.09945
H    -2.58835  -5.52785  0.76407
N    -1.97329  1.15908  4.80750
C    -3.07734  1.67266  3.98537
H    -1.77479  1.70354  5.65283
H    -3.01951  1.30788  2.95663
H    -3.00419  2.76611  3.96456
H    -4.04020  1.39660  4.43504
Pb    1.89442  -0.60576  5.62818
