31
Energy: -609766.025327 eV PBE+vdW (tier 2 basis)
C    -2.15447  0.73641  -0.68055
C    -1.50766  0.01137  0.44350
O    -0.33791  -0.47444  0.30247
H    -3.16758  1.08408  -0.45273
H    -2.17892  0.08986  -1.56946
H    -1.52799  1.60254  -0.94537
N    -2.16032  -0.11240  1.61847
C    -1.54875  -0.71418  2.80298
C    -1.39173  -2.24915  2.61489
O    -0.20175  -2.67613  2.39033
H    -3.09896  0.27581  1.67146
H    -0.50080  -0.38445  2.79177
C    -2.03896  -0.13741  4.16953
C    -3.46944  -0.13213  4.62718
N    -3.95404  -0.96134  5.63803
C    -4.49674  0.74235  4.35789
C    -5.20521  -0.61621  5.96894
N    -5.54689  0.41040  5.18691
H    -1.70475  0.91082  4.16568
H    -1.42325  -0.62287  4.94109
H    -3.42685  -1.67951  6.13229
H    -4.54949  1.59849  3.69505
H    -5.81978  -1.07517  6.73812
H    -6.44447  0.89555  5.23366
N    -2.38228  -3.11980  2.62993
C    -3.82600  -2.92688  2.76026
H    -2.08251  -4.08602  2.46769
H    -4.32222  -3.38260  1.89398
H    -4.07847  -1.86548  2.79678
H    -4.18875  -3.42919  3.66569
Pb    1.29094  -1.95930  0.82450
