31
Energy: -609766.468763 eV PBE+vdW (tier 2 basis)
C    -1.09756  2.37842  2.11213
C    -0.62816  1.01774  2.49383
O    0.62362  0.77328  2.53950
H    -2.18732  2.48265  2.08538
H    -0.68488  2.62576  1.12201
H    -0.68087  3.11823  2.81128
N    -1.55035  0.07402  2.75839
C    -1.38919  -1.36263  3.07610
C    -0.65259  -1.57965  4.41634
O    0.61003  -1.38086  4.52932
H    -2.51115  0.40877  2.73876
H    -2.41393  -1.72362  3.22357
C    -0.74531  -2.21126  1.94963
C    -1.64612  -2.54517  0.79115
N    -1.27307  -3.50164  -0.15080
C    -2.88020  -2.10252  0.38577
C    -2.22573  -3.64047  -1.08112
N    -3.20662  -2.79513  -0.76394
H    -0.40748  -3.15712  2.40320
H    0.16040  -1.71145  1.57538
H    -0.41098  -4.04485  -0.15270
H    -3.55654  -1.36664  0.80025
H    -2.20317  -4.31716  -1.93031
H    -4.06872  -2.68775  -1.29948
N    -1.32200  -2.02198  5.46191
C    -2.75011  -2.35778  5.60060
H    -0.74529  -2.16779  6.29518
H    -3.38605  -1.52489  5.27948
H    -2.94514  -2.53941  6.66163
H    -2.99336  -3.27314  5.04649
Pb    2.25885  -0.00696  3.85906
