31
Energy: -609766.580901 eV PBE+vdW (tier 2 basis)
C    0.96031  0.89856  0.57030
C    0.47202  -0.01461  1.64012
O    1.30980  -0.71357  2.30414
H    1.51293  0.30308  -0.17294
H    1.68614  1.60648  0.99613
H    0.16525  1.45723  0.06525
N    -0.85235  -0.09387  1.85972
C    -1.61883  -0.96097  2.78409
C    -1.31487  -0.64304  4.26829
O    -0.20571  -0.96981  4.81821
H    -1.41027  0.55511  1.30897
H    -2.66568  -0.67546  2.61469
C    -1.49509  -2.47985  2.49622
C    -2.29029  -2.98546  1.32220
N    -2.51303  -4.34914  1.14397
C    -2.92225  -2.37634  0.26711
C    -3.24301  -4.56550  0.04271
N    -3.49733  -3.37304  -0.49671
H    -1.83943  -3.01300  3.39670
H    -0.43725  -2.75101  2.36372
H    -2.18958  -5.09922  1.75301
H    -3.01959  -1.33615  -0.01446
H    -3.56892  -5.53025  -0.33486
H    -4.04221  -3.23145  -1.34795
N    -2.26526  -0.05573  4.96736
C    -2.19600  0.30955  6.38890
H    -3.13521  0.17845  4.49048
H    -2.06730  1.39632  6.48139
H    -1.36224  -0.21040  6.86465
H    -3.13900  0.02262  6.86814
Pb    1.99224  -1.17655  4.38545
