31
Energy: -609765.863880 eV PBE+vdW (tier 2 basis)
C    -1.62719  3.46735  0.45888
C    -0.78898  2.49929  1.20529
O    0.22454  2.90858  1.86798
H    -0.95193  4.03087  -0.20785
H    -2.06136  4.21844  1.13494
H    -2.40828  3.00182  -0.14829
N    -1.03875  1.16306  1.17960
C    -2.35204  0.59633  1.48494
C    -2.57518  0.78903  3.02849
O    -1.62487  1.23961  3.75892
H    -0.26647  0.61639  1.56615
H    -3.11921  1.19277  0.97008
C    -2.44984  -0.88896  1.05139
C    -2.45813  -1.14276  -0.43227
N    -1.79088  -2.22471  -0.99982
C    -3.13580  -0.55001  -1.46948
C    -2.04601  -2.29631  -2.31219
N    -2.85817  -1.27930  -2.60659
H    -3.36431  -1.32328  1.48386
H    -1.62274  -1.45026  1.51331
H    -1.21374  -2.90508  -0.50776
H    -3.80375  0.30187  -1.49877
H    -1.66330  -3.04085  -3.00380
H    -3.22387  -1.08763  -3.53996
N    -3.74971  0.49302  3.54240
C    -4.13119  0.61898  4.95899
H    -4.48395  0.17506  2.91085
H    -4.85944  -0.16503  5.18988
H    -4.59295  1.59943  5.13605
H    -3.24798  0.50007  5.59115
Pb    0.27845  2.49623  4.10562
