31
Energy: -609765.216968 eV PBE+vdW (tier 2 basis)
C    0.72868  -0.86975  1.77609
C    0.25470  0.29966  2.56119
O    1.14578  1.03911  3.19570
H    -0.08369  -1.48545  1.38153
H    1.36985  -1.50076  2.40779
H    1.34249  -0.52053  0.93120
N    -1.00201  0.65408  2.66817
C    -2.18273  0.15260  1.93640
C    -3.07476  1.42246  1.81533
O    -3.01326  2.22246  2.77662
H    -1.26724  1.50746  3.19999
H    -1.85893  -0.21359  0.95638
C    -2.95348  -1.00097  2.63368
C    -3.57091  -0.81179  3.99628
N    -4.10331  0.36317  4.51500
C    -3.88772  -1.79462  4.90333
C    -4.71336  0.11778  5.67972
N    -4.59203  -1.19123  5.92182
H    -2.29855  -1.88149  2.68992
H    -3.75455  -1.27878  1.92854
H    -3.97307  1.29281  4.08645
H    -3.69752  -2.86129  4.89101
H    -5.20858  0.84607  6.31288
H    -4.97918  -1.66667  6.73639
N    -3.87747  1.58257  0.76912
C    -4.07811  0.75295  -0.42168
H    -4.43760  2.43687  0.81771
H    -5.10961  0.37972  -0.44572
H    -3.90158  1.35578  -1.32042
H    -3.39496  -0.10092  -0.43533
Pb    2.98903  1.96091  3.75215
