31
Energy: -609766.504327 eV PBE+vdW (tier 2 basis)
C    0.47352  0.43678  5.92760
C    -0.68136  0.58623  5.00264
O    -1.26745  1.71487  4.89620
H    0.18208  0.74636  6.94098
H    1.26285  1.13558  5.60721
H    0.88548  -0.57740  5.95767
N    -1.07043  -0.47150  4.26746
C    -2.02862  -0.45017  3.15017
C    -3.49138  -0.51333  3.65492
O    -3.93893  0.45194  4.36160
H    -0.53817  -1.32769  4.40817
H    -1.95922  0.55613  2.70487
C    -1.59256  -1.40601  2.01495
C    -1.33811  -2.86540  2.29713
N    -0.68530  -3.64874  1.34674
C    -1.61361  -3.71983  3.33878
C    -0.56902  -4.91043  1.77645
N    -1.12683  -4.96564  2.98642
H    -0.66447  -0.98078  1.60095
H    -2.32850  -1.31454  1.19875
H    -0.34012  -3.33192  0.44011
H    -2.10932  -3.56105  4.28891
H    -0.10580  -5.73357  1.23902
H    -1.17972  -5.81077  3.55675
N    -4.28895  -1.51277  3.33662
C    -5.70843  -1.59838  3.72594
H    -3.92784  -2.25516  2.74328
H    -6.09409  -2.56968  3.40612
H    -6.28028  -0.80105  3.23490
H    -5.80663  -1.50070  4.81262
Pb    -3.34180  2.54862  5.03107
