31
Energy: -609765.889830 eV PBE+vdW (tier 2 basis)
C    -2.01374  3.51570  0.51972
C    -1.06279  2.61234  1.21012
O    -0.06523  3.09681  1.84631
H    -2.51512  4.18090  1.23874
H    -2.75195  2.99452  -0.09600
H    -1.41882  4.18260  -0.12692
N    -1.19388  1.25967  1.16334
C    -2.44158  0.57477  1.49918
C    -2.62131  0.72031  3.05271
O    -1.68390  1.23212  3.75917
H    -0.36675  0.77777  1.52193
H    -3.27412  1.10599  1.01544
C    -2.41243  -0.91308  1.03567
C    -2.36652  -1.15125  -0.44541
N    -3.49604  -1.30778  -1.24787
C    -1.29714  -1.35917  -1.28126
C    -3.13777  -1.60067  -2.50462
N    -1.80328  -1.62735  -2.53444
H    -3.28406  -1.43516  1.45595
H    -1.54099  -1.40989  1.48781
H    -4.46783  -1.27408  -0.94599
H    -0.23204  -1.36954  -1.08436
H    -3.80731  -1.79103  -3.33808
H    -1.25102  -1.84194  -3.36570
N    -3.74471  0.31701  3.60730
C    -4.07044  0.38776  5.04177
H    -4.47729  -0.04730  3.00045
H    -3.16007  0.26278  5.63351
H    -4.77451  -0.41708  5.27449
H    -4.54054  1.35286  5.27272
Pb    0.11319  2.64443  4.07038
