31
Energy: -609765.669251 eV PBE+vdW (tier 2 basis)
C    -2.12051  3.63560  0.51409
C    -1.19009  2.72150  1.21936
O    -0.22461  3.19847  1.90716
H    -2.86672  3.12701  -0.10288
H    -1.50692  4.28490  -0.13426
H    -2.61370  4.31794  1.22186
N    -1.30768  1.36929  1.13240
C    -2.56761  0.66915  1.39653
C    -2.88839  0.88355  2.91861
O    -1.99205  1.36193  3.69767
H    -0.48945  0.87976  1.50135
H    -3.37004  1.14435  0.81258
C    -2.47245  -0.83069  1.03870
C    -2.34866  -1.15868  -0.42410
N    -2.35335  -2.48142  -0.86081
C    -2.23174  -0.40047  -1.56103
C    -2.24843  -2.53310  -2.19423
N    -2.17481  -1.27445  -2.62915
H    -3.37181  -1.33118  1.42989
H    -1.62875  -1.28146  1.58945
H    -2.42878  -3.31224  -0.27510
H    -2.17759  0.66985  -1.70744
H    -2.22935  -3.43147  -2.80414
H    -2.08797  -1.01063  -3.61087
N    -4.08784  0.57129  3.36039
C    -4.56178  0.70036  4.74794
H    -4.77452  0.23729  2.68442
H    -3.71266  0.65395  5.43354
H    -5.25092  -0.12479  4.95583
H    -5.09676  1.65134  4.87200
Pb    -0.17706  2.71903  4.13224
