31
Energy: -609766.124733 eV PBE+vdW (tier 2 basis)
C    0.22546  -0.66554  0.41182
C    -0.05322  0.20439  1.58490
O    0.88438  0.89660  2.10052
H    0.59377  -0.03163  -0.41031
H    -0.64646  -1.23039  0.06543
H    1.04136  -1.36161  0.65273
N    -1.30997  0.27268  2.07081
C    -1.74252  1.17799  3.14326
C    -1.32852  0.59307  4.51551
O    -0.15517  0.85107  4.95338
H    -1.98560  -0.36913  1.66333
H    -1.11503  2.07535  3.04577
C    -3.18732  1.73670  2.96629
C    -4.41103  0.86545  2.89100
N    -4.95422  0.39057  1.69443
C    -5.33917  0.54405  3.85535
C    -6.14382  -0.18588  1.91561
N    -6.37970  -0.10651  3.22646
H    -3.15964  2.36187  2.06085
H    -3.34305  2.44455  3.79293
H    -4.58394  0.54594  0.75807
H    -5.37615  0.78347  4.91264
H    -6.79722  -0.62504  1.16677
H    -7.22909  -0.44867  3.67968
N    -2.14965  -0.16762  5.20952
C    -1.83208  -0.79511  6.50298
H    -3.06265  -0.36692  4.80562
H    -1.15499  -0.14852  7.06792
H    -1.36063  -1.77371  6.34248
H    -2.76265  -0.93153  7.06179
Pb    1.83875  1.48865  4.05640
