31
Energy: -609766.137602 eV PBE+vdW (tier 2 basis)
C    0.75946  0.16393  -0.19491
C    0.36496  0.36847  1.22270
O    1.17516  0.92470  2.03766
H    0.98002  1.14667  -0.64078
H    -0.00619  -0.33789  -0.79601
H    1.69557  -0.41148  -0.23664
N    -0.85790  -0.01925  1.62752
C    -1.43459  0.23730  2.95671
C    -0.71668  -0.64337  4.01698
O    0.19468  -0.07276  4.72191
H    -1.45110  -0.45438  0.92260
H    -1.15640  1.26328  3.23961
C    -2.97531  0.18272  2.84391
C    -3.76737  0.57467  4.05901
N    -5.14917  0.73125  3.97464
C    -3.44909  0.85646  5.36350
C    -5.65247  1.09074  5.16137
N    -4.62871  1.16918  6.01245
H    -3.30608  -0.81084  2.50663
H    -3.23632  0.88225  2.03223
H    -5.72149  0.60791  3.13972
H    -2.50165  0.86877  5.88659
H    -6.69772  1.28341  5.38556
H    -4.71873  1.42683  6.99563
N    -0.96682  -1.92263  4.21389
C    -1.90872  -2.83308  3.54704
H    -0.39038  -2.34453  4.94726
H    -2.90743  -2.76161  3.99614
H    -1.54180  -3.85430  3.69126
H    -1.95089  -2.64108  2.47057
Pb    2.02018  1.15269  4.09623
