31
Energy: -609766.516827 eV PBE+vdW (tier 2 basis)
C    0.60366  3.98078  1.84514
C    -0.00107  2.81768  2.55170
O    0.45709  1.64336  2.33997
H    0.10487  4.93364  2.05100
H    0.58799  3.78591  0.76257
H    1.66431  4.06328  2.12644
N    -1.03042  3.04052  3.38538
C    -1.85902  2.09041  4.15978
C    -1.04093  1.30013  5.21057
O    -0.23836  0.35893  4.88177
H    -1.29036  4.01970  3.48547
H    -2.53603  2.73863  4.73041
C    -2.73244  1.14605  3.28497
C    -3.92224  1.80134  2.63333
N    -4.30333  1.53309  1.32133
C    -4.90389  2.62382  3.13249
C    -5.45489  2.15249  1.03037
N    -5.82279  2.82211  2.12394
H    -3.09384  0.32929  3.93028
H    -2.10936  0.67248  2.51533
H    -3.81959  0.92582  0.66258
H    -5.04727  3.06027  4.11349
H    -5.98595  2.11630  0.08394
H    -6.67112  3.38557  2.19578
N    -1.24062  1.59682  6.47916
C    -0.60078  0.94345  7.62923
H    -1.88882  2.35139  6.70041
H    0.21046  1.57847  8.01013
H    -0.20766  -0.03043  7.32976
H    -1.35141  0.81687  8.41720
Pb    1.28681  -0.18814  3.32610
