31
Energy: -609765.371638 eV PBE+vdW (tier 2 basis)
C    0.11167  -0.89499  -0.07794
C    0.02719  -0.53112  1.35947
O    1.06716  -0.75904  2.13691
H    0.86074  -0.25856  -0.57412
H    -0.83929  -0.78723  -0.60612
H    0.45013  -1.93612  -0.17432
N    -1.02543  0.01714  1.92053
C    -2.30819  0.46099  1.33725
C    -2.67070  1.70599  2.19478
O    -2.67455  1.53314  3.42149
H    -0.99839  0.22145  2.93244
H    -2.17075  0.69405  0.27532
C    -3.38724  -0.65622  1.54425
C    -4.81443  -0.20652  1.56463
N    -5.39910  0.42281  2.66078
C    -5.83151  -0.39859  0.66327
C    -6.70517  0.60859  2.44488
N    -6.97778  0.11302  1.23318
H    -3.17337  -1.15836  2.49880
H    -3.27171  -1.41230  0.75731
H    -4.89524  0.72195  3.49835
H    -5.83784  -0.87338  -0.31058
H    -7.41321  1.06922  3.12596
H    -7.90578  0.10216  0.81047
N    -2.97568  2.83303  1.54622
C    -3.34788  4.08292  2.21903
H    -2.91249  2.84897  0.53200
H    -3.31411  3.92431  3.30006
H    -4.35652  4.38820  1.91611
H    -2.64100  4.87455  1.94393
Pb    2.99365  -1.26799  2.90346
