31
Energy: -609765.779525 eV PBE+vdW (tier 2 basis)
C    -2.08427  3.74694  0.91000
C    -1.20003  2.77553  1.59786
O    -0.25362  3.19218  2.34820
H    -2.60070  4.39131  1.63658
H    -2.80824  3.28963  0.22971
H    -1.43344  4.42588  0.33262
N    -1.34082  1.43294  1.43039
C    -2.62419  0.74734  1.60429
C    -3.00098  0.88113  3.12310
O    -2.12747  1.29654  3.96206
H    -0.54801  0.90561  1.80259
H    -3.39252  1.27361  1.01832
C    -2.54549  -0.73068  1.16157
C    -2.38632  -0.97469  -0.31431
N    -2.47948  -2.26209  -0.83802
C    -2.14841  -0.15992  -1.39175
C    -2.31146  -2.23916  -2.16577
N    -2.11113  -0.96694  -2.51212
H    -3.46455  -1.23520  1.49715
H    -1.72658  -1.22975  1.70814
H    -2.65099  -3.11866  -0.31283
H    -1.99567  0.90844  -1.46322
H    -2.33698  -3.09588  -2.83265
H    -1.95293  -0.65071  -3.46918
N    -4.22314  0.56877  3.49779
C    -4.75658  0.62643  4.86808
H    -4.88583  0.28654  2.77565
H    -5.35457  1.53864  4.99433
H    -3.93319  0.61303  5.58508
H    -5.40048  -0.24542  5.02688
Pb    -0.30391  2.58560  4.54247
