31
Energy: -609765.217459 eV PBE+vdW (tier 2 basis)
C    0.22642  -0.85198  -0.17758
C    0.07621  -0.44768  1.24352
O    1.14006  -0.46536  2.02397
H    0.90991  -0.15637  -0.68766
H    -0.72146  -0.87101  -0.72168
H    0.68036  -1.85220  -0.22785
N    -1.05289  -0.06604  1.78854
C    -2.38911  0.14003  1.20116
C    -2.96243  1.28633  2.08420
O    -2.75995  1.17456  3.30153
H    -1.08048  0.19856  2.79212
H    -2.29804  0.40532  0.14346
C    -3.25576  -1.15327  1.39683
C    -4.74071  -0.96617  1.41187
N    -5.44532  -0.53635  2.53430
C    -5.69452  -1.25295  0.46732
C    -6.76059  -0.55874  2.29280
N    -6.92182  -0.99102  1.03828
H    -2.95858  -1.61281  2.35062
H    -3.00376  -1.87353  0.60815
H    -5.03057  -0.24308  3.41921
H    -5.60214  -1.64350  -0.53916
H    -7.54897  -0.28480  2.98647
H    -7.82690  -1.12720  0.58809
N    -3.66075  2.27058  1.50781
C    -3.89282  2.51440  0.07979
H    -3.97946  2.98576  2.16205
H    -4.30391  1.62729  -0.41727
H    -2.97818  2.84178  -0.43190
H    -4.63118  3.31642  -0.01100
Pb    3.10602  -0.56286  2.84001
