31
Energy: -609765.352763 eV PBE+vdW (tier 2 basis)
C    -0.04698  -0.79057  1.84582
C    0.14196  0.55161  1.23629
O    1.36941  1.01080  1.07903
H    0.34083  -1.56183  1.16170
H    -1.09163  -1.02257  2.06891
H    0.53215  -0.85711  2.77740
N    -0.84118  1.31998  0.83352
C    -2.28009  1.01055  0.70459
C    -2.69916  1.81792  -0.56081
O    -2.16943  2.93979  -0.70244
H    -0.63653  2.23271  0.38571
H    -2.39647  -0.06844  0.54517
C    -3.14858  1.39248  1.93506
C    -3.23571  2.81741  2.41771
N    -3.20703  3.96284  1.63101
C    -3.54754  3.24543  3.68611
C    -3.48329  5.03943  2.37447
N    -3.69662  4.61350  3.62389
H    -2.83883  0.77596  2.79037
H    -4.16655  1.05060  1.68347
H    -2.93430  3.96487  0.63478
H    -3.70337  2.69241  4.60481
H    -3.52090  6.06731  2.03012
H    -3.94723  5.21792  4.40573
N    -3.60824  1.27518  -1.36193
C    -4.15201  1.93209  -2.55811
H    -3.95073  0.33973  -1.15389
H    -3.63996  2.88639  -2.70251
H    -5.22850  2.09922  -2.43192
H    -3.98927  1.28908  -3.43068
Pb    3.49513  1.06969  0.87738
