31
Energy: -609765.688937 eV PBE+vdW (tier 2 basis)
C    -2.06812  3.71723  0.58603
C    -1.09847  2.79119  1.21887
O    -0.09600  3.25581  1.86064
H    -2.53004  4.37572  1.33649
H    -2.84099  3.22001  -0.00698
H    -1.49214  4.38970  -0.07275
N    -1.22109  1.44084  1.11234
C    -2.46573  0.73626  1.43239
C    -2.70252  0.92420  2.97296
O    -1.76486  1.38814  3.71107
H    -0.38414  0.94446  1.42612
H    -3.29811  1.22200  0.90145
C    -2.39283  -0.75703  1.04338
C    -2.35821  -1.05969  -0.42972
N    -2.42659  -2.37291  -0.88937
C    -2.27340  -0.28349  -1.55726
C    -2.38980  -2.40176  -2.22706
N    -2.29772  -1.13775  -2.64247
H    -3.26733  -1.26433  1.47943
H    -1.51782  -1.21706  1.53446
H    -2.49893  -3.21237  -0.31576
H    -2.19128  0.78723  -1.68653
H    -2.43067  -3.28833  -2.85278
H    -2.25251  -0.85736  -3.62245
N    -3.87625  0.60585  3.47537
C    -4.26830  0.71383  4.89035
H    -4.60118  0.28535  2.83388
H    -4.99758  -0.07327  5.10666
H    -4.73275  1.69130  5.07621
H    -3.38960  0.58785  5.52754
Pb    0.07397  2.73539  4.07046
