31
Energy: -609766.121514 eV PBE+vdW (tier 2 basis)
C    -0.11849  0.81196  -0.00230
C    -0.16253  0.50241  1.45011
O    0.91781  0.46239  2.12974
H    0.54408  0.09582  -0.50980
H    0.33876  1.80480  -0.13605
H    -1.10267  0.80315  -0.48260
N    -1.35027  0.28249  2.04254
C    -1.53756  0.09057  3.48837
C    -0.90182  -1.25534  3.92795
O    0.21779  -1.19710  4.55491
H    -2.17597  0.34764  1.44904
H    -0.92375  0.84664  3.99842
C    -3.02371  0.36238  3.87070
C    -3.30724  0.66570  5.31573
N    -3.99992  -0.18790  6.17204
C    -3.10782  1.81800  6.03762
C    -4.21719  0.40833  7.35156
N    -3.67034  1.62417  7.27990
H    -3.67961  -0.44979  3.53376
H    -3.32822  1.24901  3.29329
H    -4.36307  -1.11136  5.94604
H    -2.65124  2.76105  5.76073
H    -4.74577  -0.01449  8.20065
H    -3.69928  2.31281  8.03310
N    -1.42721  -2.43887  3.67118
C    -2.61808  -2.82390  2.90241
H    -0.87392  -3.21910  4.03692
H    -2.88995  -2.05773  2.17271
H    -3.46350  -3.03676  3.56939
H    -2.38182  -3.74382  2.35540
Pb    2.16851  -0.25419  3.84955
