31
Energy: -609765.844141 eV PBE+vdW (tier 2 basis)
C    -1.79425  3.43278  0.90149
C    -0.85093  2.42768  1.44818
O    0.17672  2.80673  2.10599
H    -1.20293  4.13044  0.28365
H    -2.22058  4.05021  1.70592
H    -2.59360  3.00884  0.28712
N    -1.02461  1.09426  1.24345
C    -2.28924  0.41149  1.53083
C    -2.49532  0.48747  3.08548
O    -1.53127  0.86253  3.83977
H    -0.20215  0.54627  1.50541
H    -3.11132  0.96637  1.05441
C    -2.27686  -1.04830  1.02572
C    -2.27981  -1.23496  -0.46687
N    -2.40601  -2.50446  -1.02623
C    -2.18780  -0.37536  -1.53183
C    -2.39607  -2.42865  -2.36257
N    -2.26477  -1.13987  -2.67974
H    -3.16090  -1.55824  1.43880
H    -1.41017  -1.57509  1.46129
H    -2.49713  -3.38363  -0.51852
H    -2.06823  0.69862  -1.57878
H    -2.48220  -3.26077  -3.05492
H    -2.22868  -0.78469  -3.63565
N    -3.67122  0.16944  3.58295
C    -4.03811  0.18047  5.00872
H    -4.41627  -0.07689  2.93184
H    -3.15525  -0.02553  5.61888
H    -4.79213  -0.59518  5.17610
H    -4.46422  1.15601  5.27802
Pb    0.36033  2.11403  4.26708
