31
Energy: -609765.387430 eV PBE+vdW (tier 2 basis)
C    -0.93620  0.51654  -0.65381
C    -0.55539  0.13131  0.72385
O    0.61862  -0.31473  0.96774
H    -0.24926  1.27173  -1.06188
H    -1.97697  0.83843  -0.75398
H    -0.79149  -0.37850  -1.28550
N    -1.44124  0.18952  1.75682
C    -2.17290  1.40956  2.09002
C    -1.15483  2.34880  2.80467
O    0.00003  1.89291  3.14644
H    -1.10484  -0.30544  2.58467
H    -2.44026  1.91153  1.14834
C    -3.53107  1.12207  2.80760
C    -3.59703  0.12114  3.92477
N    -3.72203  0.45403  5.27363
C    -3.75233  -1.24472  3.87555
C    -3.94932  -0.64309  6.00735
N    -3.95848  -1.68066  5.16665
H    -4.20936  0.76467  2.02062
H    -3.96204  2.07204  3.14932
H    -3.72453  1.39264  5.66808
H    -3.78355  -1.92334  3.03091
H    -4.10764  -0.67994  7.08109
H    -4.13598  -2.64627  5.44707
N    -1.43762  3.61772  3.02499
C    -2.62133  4.40513  2.64973
H    -0.69093  4.14186  3.48934
H    -3.27715  4.55329  3.51760
H    -3.17644  3.93109  1.83506
H    -2.27919  5.38852  2.30750
Pb    1.89513  0.70705  2.54825
