31
Energy: -609765.487590 eV PBE+vdW (tier 2 basis)
C    -0.26618  0.18857  0.74881
C    -0.47764  0.06240  2.21475
O    0.45586  0.41741  3.01617
H    0.53269  0.91884  0.57219
H    -1.16900  0.49548  0.21218
H    0.08431  -0.77152  0.33158
N    -1.62779  -0.40561  2.76300
C    -2.32612  -1.63733  2.36447
C    -1.32250  -2.81558  2.59480
O    -0.19230  -2.60269  3.15092
H    -1.67550  -0.22644  3.76699
H    -3.11373  -1.76337  3.12297
C    -3.01478  -1.55625  0.96124
C    -4.26495  -2.36112  0.75172
N    -5.50718  -2.03968  1.30101
C    -4.50749  -3.41328  -0.09932
C    -6.45554  -2.84890  0.81153
N    -5.85732  -3.68979  -0.03483
H    -2.31144  -1.82997  0.16550
H    -3.26685  -0.49730  0.80242
H    -5.71316  -1.26823  1.93374
H    -3.84733  -3.94683  -0.77408
H    -7.51403  -2.82130  1.05473
H    -6.34415  -4.41015  -0.57067
N    -1.67579  -4.03629  2.24610
C    -0.85517  -5.24106  2.46267
H    -2.59859  -4.16711  1.83664
H    -0.69372  -5.39848  3.53591
H    0.11087  -5.13626  1.95601
H    -1.38968  -6.09968  2.04864
Pb    1.41965  -1.26953  4.17378
