31
Energy: -609765.954146 eV PBE+vdW (tier 2 basis)
C    -1.27811  -0.71795  -0.48360
C    -1.01115  -0.22139  0.89127
O    0.17029  0.11334  1.23197
H    -0.62356  -1.57465  -0.69879
H    -1.00100  0.07077  -1.20055
H    -2.32196  -1.00324  -0.65161
N    -2.03168  -0.11012  1.76757
C    -1.87174  0.47233  3.09960
C    -1.06580  -0.48628  4.02085
O    0.15195  -0.15550  4.25884
H    -2.94973  -0.41402  1.45219
H    -1.16145  1.30084  2.97367
C    -3.12600  1.22214  3.65204
C    -4.48452  0.60222  3.81408
N    -5.04639  0.29931  5.05384
C    -5.49716  0.40467  2.90398
C    -6.32805  -0.06314  4.91244
N    -6.60631  -0.01395  3.60769
H    -3.25187  2.08565  2.98197
H    -2.81907  1.65861  4.61398
H    -4.59709  0.40925  5.96167
H    -5.54021  0.57943  1.83500
H    -7.01496  -0.33218  5.70983
H    -7.52294  -0.21955  3.20677
N    -1.52531  -1.61165  4.53226
C    -2.81003  -2.28820  4.35864
H    -0.83781  -2.11633  5.10011
H    -3.32523  -2.36287  5.32438
H    -2.62596  -3.30506  3.98932
H    -3.43885  -1.75790  3.64090
Pb    1.79268  0.41442  2.78368
