31
Energy: -609765.543622 eV PBE+vdW (tier 2 basis)
C    -1.17148  3.53990  1.57551
C    -0.63575  2.31016  2.20198
O    -0.11064  2.35801  3.36656
H    -0.32068  4.23873  1.47717
H    -1.88882  4.04511  2.23672
H    -1.59604  3.38367  0.57988
N    -0.63641  1.11301  1.55605
C    -1.83285  0.51354  0.95682
C    -2.80454  0.23208  2.14154
O    -2.32231  0.12314  3.32765
H    -0.02707  0.42670  2.00621
H    -2.28976  1.23651  0.26874
C    -1.37310  -0.77074  0.18693
C    -2.26520  -1.37493  -0.85305
N    -2.33590  -0.92251  -2.17118
C    -3.02222  -2.52023  -0.82191
C    -3.09205  -1.74770  -2.90649
N    -3.51891  -2.71702  -2.09283
H    -1.13615  -1.55853  0.91647
H    -0.41827  -0.50410  -0.29259
H    -1.83656  -0.12842  -2.56884
H    -3.21489  -3.22170  -0.01853
H    -3.30715  -1.65227  -3.96686
H    -4.09942  -3.50260  -2.39036
N    -4.10551  0.11205  1.96245
C    -4.91645  0.26041  0.75048
H    -4.63215  -0.07432  2.82078
H    -5.40974  -0.69117  0.51896
H    -4.30453  0.56961  -0.09971
H    -5.68778  1.01907  0.93231
Pb    -0.92667  0.97355  4.97714
