31
Energy: -609765.584206 eV PBE+vdW (tier 2 basis)
C    -1.01733  2.14986  -0.70881
C    -0.38909  1.48477  0.45601
O    0.88125  1.33234  0.49886
H    -0.61742  3.16352  -0.85337
H    -2.11049  2.16129  -0.67857
H    -0.70483  1.58074  -1.60243
N    -1.12260  0.97383  1.47766
C    -2.15139  1.72736  2.19029
C    -1.38265  2.67838  3.17245
O    -0.10545  2.71559  3.16485
H    -0.58504  0.34211  2.07513
H    -2.66694  2.36218  1.45482
C    -3.15544  0.74293  2.85353
C    -4.54723  1.24421  3.12568
N    -5.38828  0.56960  4.00805
C    -5.32552  2.23083  2.56781
C    -6.61513  1.10506  3.98910
N    -6.58596  2.11857  3.12261
H    -2.72321  0.34835  3.78629
H    -3.24001  -0.11451  2.16631
H    -5.14109  -0.24013  4.57659
H    -5.11381  2.97463  1.80921
H    -7.47028  0.77703  4.57333
H    -7.38892  2.70846  2.90001
N    -2.06939  3.44860  3.99149
C    -1.47526  4.40886  4.93793
H    -3.08565  3.39282  3.96038
H    -0.98502  5.22400  4.39153
H    -0.74413  3.90236  5.57763
H    -2.27616  4.82142  5.55671
Pb    1.98546  2.21293  2.27094
