31
Energy: -609766.687646 eV PBE+vdW (tier 2 basis)
C    -1.43976  -2.69072  1.48386
C    -1.26275  -1.38289  2.17101
O    -0.35838  -0.57238  1.77702
H    -0.51722  -3.28207  1.58384
H    -1.57160  -2.50997  0.40655
H    -2.28408  -3.27682  1.86192
N    -2.08409  -1.06544  3.18749
C    -2.10310  0.20537  3.93372
C    -0.90935  0.24401  4.93037
O    0.24708  0.56130  4.48463
H    -2.75344  -1.78170  3.46520
H    -1.89000  1.01280  3.21682
C    -3.48075  0.45721  4.58011
C    -4.61904  0.74953  3.63865
N    -5.90337  0.97866  4.12710
C    -4.71539  0.89833  2.27846
C    -6.74246  1.25673  3.12215
N    -6.03119  1.20983  1.99497
H    -3.37318  1.31984  5.25760
H    -3.76635  -0.40217  5.21277
H    -6.19336  0.95703  5.10426
H    -3.97653  0.81803  1.49208
H    -7.80214  1.47812  3.21088
H    -6.41604  1.38380  1.06603
N    -1.07656  -0.04935  6.20215
C    -0.01686  -0.06289  7.22413
H    -2.00845  -0.30165  6.52448
H    0.35503  -1.08729  7.35952
H    -0.44325  0.29144  8.16824
H    0.80049  0.59262  6.91483
Pb    1.39009  0.62565  2.53718
