31
Energy: -609766.591824 eV PBE+vdW (tier 2 basis)
C    -0.54416  -3.82998  2.09200
C    -0.69424  -2.38826  2.42063
O    0.20218  -1.55410  2.05468
H    -1.36680  -4.45341  2.45801
H    0.40804  -4.20394  2.49495
H    -0.47621  -3.92989  0.99700
N    -1.79248  -1.97925  3.07809
C    -2.19033  -0.58376  3.34853
C    -1.36477  -0.04929  4.54708
O    -0.19197  0.40978  4.32335
H    -2.44120  -2.71321  3.36005
H    -1.87650  0.01981  2.48366
C    -3.73292  -0.54568  3.44627
C    -4.39599  0.80385  3.43408
N    -5.75468  0.91812  3.14808
C    -3.96455  2.08573  3.66462
C    -6.13712  2.19931  3.19886
N    -5.05699  2.91740  3.51024
H    -4.08321  -1.11978  4.32317
H    -4.10280  -1.10549  2.57219
H    -6.39213  0.15401  2.92496
H    -2.99128  2.48179  3.92351
H    -7.13819  2.57998  3.01737
H    -5.05369  3.93248  3.61447
N    -1.85661  -0.08787  5.76845
C    -1.14945  0.31464  6.99444
H    -2.79426  -0.46450  5.89433
H    -0.76459  -0.57668  7.50791
H    -1.85685  0.82689  7.65512
H    -0.32354  0.98242  6.73967
Pb    1.48433  0.11091  2.80220
