31
Energy: -609766.629001 eV PBE+vdW (tier 2 basis)
C    0.65495  1.07722  0.48465
C    0.30176  0.11093  1.56176
O    1.23151  -0.49038  2.19813
H    1.22939  1.90855  0.92103
H    -0.21119  1.48502  -0.04717
H    1.32810  0.58392  -0.23177
N    -0.99821  -0.11113  1.82140
C    -1.63260  -1.03340  2.78793
C    -1.26594  -0.69318  4.25222
O    -0.12907  -1.00124  4.75385
H    -1.64456  0.44513  1.26530
H    -2.70671  -0.83424  2.67940
C    -1.39559  -2.54358  2.46894
C    -2.15398  -3.07950  1.28948
N    -3.39355  -3.70994  1.39425
C    -1.82476  -3.14860  -0.04206
C    -3.79840  -4.14569  0.19467
N    -2.85395  -3.80345  -0.68458
H    -1.66363  -3.12651  3.36261
H    -0.32692  -2.72361  2.30033
H    -3.91590  -3.88375  2.25130
H    -0.94147  -2.81868  -0.57484
H    -4.71707  -4.68387  -0.01957
H    -2.89098  -4.02150  -1.68118
N    -2.19227  -0.11575  4.99156
C    -2.05839  0.26037  6.40598
H    -3.08329  0.11112  4.55181
H    -1.24196  -0.30329  6.86260
H    -3.00078  0.03225  6.91600
H    -1.86450  1.33863  6.48470
Pb    2.05397  -1.02386  4.21228
