31
Energy: -609766.137180 eV PBE+vdW (tier 2 basis)
C    0.53172  0.56102  -0.32633
C    0.18678  0.76868  1.10379
O    0.97210  1.43261  1.86015
H    -0.20025  -0.04424  -0.87156
H    1.52446  0.09442  -0.40136
H    0.61524  1.54671  -0.81095
N    -0.96755  0.26879  1.58051
C    -1.50428  0.50466  2.93017
C    -0.64879  -0.26557  3.97372
O    0.23527  0.41462  4.61295
H    -1.54247  -0.25002  0.91830
H    -1.32136  1.56178  3.17303
C    -3.03459  0.28899  2.89577
C    -3.80465  0.62874  4.14043
N    -5.19755  0.65046  4.11890
C    -3.45628  0.96463  5.42432
C    -5.67884  0.98255  5.32249
N    -4.62999  1.17512  6.12332
H    -3.27598  -0.74177  2.59619
H    -3.40517  0.93638  2.08350
H    -5.79293  0.45608  3.31413
H    -2.49206  1.07776  5.90275
H    -6.72652  1.07843  5.59281
H    -4.69998  1.44230  7.10558
N    -0.75924  -1.55609  4.21914
C    -1.63648  -2.57666  3.62816
H    -0.10638  -1.89525  4.93099
H    -1.74280  -2.43152  2.54866
H    -2.61761  -2.58355  4.11963
H    -1.16678  -3.55196  3.79050
Pb    1.88897  1.80489  3.86630
