31
Energy: -609765.679426 eV PBE+vdW (tier 2 basis)
C    -2.13294  3.76754  0.71848
C    -1.22507  2.83175  1.42484
O    -0.28166  3.28668  2.15666
H    -2.65038  4.42643  1.43106
H    -2.85736  3.27851  0.06113
H    -1.49936  4.43778  0.11227
N    -1.34011  1.48279  1.29341
C    -2.60773  0.77628  1.49737
C    -2.97505  0.94435  3.01486
O    -2.10336  1.39796  3.83559
H    -0.53385  0.98133  1.67247
H    -3.39174  1.26999  0.90396
C    -2.50181  -0.71173  1.09609
C    -2.35495  -0.99572  -0.37382
N    -2.40663  -2.30172  -0.85542
C    -2.17021  -0.20673  -1.48054
C    -2.26509  -2.31428  -2.18640
N    -2.12170  -1.04678  -2.57588
H    -3.40552  -1.22600  1.45745
H    -1.66595  -1.17673  1.64681
H    -2.53389  -3.14726  -0.30048
H    -2.06338  0.86425  -1.58829
H    -2.27058  -3.19187  -2.82593
H    -1.99708  -0.75466  -3.54556
N    -4.18785  0.61980  3.40896
C    -4.70671  0.70651  4.78370
H    -4.85276  0.30764  2.70153
H    -3.87891  0.65384  5.49435
H    -5.39049  -0.13283  4.94873
H    -5.25871  1.64684  4.91443
Pb    -0.30114  2.73800  4.36617
