31
Energy: -609765.281227 eV PBE+vdW (tier 2 basis)
C    0.32739  -0.98838  0.81137
C    -0.02054  -0.24435  2.04911
O    0.81635  -0.30329  3.07097
H    1.28040  -0.61128  0.41148
H    -0.43587  -0.90049  0.03371
H    0.47274  -2.05219  1.04869
N    -1.09901  0.47432  2.20768
C    -2.18673  0.84544  1.28711
C    -2.62545  2.21872  1.90444
O    -2.46219  2.34350  3.12501
H    -1.28004  1.01710  3.09387
H    -1.80993  0.94419  0.26115
C    -3.33362  -0.21733  1.39265
C    -4.63857  0.11217  0.73510
N    -5.00471  -0.29719  -0.54568
C    -5.74184  0.75654  1.23899
C    -6.26575  0.06866  -0.81041
N    -6.71794  0.71536  0.26752
H    -3.53635  -0.37248  2.46142
H    -2.96036  -1.17672  1.00556
H    -4.43986  -0.84665  -1.18983
H    -5.91094  1.21426  2.20647
H    -6.81784  -0.13203  -1.72301
H    -7.66092  1.09432  0.35640
N    -3.15488  3.12812  1.08352
C    -3.59003  4.45908  1.52670
H    -3.15239  2.94470  0.08447
H    -2.86938  5.22034  1.20313
H    -3.65553  4.46313  2.61770
H    -4.56984  4.68842  1.09376
Pb    2.39520  -0.49694  4.47540
