31
Energy: -609766.432331 eV PBE+vdW (tier 2 basis)
C    -0.74381  2.08166  2.77387
C    -0.78266  0.59361  2.72334
O    -0.64023  -0.00173  1.60418
H    -0.96106  2.49805  3.76320
H    -1.45681  2.48387  2.03972
H    0.25205  2.42485  2.45386
N    -0.98101  -0.08154  3.87021
C    -1.08993  -1.53677  4.10222
C    0.18848  -2.28460  3.66510
O    0.36389  -2.62698  2.43851
H    -1.05973  0.50077  4.70139
H    -1.16062  -1.63428  5.19117
C    -2.37001  -2.18345  3.48538
C    -3.64880  -1.89774  4.21821
N    -4.19796  -2.75977  5.16685
C    -4.54914  -0.86694  4.10252
C    -5.37169  -2.28647  5.60391
N    -5.58967  -1.13367  4.96697
H    -2.21770  -3.27192  3.44277
H    -2.48884  -1.85522  2.44557
H    -3.81729  -3.65654  5.46450
H    -4.55241  0.00736  3.46337
H    -6.02608  -2.75698  6.33181
H    -6.42129  -0.55546  5.09451
N    1.09848  -2.63082  4.55378
C    1.18007  -2.40614  6.00330
H    1.87747  -3.16544  4.15655
H    0.53514  -1.58376  6.32282
H    2.21603  -2.14473  6.24887
H    0.91644  -3.32720  6.53949
Pb    0.31169  -1.65002  0.41506
