31
Energy: -609765.477156 eV PBE+vdW (tier 2 basis)
C    -0.70309  0.36607  -0.40687
C    -0.68370  -0.24635  0.94101
O    0.27912  -1.01283  1.28689
H    0.21535  0.93958  -0.59737
H    -1.59131  0.97215  -0.60832
H    -0.68200  -0.46504  -1.13477
N    -1.69978  -0.05688  1.83032
C    -2.14532  1.27849  2.22612
C    -1.06750  1.82821  3.20981
O    -0.13943  1.04337  3.63756
H    -1.63762  -0.69732  2.62394
H    -2.10551  1.92664  1.33805
C    -3.62941  1.31092  2.70670
C    -4.13345  0.26825  3.66310
N    -4.90969  -0.81558  3.25107
C    -4.14734  0.21851  5.03693
C    -5.38035  -1.48461  4.30993
N    -4.91393  -0.86829  5.39973
H    -4.24674  1.26750  1.79854
H    -3.83388  2.29582  3.14474
H    -5.15697  -1.04691  2.28974
H    -3.71896  0.88313  5.77764
H    -6.02684  -2.35701  4.28752
H    -5.13419  -1.14861  6.35633
N    -1.06084  3.09329  3.57801
C    -1.93025  4.20741  3.17209
H    -0.30242  3.34129  4.21931
H    -2.66916  4.42276  3.95519
H    -2.43506  3.99750  2.22465
H    -1.30133  5.09515  3.03886
Pb    1.47909  -0.53174  3.16127
