31
Energy: -609765.624676 eV PBE+vdW (tier 2 basis)
C    -2.10739  3.16340  1.01390
C    -1.13563  2.17925  1.54525
O    -0.25160  2.53988  2.39129
H    -2.76387  2.76239  0.23669
H    -1.52472  3.99852  0.58805
H    -2.69843  3.60973  1.82721
N    -1.12540  0.88123  1.12232
C    -2.31939  0.02998  1.16398
C    -2.62239  -0.23199  2.67424
O    -1.73776  0.07219  3.55685
H    -0.29287  0.38677  1.45079
H    -3.16622  0.58345  0.73499
C    -2.09657  -1.28826  0.36368
C    -2.19351  -1.19009  -1.13050
N    -1.15676  -0.80594  -1.97896
C    -3.23046  -1.53965  -1.96092
C    -1.53645  -0.91786  -3.25888
N    -2.79702  -1.35741  -3.25563
H    -2.84313  -2.02576  0.68324
H    -1.12660  -1.72478  0.65074
H    -0.21947  -0.52323  -1.70321
H    -4.21858  -1.92606  -1.74038
H    -0.93042  -0.70001  -4.13305
H    -3.34230  -1.54930  -4.09725
N    -3.76972  -0.74900  3.06198
C    -4.94271  -1.14194  2.27253
H    -3.84896  -0.89630  4.07224
H    -4.97904  -2.23468  2.16773
H    -4.93434  -0.66665  1.28750
H    -5.84204  -0.81556  2.80742
Pb    -0.14223  1.48470  4.41817
