31
Energy: -609765.556906 eV PBE+vdW (tier 2 basis)
C    -2.19664  4.26700  0.85269
C    -1.27570  3.11072  0.94185
O    -0.04268  3.29017  1.23244
H    -3.21425  4.00467  0.54866
H    -1.77566  4.95059  0.09362
H    -2.20468  4.84424  1.78839
N    -1.69024  1.84116  0.67559
C    -2.84726  1.24987  1.34545
C    -2.33692  0.73529  2.73381
O    -1.13648  0.98407  3.10740
H    -0.90854  1.19165  0.57241
H    -3.54199  2.06952  1.58730
C    -3.65897  0.26968  0.45103
C    -2.95087  -0.83642  -0.27943
N    -2.75587  -0.81139  -1.65999
C    -2.52863  -2.08182  0.12097
C    -2.25184  -1.97611  -2.08401
N    -2.10205  -2.75129  -1.00637
H    -4.18018  0.89303  -0.28900
H    -4.46771  -0.17465  1.04930
H    -3.01097  -0.05138  -2.28949
H    -2.53627  -2.55817  1.09379
H    -2.01733  -2.24290  -3.11035
H    -1.75534  -3.71106  -1.03351
N    -3.17520  0.10222  3.52823
C    -2.88838  -0.34570  4.90105
H    -4.13457  -0.02475  3.20859
H    -1.83575  -0.62661  4.98743
H    -3.52314  -1.20915  5.12279
H    -3.12042  0.45825  5.61258
Pb    0.80652  2.24226  3.05882
