31
Energy: -609765.405163 eV PBE+vdW (tier 2 basis)
C    -0.23230  0.13373  0.52520
C    -0.47964  0.22315  1.99048
O    0.38551  0.80785  2.72638
H    -1.14337  0.19482  -0.07708
H    0.28362  -0.81136  0.28301
H    0.44915  0.94494  0.23943
N    -1.60920  -0.24749  2.59485
C    -2.13059  -1.62529  2.46679
C    -1.02553  -2.58294  3.01983
O    0.16108  -2.13430  3.21901
H    -1.67035  0.09106  3.55795
H    -2.97060  -1.67559  3.17588
C    -2.67732  -2.01877  1.06623
C    -4.03465  -1.48126  0.71728
N    -4.39219  -0.13538  0.65046
C    -5.14828  -2.17339  0.30985
C    -5.65837  -0.01169  0.22611
N    -6.12230  -1.24443  0.01569
H    -2.76003  -3.11119  1.02107
H    -1.95234  -1.76383  0.28330
H    -3.80889  0.66199  0.88952
H    -5.31707  -3.23683  0.18581
H    -6.20295  0.91665  0.08343
H    -7.06222  -1.45672  -0.32209
N    -1.30062  -3.83709  3.31608
C    -2.57162  -4.57033  3.26829
H    -0.49777  -4.37490  3.65370
H    -2.60192  -5.22275  2.38525
H    -3.42568  -3.88673  3.26742
H    -2.63402  -5.19972  4.16358
Pb    1.68150  -0.57172  3.97891
