31
Energy: -609765.234763 eV PBE+vdW (tier 2 basis)
C    0.06219  -0.13685  -0.32393
C    -0.03912  -0.10410  1.15877
O    1.05262  -0.34063  1.86632
H    0.79211  0.61493  -0.65962
H    -0.88894  0.05499  -0.82742
H    0.43679  -1.12001  -0.64475
N    -1.13841  0.14015  1.82259
C    -2.43867  0.64506  1.34814
C    -2.92259  1.46817  2.59315
O    -2.38958  1.19215  3.68154
H    -1.14220  0.25470  2.87165
H    -2.27066  1.31423  0.49409
C    -3.44167  -0.44307  0.88723
C    -4.14913  -1.28950  1.91093
N    -5.10562  -2.21417  1.49358
C    -4.13157  -1.38027  3.28057
C    -5.64805  -2.83683  2.54626
N    -5.06224  -2.33834  3.63584
H    -2.92919  -1.10370  0.16938
H    -4.21018  0.08184  0.29691
H    -5.38192  -2.40044  0.53077
H    -3.56131  -0.83255  4.02043
H    -6.41912  -3.60000  2.51597
H    -5.28634  -2.62215  4.58886
N    -3.87321  2.37699  2.39228
C    -4.42900  3.23056  3.45002
H    -4.19522  2.55075  1.44324
H    -3.98499  2.94343  4.40607
H    -5.51745  3.10676  3.49075
H    -4.19594  4.28079  3.23745
Pb    3.07531  -0.49648  2.50645
