31
Energy: -609766.076283 eV PBE+vdW (tier 2 basis)
C    0.18832  -0.25790  0.13354
C    -0.16772  0.47915  1.37544
O    0.31093  1.64698  1.58008
H    -0.15137  0.33854  -0.72856
H    -0.25352  -1.25797  0.07295
H    1.28085  -0.33298  0.04204
N    -1.01397  -0.08670  2.25139
C    -1.67246  0.55937  3.39408
C    -0.74497  0.62152  4.63255
O    0.44734  1.05325  4.49331
H    -1.34836  -1.01772  2.00753
H    -1.80543  1.62206  3.12479
C    -3.11503  -0.00654  3.56449
C    -3.38035  -1.48134  3.43201
N    -3.01559  -2.49237  4.32605
C    -4.18171  -2.10017  2.50119
C    -3.56889  -3.65817  3.96153
N    -4.27618  -3.42804  2.85380
H    -3.72342  0.46946  2.78337
H    -3.55330  0.37623  4.49990
H    -2.43084  -2.40270  5.15295
H    -4.71541  -1.69385  1.64873
H    -3.46008  -4.61072  4.47224
H    -4.82192  -4.13681  2.36008
N    -1.19100  0.29852  5.83397
C    -0.41410  0.43995  7.07943
H    -2.17784  0.07678  5.93684
H    -0.42895  1.48538  7.41543
H    0.61798  0.12070  6.90929
H    -0.87483  -0.18732  7.84803
Pb    1.58633  2.54314  3.17865
