31
Energy: -609765.885551 eV PBE+vdW (tier 2 basis)
C    -2.25654  3.73312  0.79035
C    -1.33751  2.82512  1.51810
O    -0.42708  3.30813  2.27332
H    -2.81107  4.37502  1.49059
H    -2.94965  3.22256  0.11582
H    -1.62976  4.42355  0.19987
N    -1.40721  1.47342  1.38308
C    -2.65730  0.72790  1.55404
C    -3.06836  0.88308  3.06147
O    -2.23247  1.36265  3.90448
H    -0.59556  0.99682  1.78219
H    -3.44060  1.19794  0.94069
C    -2.49566  -0.75587  1.15532
C    -2.28914  -1.03201  -0.30887
N    -2.26409  -2.33862  -0.79126
C    -2.10585  -0.23413  -1.40937
C    -2.07886  -2.34320  -2.11688
N    -1.98241  -1.06998  -2.50211
H    -3.39671  -1.29614  1.48464
H    -1.66631  -1.19827  1.73405
H    -2.37036  -3.18969  -0.24044
H    -2.04340  0.84057  -1.51394
H    -2.02052  -3.21951  -2.75575
H    -1.83931  -0.77141  -3.46722
N    -4.27993  0.52104  3.42539
C    -4.83312  0.59134  4.78765
H    -4.91766  0.18934  2.70203
H    -4.02295  0.53458  5.51826
H    -5.51674  -0.25264  4.92662
H    -5.39255  1.52769  4.91504
Pb    -0.48733  2.75759  4.48186
