31
Energy: -609766.588695 eV PBE+vdW (tier 2 basis)
C    0.44044  -3.41068  1.33976
C    0.05322  -2.06795  1.84610
O    0.92837  -1.14008  1.92398
H    0.82334  -3.29474  0.31315
H    -0.38173  -4.13419  1.33466
H    1.27471  -3.80522  1.93708
N    -1.22661  -1.84326  2.18838
C    -1.82793  -0.54622  2.55574
C    -1.44985  -0.21315  4.02206
O    -0.31810  0.33782  4.24982
H    -1.85093  -2.64647  2.12416
H    -1.33840  0.22647  1.94394
C    -3.32645  -0.60227  2.18046
C    -4.09951  0.68680  2.21182
N    -5.36195  0.76435  1.62757
C    -3.85514  1.93902  2.71590
C    -5.86500  1.99670  1.76370
N    -4.95758  2.71876  2.42261
H    -3.85199  -1.36021  2.78924
H    -3.36385  -0.98786  1.14851
H    -5.85580  0.00988  1.15124
H    -3.00746  2.34680  3.25094
H    -6.82968  2.34174  1.40272
H    -5.07395  3.70316  2.66486
N    -2.27011  -0.51053  5.00848
C    -1.99851  -0.31688  6.44139
H    -3.15919  -0.94880  4.77572
H    -1.22365  0.44233  6.56954
H    -1.66905  -1.26528  6.88664
H    -2.92310  0.00364  6.93273
Pb    1.75540  0.41031  3.29711
