31
Energy: -609765.544219 eV PBE+vdW (tier 2 basis)
C    -0.20361  0.29898  0.20564
C    -0.21454  0.22640  1.68953
O    0.84644  0.53902  2.33156
H    -1.19728  0.42532  -0.23019
H    0.28414  -0.59254  -0.22182
H    0.43218  1.14982  -0.07970
N    -1.32052  -0.09313  2.41592
C    -2.13954  -1.31294  2.28025
C    -1.25767  -2.49214  2.80916
O    0.01154  -2.33220  2.91320
H    -1.19429  0.15665  3.39943
H    -2.97096  -1.18308  2.98985
C    -2.74373  -1.60714  0.88996
C    -3.77512  -0.62166  0.41270
N    -4.55731  -0.88552  -0.70998
C    -4.19630  0.60179  0.87029
C    -5.41463  0.11931  -0.92783
N    -5.20385  1.02681  0.02651
H    -3.22415  -2.59471  0.95407
H    -1.95120  -1.72470  0.13673
H    -4.51179  -1.71659  -1.29831
H    -3.87508  1.20217  1.71156
H    -6.14403  0.18031  -1.73022
H    -5.72205  1.90185  0.11213
N    -1.79889  -3.63754  3.17146
C    -3.20661  -4.05207  3.22514
H    -1.12325  -4.34248  3.47948
H    -3.44015  -4.71329  2.37993
H    -3.87767  -3.18823  3.22879
H    -3.36098  -4.61311  4.15417
Pb    1.89785  -1.12332  3.46386
