31
Energy: -609766.033990 eV PBE+vdW (tier 2 basis)
C    -2.08785  0.79725  -0.52664
C    -1.45125  0.11370  0.62882
O    -0.25273  -0.31056  0.53957
H    -2.04302  0.14438  -1.41011
H    -1.49580  1.69249  -0.77327
H    -3.12576  1.09417  -0.34288
N    -2.14430  -0.03766  1.77695
C    -1.54967  -0.59935  2.98958
C    -1.30187  -2.12432  2.81923
O    -0.08168  -2.48734  2.65101
H    -3.10321  0.30143  1.78918
H    -0.52177  -0.21256  3.01801
C    -2.12464  -0.04342  4.33121
C    -3.56683  -0.13027  4.74098
N    -4.03033  -0.98766  5.73829
C    -4.63916  0.67473  4.43352
C    -5.31186  -0.72424  6.02528
N    -5.69312  0.27634  5.22794
H    -1.86057  1.02468  4.32657
H    -1.50484  -0.47956  5.12859
H    -3.47456  -1.66888  6.25325
H    -4.72573  1.52402  3.76544
H    -5.92110  -1.22077  6.77518
H    -6.62123  0.70256  5.24327
N    -2.24425  -3.04679  2.79614
C    -3.70088  -2.93015  2.85418
H    -1.88676  -3.99639  2.65374
H    -4.00983  -1.88383  2.89098
H    -4.08177  -3.46304  3.73422
H    -4.12862  -3.39844  1.95854
Pb    1.43296  -1.69855  1.14125
