31
Energy: -609765.865353 eV PBE+vdW (tier 2 basis)
C    -1.70041  3.59506  0.44922
C    -0.89596  2.64289  1.25108
O    0.08208  3.06704  1.95626
H    -2.17008  4.35472  1.09112
H    -2.44879  3.11604  -0.18793
H    -0.99558  4.15114  -0.19272
N    -1.13853  1.30504  1.23349
C    -2.46253  0.73632  1.48382
C    -2.75741  0.94402  3.01333
O    -1.84579  1.41211  3.78109
H    -0.38378  0.76842  1.66600
H    -3.20679  1.32543  0.92851
C    -2.53588  -0.75308  1.05833
C    -2.48426  -1.01652  -0.42283
N    -1.75752  -2.07408  -0.96243
C    -3.15116  -0.45574  -1.48465
C    -1.96761  -2.16186  -2.28179
N    -2.80896  -1.17874  -2.60789
H    -3.46446  -1.18945  1.45705
H    -1.72521  -1.30685  1.55672
H    -1.17101  -2.72953  -0.44819
H    -3.85142  0.36856  -1.53975
H    -1.53463  -2.89428  -2.95645
H    -3.15249  -1.00633  -3.55338
N    -3.95161  0.64355  3.47687
C    -4.39842  0.78453  4.87290
H    -4.65337  0.31079  2.81677
H    -5.14121  0.00659  5.07608
H    -4.86219  1.76905  5.01960
H    -3.54662  0.66653  5.54707
Pb    0.03158  2.68563  4.19968
