31
Energy: -609765.588270 eV PBE+vdW (tier 2 basis)
C    -2.03093  3.23124  0.81357
C    -1.05496  2.25499  1.35181
O    -0.13886  2.63558  2.15377
H    -2.71774  2.80930  0.07460
H    -1.45207  4.04090  0.33646
H    -2.58916  3.71722  1.62737
N    -1.07578  0.94123  0.98095
C    -2.27853  0.10890  1.09456
C    -2.53677  -0.08800  2.62300
O    -1.62098  0.23893  3.46462
H    -0.23924  0.44812  1.30107
H    -3.13174  0.65616  0.67034
C    -2.09666  -1.24278  0.34121
C    -2.24248  -1.20306  -1.15175
N    -1.23440  -0.85456  -2.04897
C    -3.30681  -1.58310  -1.93252
C    -1.65696  -1.01633  -3.31005
N    -2.91694  -1.45306  -3.24720
H    -2.83973  -1.95832  0.71427
H    -1.12215  -1.67873  0.61348
H    -0.28821  -0.56305  -1.81632
H    -4.28734  -1.95821  -1.66373
H    -1.08053  -0.83440  -4.21202
H    -3.49026  -1.67704  -4.06179
N    -3.67813  -0.57253  3.06657
C    -4.87919  -0.98299  2.32946
H    -3.72786  -0.67737  4.08397
H    -5.75818  -0.63014  2.88094
H    -4.92707  -2.07836  2.26482
H    -4.89894  -0.54253  1.32848
Pb    0.02361  1.65801  4.21605
