21
Energy: -240073.142420 eV PBE+vdW (tier 2 basis)
N    -0.030645  2.393585  1.062200
C    -0.342041  1.248061  2.006015
C    0.657861  0.123394  1.651736
O    0.936588  -0.723110  2.544167
H    0.328800  1.941099  0.191993
H    0.715074  3.002768  1.426971
H    -0.180198  1.593843  3.032235
C    -1.824400  0.758333  1.792996
C    -1.916449  -0.731588  1.828722
N    -2.029824  -1.495816  2.968920
C    -1.591740  -1.632350  0.833960
C    -1.727703  -2.782403  2.656513
N    -1.431005  -2.901250  1.362050
H    -2.171189  1.084113  0.801019
H    -2.477326  1.238877  2.532555
H    -1.494569  -1.432624  -0.230760
H    -1.756741  -3.591091  3.380119
H    -2.286690  -1.163270  3.895277
O    1.046000  0.064912  0.443742
H    -0.844929  2.985882  0.850276
Ba    1.303122  -2.625364  0.868295
