21
Energy: -240071.524474 eV PBE+vdW (tier 2 basis)
N    -1.041453  -1.379773  0.126520
C    -0.273884  -0.381143  0.871343
C    1.240998  -0.499796  0.603686
O    1.752841  -1.498805  0.156005
H    -1.106589  -1.082815  -0.849044
H    -0.482174  -2.240445  0.094264
H    -0.600810  0.625024  0.573372
C    -0.495940  -0.537883  2.399836
C    -1.926018  -0.408886  2.798346
N    -2.360111  0.308386  3.900011
C    -3.082729  -0.913264  2.247396
C    -3.701169  0.237765  4.002411
N    -4.187295  -0.504050  3.000394
H    0.110940  0.205833  2.934229
H    -0.123785  -1.528195  2.709622
H    -3.107091  -1.491623  1.319304
H    -4.274757  0.719861  4.785996
H    -1.756079  0.816683  4.543608
O    1.892985  0.625551  0.958489
H    2.847894  0.493154  0.784468
Ba    -6.095661  -1.705612  1.972183
