21
Energy: -240071.871606 eV PBE+vdW (tier 2 basis)
N    -0.014699  1.012550  0.582596
C    0.156555  -0.299147  1.155383
C    1.608058  -0.479211  1.615020
O    2.309311  0.560673  1.858670
H    0.592576  1.708214  1.011434
H    -0.977709  1.340812  0.599905
H    -0.437028  -0.472571  2.085650
C    -0.273643  -1.335558  0.083296
C    -0.502274  -2.788467  0.584535
N    -1.732771  -2.989989  1.348434
C    -0.753405  -3.769061  -0.508468
C    -2.475591  -3.887374  0.739681
N    -1.903435  -4.382968  -0.406731
H    0.483271  -1.365505  -0.711460
H    -1.199674  -0.975956  -0.384288
H    -0.068008  -3.965742  -1.333896
H    -3.448334  -4.212480  1.108518
H    -1.975825  -2.521634  2.219603
O    2.099461  -1.653856  1.776621
H    0.373950  -3.086050  1.194487
Ba    4.345210  -0.677680  2.470010
