21
Energy: -240072.197878 eV PBE+vdW (tier 2 basis)
N    -0.617620  -2.137265  4.498069
C    -0.104791  -1.569339  3.262697
C    1.425253  -1.739108  3.171452
O    2.193136  -0.951027  3.825452
H    -2.794143  -1.197272  4.531104
H    -0.080152  -1.864383  5.321434
H    -0.539850  -2.128293  2.424010
C    -0.472549  -0.050837  3.133245
C    -1.933588  0.157737  3.135856
N    -2.661414  0.579475  2.120791
C    -2.909849  -0.135221  4.215675
C    -4.048859  0.573357  2.496137
N    -4.220050  0.166923  3.692747
H    -0.016683  0.363024  2.223919
H    -0.027363  0.472950  3.993445
H    -2.709584  0.428300  5.144170
H    -4.810864  0.893385  1.788028
H    -2.304177  0.867113  1.208035
O    1.888893  -2.723757  2.501454
H    -0.695385  -3.152363  4.463204
Ba    4.237639  -2.254402  3.159075
