21
Energy: -240072.450896 eV PBE+vdW (tier 2 basis)
N    -0.030592  -0.775119  0.042591
C    0.102989  -0.156607  1.411901
C    1.540155  -0.292296  1.907887
O    1.876086  0.358933  2.946274
H    -1.057822  -0.994286  -0.066581
H    0.541378  -1.630352  -0.023260
H    -0.143979  0.908746  1.313712
C    -0.907581  -0.834855  2.377853
C    -2.254974  -0.966669  1.739256
N    -3.112539  -2.024066  1.976360
C    -2.934375  -0.169954  0.822690
C    -4.242191  -1.812684  1.232455
N    -4.155577  -0.709749  0.517563
H    -0.929275  -0.219790  3.289608
H    -0.525840  -1.825691  2.672697
H    -2.634394  0.790117  0.405934
H    -5.086038  -2.495705  1.250290
H    -2.968465  -2.787713  2.630169
O    2.346130  -1.065807  1.287867
H    0.260908  -0.144940  -0.714123
Ba    4.242995  -0.441515  2.922860
