21
Energy: -240072.203057 eV PBE+vdW (tier 2 basis)
N    -0.471161  -1.626973  4.890120
C    -0.007059  -1.405957  3.546754
C    1.524751  -1.515020  3.348391
O    2.275854  -1.644168  4.371275
H    -2.593222  -0.640286  4.827476
H    0.190161  -1.286204  5.588909
H    -0.447191  -2.161782  2.879130
C    -0.442710  0.016517  2.991796
C    -1.910454  0.154764  2.994550
N    -2.705706  0.114636  1.943502
C    -2.815488  0.231441  4.165062
C    -4.072366  0.171597  2.384514
N    -4.164306  0.239464  3.655234
H    -0.023699  0.153386  1.987288
H    -0.016083  0.779184  3.659815
H    -2.622313  1.100099  4.818648
H    -4.884361  0.156297  1.660065
H    -2.406449  0.052888  0.968837
O    2.002281  -1.492202  2.162336
H    -0.654018  -2.609639  5.083451
Ba    4.324541  -1.959041  2.968848
