21
Energy: -240071.736645 eV PBE+vdW (tier 2 basis)
N    -0.258977  0.598294  0.115467
C    -0.041598  0.200909  1.561000
C    0.936988  -0.983427  1.639772
O    0.922024  -1.798938  2.523596
H    0.616070  0.514192  -0.417815
H    -0.608666  1.559527  0.034805
H    0.450208  1.041972  2.072468
C    -1.388203  -0.110320  2.227618
C    -2.148052  -1.186242  1.511219
N    -2.144705  -1.233769  0.127355
C    -2.922088  -2.221320  1.979470
C    -2.900042  -2.272643  -0.206859
N    -3.415812  -2.924327  0.879162
H    -1.981752  0.817026  2.274484
H    -1.186361  -0.405243  3.263892
H    -3.134967  -2.504303  3.008480
H    -3.090177  -2.574001  -1.233201
H    -1.017442  -0.100975  -0.255459
O    1.825507  -0.935428  0.618163
H    2.483374  -1.650773  0.736290
Ba    -4.910328  -4.796211  1.273095
