21
Energy: -240072.913964 eV PBE+vdW (tier 2 basis)
N    -0.546809  0.341540  0.093779
C    -0.399888  0.352815  1.598665
C    1.133085  0.088379  1.806307
O    1.631155  0.437289  2.940498
H    -1.393086  -0.128050  -0.249477
H    -0.514319  1.283082  -0.316484
H    -0.677020  1.342634  1.976821
C    -1.308495  -0.750670  2.224878
C    -0.801475  -1.183337  3.561911
N    -0.111581  -2.361658  3.752576
C    -0.631046  -0.482489  4.738006
C    0.462284  -2.336222  4.982389
N    0.187111  -1.186416  5.604278
H    -1.334573  -1.621417  1.552169
H    -2.337485  -0.373259  2.300807
H    -1.049145  0.484440  5.004733
H    1.018068  -3.170972  5.398891
H    -0.073340  -3.145424  3.104541
O    1.716985  -0.445485  0.861479
H    0.342402  -0.180371  -0.189373
Ba    2.359353  0.424259  5.202268
