21
Energy: -240072.140360 eV PBE+vdW (tier 2 basis)
N    -0.856283  -2.557408  2.868841
C    0.031727  -1.394801  2.806267
C    1.499819  -1.777157  3.062853
O    2.001381  -1.696656  4.237836
H    -2.218805  1.126272  1.781149
H    -0.741484  -3.088425  3.733746
H    -0.008917  -1.001523  1.780626
C    -0.477659  -0.331898  3.802406
C    -1.917363  -0.039212  3.585359
N    -2.820123  0.054235  4.532145
C    -2.651719  0.263984  2.319879
C    -4.095459  0.400875  3.954229
N    -4.026431  0.528404  2.690265
H    0.080533  0.611246  3.671133
H    -0.296630  -0.659639  4.835747
H    -2.605206  -0.583580  1.613335
H    -4.971276  0.522265  4.589030
H    -2.650860  -0.094400  5.529096
O    2.175851  -2.243484  2.080459
H    -0.709513  -3.193637  2.085006
Ba    4.206416  -2.617462  3.440595
