21
Energy: -240071.950876 eV PBE+vdW (tier 2 basis)
N    0.307569  0.715779  -1.007082
C    -0.425399  0.377060  0.249509
C    0.592375  0.070498  1.355778
O    1.812144  0.310437  1.175783
H    0.356290  -0.134452  -1.581736
H    -0.281858  1.348572  -1.556914
H    -0.946659  1.293024  0.575778
C    -1.481894  -0.742469  0.053710
C    -2.320030  -0.985061  1.274622
N    -2.871094  -2.214447  1.582743
C    -2.795005  -0.134736  2.272475
C    -3.630588  -2.055525  2.710080
N    -3.592729  -0.815870  3.153566
H    -0.963616  -1.670193  -0.242216
H    -2.115611  -0.448909  -0.799193
H    -2.637483  0.936375  2.381539
H    -4.176301  -2.877401  3.163830
H    -2.758266  -3.078722  1.060918
O    0.197507  -0.404351  2.487029
H    -0.815711  -0.553569  2.479310
Ba    3.012360  1.495966  -0.532530
