21
Energy: -240071.717005 eV PBE+vdW (tier 2 basis)
N    0.220720  -0.327503  -0.159950
C    0.018004  -0.255130  1.337694
C    1.281231  0.160873  2.101671
O    1.320947  0.185995  3.302692
H    1.053785  -0.880962  -0.395157
H    0.349331  0.601825  -0.575257
H    -0.732578  0.531773  1.502610
C    -0.528360  -1.600529  1.846485
C    -1.818818  -1.980919  1.184131
N    -2.011689  -1.728453  -0.163447
C    -2.939805  -2.610526  1.674070
C    -3.216866  -2.199111  -0.455684
N    -3.845659  -2.760050  0.623353
H    -0.649407  -1.514626  2.932844
H    0.232071  -2.383723  1.684154
H    -3.148390  -2.949648  2.686188
H    -3.660277  -2.142145  -1.446379
H    -0.676552  -0.822861  -0.538027
O    2.287533  0.482982  1.256095
H    3.064522  0.756820  1.786955
Ba    -5.945745  -3.954084  0.896958
