21
Energy: -240071.853903 eV PBE+vdW (tier 2 basis)
N    0.059347  1.414941  1.454140
C    0.121883  -0.027154  1.634026
C    1.609857  -0.356939  1.422370
O    2.133313  -0.145301  0.274077
H    0.088375  1.700053  0.475998
H    -0.736697  1.846125  1.920209
H    -0.106571  -0.242033  2.687025
C    -0.833395  -0.817344  0.703270
C    -1.170927  -2.259116  1.203776
N    -2.042755  -2.981650  0.280672
C    -0.048192  -3.238303  1.265052
C    -1.455850  -4.094984  -0.090056
N    -0.226323  -4.283883  0.502795
H    -0.418138  -0.871724  -0.313161
H    -1.782279  -0.265632  0.650644
H    0.837459  -3.125957  1.891403
H    -1.893708  -4.802286  -0.794001
H    -2.959737  -2.661695  -0.032128
O    2.325061  -0.710483  2.421238
H    -1.666319  -2.187363  2.191070
Ba    4.368595  0.199725  1.329583
