21
Energy: -240072.184738 eV PBE+vdW (tier 2 basis)
N    -0.751457  -2.522967  3.229414
C    0.044675  -1.382977  2.821903
C    1.583134  -1.521406  2.908884
O    2.092382  -2.670424  3.129011
H    -2.430666  0.866551  1.541734
H    -0.473225  -2.877199  4.145959
H    -0.143636  -1.200781  1.749505
C    -0.430754  -0.128757  3.602644
C    -1.900188  0.035438  3.473250
N    -2.732188  0.224030  4.469238
C    -2.751380  0.077139  2.245326
C    -4.071563  0.384148  3.959285
N    -4.110497  0.307271  2.689998
H    0.062339  0.772984  3.204559
H    -0.151704  -0.207095  4.663531
H    -2.695603  -0.870264  1.681181
H    -4.903176  0.548896  4.641952
H    -2.477156  0.250107  5.458516
O    2.315562  -0.489521  2.710791
H    -0.664610  -3.302569  2.578244
Ba    4.417711  -1.841606  2.771075
