21
Energy: -240071.974276 eV PBE+vdW (tier 2 basis)
N    0.971163  -0.377338  0.402118
C    0.336352  -0.317231  1.668647
C    1.255451  -0.907467  2.746185
O    2.202925  -1.691267  2.405776
H    1.299708  -1.297118  0.118235
H    0.494341  0.105637  -0.354496
H    0.167082  0.735039  1.941954
C    -1.114707  -1.030020  1.731981
C    -1.843556  -0.846944  2.991616
N    -2.261137  -1.811390  3.790616
C    -2.266597  0.419425  3.666254
C    -2.923298  -1.239282  4.929382
N    -2.935430  0.033790  4.893186
H    -1.011170  -2.090552  1.466485
H    -1.686136  -0.536176  0.932502
H    -2.947419  1.015258  3.030126
H    -3.352579  -1.882050  5.695874
H    -2.177161  -2.811509  3.602550
O    1.084433  -0.564185  3.968410
H    -1.412146  1.084528  3.881193
Ba    3.444881  -1.336147  4.512405
