21
Energy: -240072.306604 eV PBE+vdW (tier 2 basis)
N    0.209769  -2.211879  1.047677
C    -0.063398  -0.800206  1.223347
C    0.770541  -0.186582  2.355924
O    0.816869  -0.625538  3.528905
H    1.082839  -2.394971  0.555699
H    0.177669  -2.769833  1.897057
H    0.247057  -0.290899  0.302634
C    -1.591962  -0.512052  1.375195
C    -2.137750  -0.821105  2.726882
N    -2.637851  0.144420  3.573008
C    -2.118165  -1.974007  3.495783
C    -2.871241  -0.408871  4.795507
N    -2.544130  -1.700829  4.791038
H    -2.079564  -1.128869  0.606997
H    -1.791762  0.537881  1.121276
H    -1.911985  -2.990118  3.165762
H    -3.300118  0.138996  5.629505
H    -2.860499  1.102590  3.308744
O    1.490557  0.843439  1.971040
H    2.059441  1.181924  2.696439
Ba    0.004683  -1.885491  5.562584
