21
Energy: -240071.644787 eV PBE+vdW (tier 2 basis)
N    0.268854  -0.460272  0.061058
C    -0.022848  -0.040419  1.439896
C    1.288416  0.465373  2.060025
O    2.232212  -0.237691  2.411536
H    0.750729  0.283500  -0.447965
H    -0.610038  -0.608452  -0.439338
H    -0.736541  0.797059  1.513542
C    -0.643078  -1.223332  2.230477
C    0.028649  -2.546816  2.042805
N    1.397190  -2.699434  2.113776
C    -0.465136  -3.808887  1.814570
C    1.714896  -3.980019  1.930987
N    0.596584  -4.716887  1.745963
H    -1.690718  -1.325939  1.916840
H    -0.673207  -0.970674  3.301947
H    -1.502386  -4.109483  1.697937
H    2.733920  -4.352725  1.930415
H    2.004354  -1.837922  2.236986
O    1.303663  1.791551  2.153041
H    2.164828  2.078155  2.525100
Ba    0.243235  -7.133774  1.373482
