21
Energy: -240072.415007 eV PBE+vdW (tier 2 basis)
N    0.235385  -0.314231  0.001724
C    -0.195527  -0.334568  1.365739
C    0.864619  -0.640579  2.440654
O    0.764253  -0.292749  3.640032
H    0.590930  -1.203699  -0.345305
H    0.902749  0.424014  -0.212015
H    -0.573022  0.667630  1.626413
C    -1.397417  -1.347381  1.507400
C    -2.122748  -1.195274  2.793063
N    -3.052963  -0.204568  3.033924
C    -1.904406  -1.768942  4.031070
C    -3.333211  -0.173782  4.364434
N    -2.631829  -1.105116  5.012654
H    -1.030699  -2.377052  1.399629
H    -2.042338  -1.143484  0.642078
H    -1.318732  -2.659740  4.251063
H    -4.058541  0.501967  4.807953
H    -3.501821  0.372466  2.324603
O    1.900652  -1.312051  1.991992
H    2.564474  -1.467996  2.696150
Ba    -0.310809  -0.141863  5.916744
