21
Energy: -240071.724481 eV PBE+vdW (tier 2 basis)
N    0.388347  -0.098386  0.329601
C    -0.036878  0.052211  1.744126
C    1.188505  0.135308  2.628279
O    2.273903  -0.361693  2.261882
H    -0.343867  -0.688743  -0.117289
H    0.315196  0.811169  -0.136806
H    -0.659843  0.950557  1.872377
C    -0.891332  -1.210827  2.197265
C    -1.887786  -1.598923  1.171685
N    -3.133752  -1.023867  0.996419
C    -1.772511  -2.498066  0.117256
C    -3.700084  -1.604717  -0.106651
N    -2.894049  -2.489919  -0.662589
H    -1.345998  -0.987580  3.172308
H    -0.208921  -2.058571  2.358560
H    -0.963955  -3.203982  -0.065192
H    -4.698864  -1.351081  -0.449258
H    -3.598492  -0.371909  1.621509
O    1.127657  0.651990  3.830762
H    0.258983  1.044496  4.049260
Ba    2.963718  -1.148596  0.054715
