21
Energy: -240072.065587 eV PBE+vdW (tier 2 basis)
N    0.881207  -0.735140  -0.983780
C    -0.202446  -0.395541  -0.030685
C    0.369483  0.216768  1.276210
O    1.489795  0.861926  1.146862
H    1.239658  -1.671380  -0.765732
H    0.503166  -0.816033  -1.931717
H    -0.794866  0.406076  -0.501572
C    -1.128474  -1.577975  0.346432
C    -2.044457  -1.291840  1.494235
N    -3.070967  -0.460128  1.482440
C    -2.202971  -2.083620  2.755138
C    -3.810127  -0.604740  2.707473
N    -3.339777  -1.521812  3.453352
H    -0.510086  -2.443165  0.626360
H    -1.732965  -1.882694  -0.522248
H    -1.297772  -2.063418  3.381399
H    -4.673039  0.029074  2.903162
H    -3.302133  0.204811  0.745410
O    -0.278650  0.076166  2.307740
H    -2.392378  -3.150592  2.526851
Ba    3.113797  1.099255  -0.474328
