21
Energy: -240071.806386 eV PBE+vdW (tier 2 basis)
N    -0.273275  1.391830  0.673751
C    -0.095628  0.073452  1.215860
C    1.257962  -0.004953  1.930231
O    2.195537  0.790421  1.586750
H    0.469299  1.688566  0.043158
H    -1.188282  1.557344  0.260542
H    -0.863759  -0.092487  1.988263
C    -0.210930  -1.060956  0.140920
C    -0.300290  -2.523179  0.690402
N    -1.578604  -2.848584  1.318001
C    -0.327436  -3.525548  -0.412038
C    -2.160352  -3.812093  0.635177
N    -1.425695  -4.237470  -0.441894
H    0.651511  -1.010673  -0.539451
H    -1.107666  -0.864120  -0.462137
H    0.456947  -3.645909  -1.160355
H    -3.129679  -4.233882  0.900332
H    -1.948495  -2.423529  2.166230
O    1.426709  -0.859089  2.872709
H    0.521643  -2.699179  1.407805
Ba    3.540485  0.341039  3.603745
