21
Energy: -240071.519345 eV PBE+vdW (tier 2 basis)
N    -0.456774  -0.981810  0.071148
C    -0.066326  -0.255135  1.286021
C    1.449904  -0.120591  1.555916
O    1.939041  -0.097013  2.661413
H    -0.062864  -0.507820  -0.743822
H    -0.028079  -1.911240  0.071913
H    -0.428528  0.781635  1.173649
C    -0.725832  -0.864121  2.535452
C    -2.212694  -0.793910  2.509766
N    -2.988328  -0.634417  3.645774
C    -3.127162  -0.869880  1.484214
C    -4.293439  -0.614021  3.318786
N    -4.424808  -0.754126  1.993606
H    -0.330503  -0.353190  3.423653
H    -0.412526  -1.917068  2.637558
H    -2.856389  -0.994339  0.432375
H    -5.095781  -0.496916  4.038538
H    -2.624674  -0.540472  4.592796
O    2.136190  0.001875  0.400473
H    3.081009  0.125292  0.625284
Ba    -5.955649  -0.998564  0.059950
