21
Energy: -240071.956852 eV PBE+vdW (tier 2 basis)
N    0.105695  0.405053  0.207692
C    -0.016870  0.050360  1.667699
C    0.682215  -1.311539  1.803427
O    1.307832  -1.807112  0.889776
H    -0.811630  0.066608  -0.267987
H    0.256132  1.405471  0.049364
H    0.569679  0.771554  2.254881
C    -1.486506  0.087134  2.131063
C    -2.401787  -0.735825  1.275169
N    -2.286727  -0.680010  -0.103981
C    -3.447141  -1.571883  1.595118
C    -3.240795  -1.466322  -0.579695
N    -4.000001  -2.043718  0.405794
H    -1.819176  1.137584  2.130078
H    -1.521744  -0.244715  3.175213
H    -3.824850  -1.859380  2.572592
H    -3.399529  -1.639973  -1.641665
H    0.895725  -0.150643  -0.172451
O    0.537517  -1.820137  3.029163
H    1.067048  -2.642156  3.089641
Ba    -6.044088  -3.335351  0.156110
