21
Energy: -240071.971182 eV PBE+vdW (tier 2 basis)
N    0.611239  -0.234681  -1.064048
C    -0.167896  -0.197520  0.201246
C    0.821985  -0.187534  1.406979
O    1.844998  0.612199  1.220762
H    0.908096  -1.198016  -1.253051
H    0.016594  0.022064  -1.856666
H    -0.697352  0.767742  0.216218
C    -1.197031  -1.358849  0.320297
C    -2.288477  -1.184810  1.315372
N    -3.538365  -1.533189  1.096565
C    -2.268763  -0.700768  2.725526
C    -4.321138  -1.300209  2.282203
N    -3.617648  -0.814671  3.226129
H    -0.644444  -2.260921  0.643547
H    -1.637017  -1.575083  -0.663969
H    -1.892354  0.332499  2.828934
H    -5.383712  -1.536222  2.293577
H    -3.902611  -1.931698  0.228367
O    0.606488  -0.873454  2.388589
H    -1.548822  -1.287390  3.328771
Ba    3.081230  1.314511  -0.563346
