21
Energy: -240071.697838 eV PBE+vdW (tier 2 basis)
N    1.013249  0.205678  1.151301
C    0.268588  -0.440395  2.258596
C    1.054933  -1.683787  2.680783
O    1.750565  -2.302247  1.868720
H    1.800351  0.727381  1.551528
H    0.417939  0.925359  0.730137
H    0.146342  0.235362  3.121506
C    -1.171339  -0.872141  1.802292
C    -1.133029  -1.816255  0.648380
N    -1.135097  -3.192001  0.760373
C    -0.830260  -1.579723  -0.683316
C    -0.804426  -3.725525  -0.452260
N    -0.585131  -2.768586  -1.349500
H    -1.718169  0.040807  1.526805
H    -1.709203  -1.298212  2.660183
H    -0.839866  -0.626459  -1.208514
H    -0.759010  -4.795131  -0.637083
H    -1.388985  -3.728701  1.587720
O    0.933521  -2.157521  3.903193
H    0.428480  -1.571840  4.502114
Ba    2.053549  -1.919060  -0.644955
