21
Energy: -240071.935952 eV PBE+vdW (tier 2 basis)
N    -0.179367  -0.028550  -0.010068
C    0.039714  -0.503073  1.402979
C    1.557896  -0.664685  1.564090
O    2.294434  -0.713560  0.602436
H    0.575730  -0.435408  -0.592210
H    -1.170396  -0.349027  -0.306108
H    -0.345922  0.262447  2.087549
C    -0.685740  -1.848735  1.628220
C    -2.144112  -1.803493  1.282090
N    -2.563003  -1.175917  0.121694
C    -3.241733  -2.351428  1.906301
C    -3.875410  -1.351133  0.068161
N    -4.363959  -2.070188  1.128458
H    -0.544320  -2.134903  2.677416
H    -0.184704  -2.623016  1.022849
H    -3.297137  -2.909147  2.837551
H    -4.500057  -0.960290  -0.731709
H    -0.096105  0.991127  -0.085097
O    1.905149  -0.775295  2.846877
H    2.874960  -0.907190  2.904258
Ba    -6.594920  -2.966537  1.488263
