21
Energy: -240071.935214 eV PBE+vdW (tier 2 basis)
N    1.221543  0.758049  0.738297
C    0.587084  -0.502211  1.223382
C    1.638471  -1.388555  1.956163
O    2.672395  -0.756430  2.415772
H    0.495142  1.466821  0.599312
H    1.591917  0.591520  -0.204713
H    -0.127239  -0.206068  2.009823
C    -0.163938  -1.249017  0.096309
C    -0.726707  -2.623165  0.506542
N    -1.998357  -2.688449  1.191789
C    -0.923796  -3.684066  -0.487698
C    -2.702141  -3.687860  0.682595
N    -2.070934  -4.314809  -0.347980
H    0.542784  -1.440018  -0.726193
H    -0.965361  -0.619146  -0.313339
H    -0.188649  -3.987629  -1.233363
H    -3.676867  -3.987104  1.064934
H    -2.272688  -2.140571  2.004073
O    1.434519  -2.595763  2.109186
H    0.107147  -2.992115  1.236039
Ba    3.528676  1.385590  2.362067
