21
Energy: -240071.829641 eV PBE+vdW (tier 2 basis)
N    0.835259  0.946817  1.783991
C    0.436024  -0.491024  1.816810
C    1.669513  -1.383086  1.500445
O    2.820035  -0.872861  1.834052
H    0.128512  1.505495  2.271072
H    0.795583  1.275010  0.812218
H    0.149728  -0.710982  2.858900
C    -0.737488  -0.809028  0.866310
C    -1.444838  -2.162250  1.124065
N    -2.144898  -2.660249  -0.063685
C    -0.626568  -3.391641  1.433781
C    -1.763886  -3.901281  -0.294445
N    -0.869946  -4.386061  0.609118
H    -0.356261  -0.820302  -0.164886
H    -1.492662  -0.014013  0.937304
H    -0.074329  -3.549018  2.355844
H    -2.149658  -4.491369  -1.125854
H    -2.830977  -2.140091  -0.607215
O    1.510571  -2.486503  0.985890
H    -2.181802  -2.054666  1.943991
Ba    3.623088  1.162100  2.541290
