21
Energy: -240072.777918 eV PBE+vdW (tier 2 basis)
N    1.289778  -0.768893  1.089849
C    -0.029304  -0.191089  1.441166
C    0.194045  0.818618  2.569784
O    1.115387  0.673049  3.379647
H    1.142756  -1.575171  0.474992
H    1.795165  -0.092712  0.507363
H    -0.501815  0.309961  0.579809
C    -1.025894  -1.301825  1.932773
C    -0.503323  -2.037995  3.120070
N    -0.778167  -1.706801  4.431617
C    0.514409  -2.974917  3.207778
C    0.078582  -2.396515  5.241013
N    0.899478  -3.159575  4.524910
H    -1.184217  -1.996813  1.095872
H    -2.004388  -0.845025  2.134392
H    0.942055  -3.569924  2.402932
H    0.052806  -2.330450  6.325122
H    -1.524220  -1.093287  4.754078
O    -0.647775  1.816622  2.739215
H    -1.300810  1.905774  2.016438
Ba    2.806374  -1.236501  3.601417
