21
Energy: -240071.691382 eV PBE+vdW (tier 2 basis)
N    0.007981  -0.066196  0.036997
C    0.148068  -0.171448  1.519952
C    1.634030  -0.249483  1.854702
O    2.487862  0.132354  1.029477
H    0.003719  -1.026464  -0.333372
H    -0.963348  0.238245  -0.128576
H    -0.179169  0.796909  1.941617
C    -0.732604  -1.273837  2.154067
C    -2.165601  -1.070315  1.776449
N    -3.081277  -2.096957  1.660292
C    -2.885183  0.074605  1.469309
C    -4.280756  -1.538335  1.308096
N    -4.187203  -0.230280  1.175595
H    -0.617869  -1.241137  3.255467
H    -0.372602  -2.265595  1.832212
H    -2.554612  1.112184  1.484861
H    -5.177717  -2.131919  1.161221
H    -2.921838  -3.080953  1.855004
O    2.047501  -0.665603  3.020936
H    1.318541  -0.967805  3.602669
Ba    2.188069  1.200980  -1.158793
