21
Energy: -240071.466932 eV PBE+vdW (tier 2 basis)
N    0.403741  0.316339  0.286521
C    0.133801  -0.075230  1.649339
C    1.341918  -0.722089  2.355522
O    2.352199  -1.084213  1.821723
H    0.995095  1.146306  0.251283
H    0.905519  -0.417989  -0.217586
H    -0.135791  0.828425  2.217911
C    -1.091462  -1.054203  1.662815
C    -2.003168  -0.940321  2.833797
N    -1.573891  -0.936581  4.149153
C    -3.371394  -0.822494  2.914833
C    -2.624339  -0.823064  4.971263
N    -3.762325  -0.753547  4.255614
H    -0.744603  -2.095052  1.561511
H    -1.664720  -0.825543  0.755972
H    -4.077899  -0.785135  2.089604
H    -2.542279  -0.789097  6.052316
H    -0.568419  -0.972171  4.391242
O    1.142449  -0.863029  3.725740
H    1.960894  -1.262850  4.086428
Ba    -6.198926  -0.584230  4.740686
