21
Energy: -240072.525525 eV PBE+vdW (tier 2 basis)
N    -0.698313  1.418981  0.537832
C    -0.137100  1.233787  1.929950
C    1.231472  0.541753  1.797479
O    1.800975  0.125903  2.850175
H    0.080382  1.409665  -0.143341
H    -1.249281  2.279586  0.436305
H    0.059234  2.231000  2.349490
C    -1.143394  0.485643  2.821356
C    -1.692129  -0.735014  2.148767
N    -2.907205  -1.298446  2.477488
C    -1.204330  -1.549506  1.132601
C    -3.085014  -2.400255  1.684533
N    -2.074532  -2.571877  0.856955
H    -1.954686  1.177173  3.095585
H    -0.617003  0.246254  3.757873
H    -0.262513  -1.475576  0.592400
H    -3.967239  -3.029298  1.752485
H    -3.548023  -0.975314  3.196837
O    1.761097  0.441554  0.637988
H    -1.309040  0.587546  0.347475
Ba    3.797644  -0.784562  1.643766
