21
Energy: -240073.049860 eV PBE+vdW (tier 2 basis)
N    -0.516456  1.216978  0.574448
C    -0.075978  0.259724  1.668971
C    1.068118  -0.570623  1.037191
O    1.019860  -0.695983  -0.235566
H    -1.511526  1.470110  0.621611
H    -0.287022  0.722923  -0.319500
H    0.028049  2.090620  0.594106
H    0.276371  0.854646  2.518022
C    -1.240996  -0.690508  2.124743
C    -1.262459  -1.976578  1.362843
N    -1.849115  -2.188868  0.128589
C    -0.437723  -3.067191  1.543353
C    -1.339094  -3.334272  -0.399937
N    -0.448907  -3.882170  0.425114
H    -2.201032  -0.152899  2.097858
H    -1.060481  -0.918805  3.182551
H    -2.604833  -1.648819  -0.284814
H    0.145708  -3.303692  2.430089
H    -1.655628  -3.739096  -1.356226
O    1.881774  -1.166166  1.782060
Ba    2.203885  -3.064256  0.013575
