21
Energy: -240072.072595 eV PBE+vdW (tier 2 basis)
N    0.559479  0.576719  -0.842941
C    -0.319403  0.337615  0.326243
C    0.475824  -0.252303  1.520370
O    1.733986  0.065091  1.571230
H    0.644151  -0.289293  -1.386200
H    0.118748  1.243806  -1.482374
H    -0.674583  1.325493  0.662321
C    -1.535565  -0.578727  0.060779
C    -2.276282  -0.916960  1.312142
N    -2.721525  -2.120208  1.617345
C    -2.962656  0.004917  2.282025
C    -3.556513  -2.039571  2.782103
N    -3.710882  -0.844135  3.190118
H    -1.204469  -1.502835  -0.436402
H    -2.242523  -0.079845  -0.622220
H    -3.660053  0.678280  1.748712
H    -3.983626  -2.943263  3.212885
H    -2.467533  -2.986769  1.143045
O    -0.140543  -0.937265  2.331219
H    -2.271090  0.652305  2.839802
Ba    3.245058  1.130946  0.187801
