21
Energy: -240071.897691 eV PBE+vdW (tier 2 basis)
N    0.829192  0.942562  0.578690
C    0.517838  -0.349319  1.171392
C    1.824302  -0.758884  1.873835
O    1.914384  -0.641658  3.142509
H    0.012781  1.536109  0.445733
H    1.348208  0.868504  -0.295627
H    -0.225822  -0.177257  1.961748
C    0.010551  -1.384038  0.141409
C    -0.490551  -2.736976  0.734403
N    -1.764767  -2.656258  1.448493
C    -0.887150  -3.712750  -0.323534
C    -2.645194  -3.423785  0.845099
N    -2.141190  -4.075310  -0.254111
H    0.825968  -1.624283  -0.555993
H    -0.803588  -0.933568  -0.443025
H    -0.222903  -4.077431  -1.108359
H    -3.675432  -3.535771  1.183174
H    -1.941258  -2.113645  2.292614
O    2.838118  -1.079070  1.160545
H    0.280552  -3.166468  1.400245
Ba    4.378961  -0.372704  2.999759
