21
Energy: -240071.714228 eV PBE+vdW (tier 2 basis)
N    0.992823  0.602581  1.086419
C    0.495894  -0.379437  2.097529
C    1.674534  -1.328914  2.470154
O    2.794867  -0.703659  2.675672
H    0.307830  1.357240  0.983342
H    1.034088  0.162411  0.161903
H    0.324520  0.205975  3.014350
C    -0.847297  -1.081711  1.794262
C    -0.736552  -2.446968  1.071784
N    -1.894389  -3.305264  1.172443
C    -0.456387  -2.586418  -0.363282
C    -2.134463  -3.847416  -0.006447
N    -1.264448  -3.424988  -0.972249
H    -1.519748  -0.406851  1.247723
H    -1.325706  -1.284705  2.762325
H    0.373724  -2.125956  -0.899139
H    -2.929604  -4.569442  -0.185141
H    -2.399106  -3.516528  2.032524
O    1.519906  -2.546431  2.557000
H    0.156690  -2.913045  1.638426
Ba    3.690827  1.302521  1.969404
