21
Energy: -240071.595738 eV PBE+vdW (tier 2 basis)
N    -0.515757  0.840226  0.765670
C    0.181050  0.149011  1.824190
C    1.729011  0.152343  1.781431
O    2.450844  -0.480098  2.554974
H    -0.368162  1.847460  0.801137
H    -0.235494  0.522614  -0.162438
H    -0.064226  0.664026  2.769441
C    -0.372904  -1.309054  1.916249
C    -0.272259  -1.980114  3.245263
N    0.890548  -1.990632  3.989009
C    -1.181121  -2.698834  3.986505
C    0.695195  -2.677017  5.116274
N    -0.572047  -3.142724  5.164734
H    0.114492  -1.938209  1.153938
H    -1.430868  -1.241353  1.636596
H    -2.217228  -2.915453  3.740461
H    1.458391  -2.821633  5.873692
H    1.731129  -1.451611  3.616813
O    2.223202  0.936463  0.832191
H    3.202294  0.913143  0.880770
Ba    -1.844701  -4.560791  6.746603
