21
Energy: -240072.374907 eV PBE+vdW (tier 2 basis)
N    0.409014  -0.660179  -0.003447
C    -0.161221  -0.411682  1.290965
C    0.864237  -0.633206  2.399153
O    0.671127  -0.297717  3.591300
H    -0.272332  -0.558666  -0.753521
H    1.216691  -0.078057  -0.219283
H    -0.538204  0.619055  1.477114
C    -1.385172  -1.394441  1.465413
C    -2.140842  -1.179542  2.723273
N    -3.026486  -0.141133  2.925874
C    -1.998644  -1.758405  3.970035
C    -3.356601  -0.091645  4.245067
N    -2.729783  -1.055942  4.920739
H    -1.018762  -2.426604  1.405064
H    -2.027229  -1.235904  0.587221
H    -1.464663  -2.674991  4.214343
H    -4.063153  0.621836  4.658982
H    -3.417734  0.457118  2.200718
O    1.978525  -1.198954  2.004443
H    2.615769  -1.288141  2.744182
Ba    -0.398536  -0.153799  5.863366
