22
Energy: -33484.3937773 eV PBE+vdW (tier 2 basis)
N    0.664722  -0.578309  0.131045
C    0.158554  0.156936  1.363308
C    1.398993  0.735169  2.091072
O    2.520311  0.733385  1.479416
H    -0.007560  -0.560354  -0.649448
H    0.891015  -1.565094  0.329208
H    1.550261  -0.129226  -0.175733
H    -0.395484  1.030412  0.984549
C    -0.742961  -0.709080  2.275183
C    -2.113207  -1.064590  1.771343
N    -3.222700  -0.223108  1.860411
C    -2.596367  -2.251846  1.275880
C    -4.323476  -0.861779  1.443386
N    -3.951273  -2.091693  1.081276
H    -0.832725  -0.156685  3.223161
H    -0.219960  -1.642163  2.534793
H    -3.243392  0.721627  2.241380
H    -2.104088  -3.199605  1.088346
H    -5.330846  -0.456053  1.412706
H    -4.591170  -2.808670  0.734581
O    1.266838  1.241412  3.243529
Ca    3.430631  1.864710  3.245674
