22
Energy: -33484.1435048 eV PBE+vdW (tier 2 basis)
N    0.337680  -0.984275  -0.128237
C    0.066935  -0.234918  1.165462
C    1.347158  0.541746  1.552632
O    1.428446  1.083698  2.694048
H    -0.486715  -1.011405  -0.747875
H    0.634082  -1.958323  0.039845
H    1.111261  -0.501418  -0.627122
H    -0.635913  0.570878  0.894316
C    -0.644542  -1.062017  2.254400
C    -0.113722  -2.419015  2.630332
N    -0.983332  -3.414981  3.070978
C    1.143786  -2.962703  2.743074
C    -0.300511  -4.504008  3.441259
N    0.992426  -4.243254  3.238880
H    -1.695711  -1.173900  1.949747
H    -0.669898  -0.416402  3.147987
H    -1.998778  -3.340750  3.143432
H    2.126258  -2.550580  2.549827
H    -0.721859  -5.427699  3.829191
H    1.747686  -4.901741  3.435284
O    2.237521  0.727666  0.654361
Ca    3.188550  2.308117  2.013356
