22
Energy: -33484.1432161 eV PBE+vdW (tier 2 basis)
N    -0.344465  -0.966185  -0.372922
C    -0.194135  -0.288392  0.979196
C    1.312068  -0.043937  1.219341
O    1.757323  0.159070  2.388297
H    -1.247237  -0.744595  -0.821218
H    -0.268508  -1.993233  -0.306204
H    0.418824  -0.638254  -0.995500
H    -0.597074  0.728906  0.833104
C    -1.049732  -0.922623  2.098580
C    -0.842474  -2.352831  2.505174
N    0.005579  -2.755123  3.535902
C    -1.529685  -3.486484  2.137379
C    -0.157071  -4.060120  3.789543
N    -1.079315  -4.514103  2.937166
H    -2.105282  -0.807880  1.810104
H    -0.931319  -0.270018  2.976394
H    0.607962  -2.145231  4.085702
H    -2.332721  -3.634074  1.423202
H    0.355618  -4.639259  4.552233
H    -1.419288  -5.477485  2.914655
O    2.061549  0.071799  0.188945
Ca    3.698178  0.944459  1.476292
