22
Energy: -33483.1890643 eV PBE+vdW (tier 2 basis)
N    1.129876  0.885517  3.339737
C    1.230616  -0.449995  2.766251
C    2.305244  -0.430005  1.671702
O    2.126285  0.053248  0.507958
H    1.911611  1.173893  3.928304
H    0.888332  1.622786  2.677451
H    3.656609  -1.222306  2.810324
H    1.591754  -1.126530  3.556660
C    -0.149031  -0.954020  2.280693
C    -1.095983  -1.258654  3.403178
N    -1.479186  -0.351370  4.386512
C    -1.809095  -2.403471  3.659186
C    -2.378692  -0.909080  5.205667
N    -2.586817  -2.154488  4.769126
H    -0.031564  -1.875122  1.693489
H    -0.591997  -0.202640  1.607060
H    -1.097723  0.586933  4.495907
H    -1.836457  -3.355215  3.141995
H    -2.848469  -0.439558  6.064008
H    -3.234939  -2.814945  5.198981
O    3.529667  -0.819319  1.924178
Ca    2.963957  0.498341  -1.382370
