22
Energy: -33483.8533509 eV PBE+vdW (tier 2 basis)
N    -0.426874  1.062940  0.731495
C    0.028111  0.209823  1.882940
C    1.557561  0.241153  1.883317
O    2.186687  1.077083  1.197499
H    -0.680547  0.443232  -0.050630
H    -1.315510  1.509821  0.986243
H    3.119002  -0.518646  2.667326
H    -0.261807  0.728884  2.812504
C    -0.629683  -1.214553  1.861369
C    -0.597323  -2.058255  3.102095
N    -1.498237  -1.932480  4.160003
C    0.160074  -3.164184  3.399019
C    -1.300948  -2.908826  5.054999
N    -0.292674  -3.658124  4.601877
H    -0.184373  -1.803167  1.046367
H    -1.683492  -1.060266  1.580205
H    -2.250381  -1.251616  4.247281
H    0.956730  -3.647787  2.846342
H    -1.862302  -3.065618  5.971472
H    0.066383  -4.487653  5.077066
O    2.137713  -0.619883  2.664132
Ca    1.363889  2.615122  -0.101918
