22
Energy: -33483.8175867 eV PBE+vdW (tier 2 basis)
N    0.290565  1.003248  1.433895
C    0.196717  -0.330735  2.115817
C    1.457571  -1.127027  1.745406
O    2.446777  -0.557591  1.232056
H    -0.165475  1.709089  2.022250
H    -0.288850  0.976369  0.584631
H    2.273724  -2.855452  1.861235
H    0.317092  -0.153740  3.199412
C    -1.108561  -1.131030  1.873310
C    -2.340292  -0.653888  2.596992
N    -3.614647  -0.892514  2.088199
C    -2.542342  -0.100974  3.838215
C    -4.548573  -0.511056  2.968678
N    -3.906717  -0.023665  4.031584
H    -0.918393  -2.172927  2.175471
H    -1.307481  -1.171546  0.790114
H    -3.838353  -1.328977  1.194361
H    -1.850571  0.211358  4.611095
H    -5.624559  -0.583280  2.838267
H    -4.369243  0.338276  4.866772
O    1.428513  -2.383834  2.053921
Ca    2.667099  1.529895  0.714320
