22
Energy: -33484.2974499 eV PBE+vdW (tier 2 basis)
N    -0.541196  0.360437  0.170906
C    0.168419  0.052846  1.483681
C    1.683899  0.184236  1.223164
O    2.065499  0.783147  0.160046
H    -1.491862  0.732541  0.320453
H    -0.626110  -0.471655  -0.434892
H    0.008830  1.060843  -0.360665
H    -0.099812  0.874631  2.166463
C    -0.310352  -1.307565  2.070678
C    -0.401920  -1.402987  3.564709
N    0.680779  -1.557143  4.424923
C    -1.519278  -1.480438  4.359342
C    0.250879  -1.721100  5.682967
N    -1.083360  -1.672915  5.651070
H    0.312504  -2.124764  1.676628
H    -1.327487  -1.499705  1.698743
H    1.661026  -1.559656  4.151952
H    -2.574149  -1.439535  4.111615
H    0.868922  -1.869083  6.563199
H    -1.684756  -1.780717  6.469686
O    2.521858  -0.256123  2.068722
Ca    4.218863  0.597305  0.767036
