22
Energy: -33483.5296631 eV PBE+vdW (tier 2 basis)
N    0.191614  -0.667395  -0.169161
C    0.150195  -0.321097  1.288698
C    1.544555  0.197210  1.675876
O    2.371924  0.480154  0.786706
H    -0.729748  -0.480975  -0.581786
H    0.305458  -1.685578  -0.265219
H    1.176177  0.125764  3.555182
H    -0.514868  0.552970  1.397409
C    -0.397675  -1.499226  2.165754
C    -0.687691  -1.246416  3.621440
N    -1.865193  -0.670897  4.104844
C    0.000892  -1.657033  4.743443
C    -1.895229  -0.730025  5.442071
N    -0.764300  -1.318784  5.838677
H    0.306481  -2.342962  2.114086
H    -1.325266  -1.848033  1.686132
H    -2.639664  -0.305598  3.551473
H    0.933241  -2.203903  4.844695
H    -2.693607  -0.366466  6.084396
H    -0.524345  -1.510051  6.814175
O    1.875896  0.395979  2.915813
Ca    2.180154  0.408363  -1.352704
