22
Energy: -33483.0252474 eV PBE+vdW (tier 2 basis)
N    0.224210  0.685980  0.434479
C    0.073250  0.240414  1.815017
C    1.445342  -0.193135  2.317418
O    2.233078  0.597907  2.926562
H    0.455895  1.671477  0.322644
H    0.814804  0.113397  -0.166998
H    1.261086  -1.970481  1.623248
H    -0.210034  1.111051  2.419698
C    -1.062980  -0.811928  1.993371
C    -1.193610  -1.901563  0.972066
N    -1.636054  -1.680407  -0.332003
C    -1.120135  -3.270484  1.103164
C    -1.827641  -2.844413  -0.962666
N    -1.509956  -3.816271  -0.102355
H    -1.997910  -0.230898  1.989258
H    -1.007438  -1.269711  2.991668
H    -1.820990  -0.765739  -0.743056
H    -0.890051  -3.890833  1.962552
H    -2.177312  -2.976056  -1.982598
H    -1.582440  -4.813684  -0.308086
O    1.920081  -1.385618  2.063375
Ca    3.826806  1.418995  3.999242
