22
Energy: -33483.2449293 eV PBE+vdW (tier 2 basis)
N    0.114616  -1.048424  0.032722
C    0.109260  -0.307184  1.290372
C    1.550935  -0.248137  1.811917
O    2.357693  0.670714  1.461367
H    0.479684  -0.537223  -0.769901
H    0.525621  -1.982312  0.074454
H    1.428266  -1.869658  2.854753
H    -0.186812  0.728641  1.075873
C    -0.885463  -0.935571  2.297530
C    -2.326892  -0.806856  1.903626
N    -2.866409  -1.264914  0.705999
C    -3.390367  -0.339149  2.634817
C    -4.192463  -1.084939  0.698165
N    -4.518965  -0.525117  1.866679
H    -0.775986  -0.466003  3.285459
H    -0.658006  -2.011055  2.425658
H    -2.325658  -1.645570  -0.069129
H    -3.437279  0.086546  3.630237
H    -4.873947  -1.343085  -0.106089
H    -5.470803  -0.284270  2.144360
O    2.070406  -1.191033  2.553382
Ca    4.171579  1.727570  1.441072
