22
Energy: -33483.1896953 eV PBE+vdW (tier 2 basis)
N    -0.840943  -0.609894  0.094870
C    -0.138755  -0.118613  1.249632
C    1.399345  -0.050389  1.144631
O    2.081416  -0.767513  0.353411
H    -0.821042  0.008208  -0.714775
H    -0.604980  -1.563058  -0.178010
H    1.548207  1.360125  2.460231
H    -0.452800  0.926942  1.418003
C    -0.545669  -0.949825  2.517454
C    -1.964534  -0.724569  2.943061
N    -3.062097  -0.810485  2.094360
C    -2.478487  -0.490407  4.194703
C    -4.194367  -0.634985  2.784818
N    -3.849345  -0.444533  4.062048
H    0.099419  -0.720232  3.376700
H    -0.386875  -2.015707  2.285722
H    -2.992590  -0.937488  1.083834
H    -1.991179  -0.373441  5.155499
H    -5.202918  -0.642022  2.384120
H    -4.513024  -0.293445  4.822181
O    2.088468  0.783366  1.877847
Ca    3.906207  -1.300084  -0.574156
