22
Energy: -33484.3809007 eV PBE+vdW (tier 2 basis)
N    0.452066  -1.592483  0.106477
C    0.222002  -0.381564  1.000225
C    1.612039  0.078170  1.513370
O    1.685469  0.929889  2.445860
H    -0.251157  -1.678030  -0.641516
H    0.452467  -2.477272  0.636992
H    1.394042  -1.503966  -0.323607
H    -0.113466  0.426911  0.330915
C    -0.804128  -0.619700  2.120207
C    -2.250983  -0.708062  1.705897
N    -3.175423  -1.445633  2.441434
C    -2.984287  -0.070992  0.733737
C    -4.409068  -1.269806  1.950991
N    -4.301635  -0.441492  0.910932
H    -0.683494  0.222254  2.821556
H    -0.524218  -1.518624  2.692837
H    -2.979687  -2.020628  3.260388
H    -2.701129  0.631570  -0.041161
H    -5.322354  -1.721509  2.328006
H    -5.089236  -0.126159  0.342319
O    2.652894  -0.374197  0.927719
Ca    3.923285  1.020324  2.224423
