22
Energy: -33483.4583325 eV PBE+vdW (tier 2 basis)
N    0.123182  0.898580  1.233976
C    0.146713  -0.041710  2.402405
C    1.592780  -0.572628  2.544700
O    2.482128  -0.135559  1.786246
H    -0.468357  1.703901  1.463832
H    -0.365255  0.443209  0.453333
H    1.249931  -1.726080  4.073497
H    -0.013060  0.557327  3.315593
C    -0.905431  -1.182492  2.339129
C    -2.336890  -0.794456  2.609530
N    -3.395414  -1.560131  2.125227
C    -2.914993  0.166070  3.403098
C    -4.559582  -1.097218  2.597542
N    -4.278125  -0.046443  3.369781
H    -0.632615  -1.968474  3.063495
H    -0.833875  -1.674804  1.355387
H    -3.326914  -2.380153  1.522727
H    -2.489027  0.958853  4.006278
H    -5.546047  -1.501384  2.387346
H    -4.978371  0.505588  3.867924
O    1.947995  -1.421671  3.457418
Ca    2.494230  1.479675  0.394536
