22
Energy: -33482.9483542 eV PBE+vdW (tier 2 basis)
N    0.050032  0.736939  0.246428
C    0.234382  0.139512  1.557241
C    1.623599  -0.456105  1.290733
O    2.683770  0.235204  1.418145
H    -0.233186  1.713641  0.237655
H    -0.477232  0.186495  -0.429148
H    0.968067  -2.172931  0.711178
H    0.372404  0.933868  2.302241
C    -0.913559  -0.816101  1.997687
C    -1.014323  -1.228828  3.436944
N    -1.713487  -0.486869  4.388521
C    -0.620571  -2.371865  4.088710
C    -1.750688  -1.140530  5.555865
N    -1.083018  -2.284096  5.384894
H    -0.935743  -1.726669  1.375743
H    -1.839890  -0.289022  1.720668
H    -2.194907  0.397212  4.231287
H    -0.091511  -3.248786  3.735413
H    -2.240892  -0.807844  6.465860
H    -0.966797  -2.995267  6.107563
O    1.795046  -1.654069  0.794911
Ca    4.597011  0.893245  0.930478
