22
Energy: -33483.6572204 eV PBE+vdW (tier 2 basis)
N    -0.343255  0.301541  0.435278
C    0.158494  0.347898  1.846901
C    1.680091  0.481654  1.779232
O    2.225350  0.971282  0.764473
H    -1.325214  0.602608  0.427656
H    -0.373502  -0.678592  0.123870
H    3.286974  0.360292  2.808700
H    -0.140016  1.336337  2.247004
C    -0.436848  -0.658653  2.868090
C    -0.268376  -2.142949  2.679489
N    -1.356163  -3.012190  2.764663
C    0.836481  -2.958158  2.601272
C    -0.943403  -4.284815  2.745774
N    0.387048  -4.261343  2.636327
H    -1.511082  -0.432538  2.933909
H    -0.033552  -0.381233  3.855178
H    -2.333040  -2.746775  2.888317
H    1.894192  -2.729476  2.573574
H    -1.572462  -5.168271  2.809646
H    0.975747  -5.095353  2.612207
O    2.327023  0.134759  2.849791
Ca    1.210513  1.619977  -1.053351
