22
Energy: -33483.6802483 eV PBE+vdW (tier 2 basis)
N    -0.098509  -0.351714  -0.135016
C    -0.009438  0.008489  1.317576
C    1.466312  0.248185  1.625051
O    2.256381  0.585024  0.716036
H    -1.051440  -0.149980  -0.461808
H    -0.005964  -1.372285  -0.230794
H    2.744607  0.435213  3.030029
H    -0.439414  1.024631  1.408880
C    -0.843803  -0.841528  2.320988
C    -0.522049  -2.286769  2.569071
N    0.266709  -2.733147  3.629667
C    -1.045525  -3.426333  2.004341
C    0.224894  -4.068606  3.712420
N    -0.561512  -4.498561  2.722270
H    -1.887713  -0.784827  1.979360
H    -0.838595  -0.301379  3.279586
H    0.749149  -2.146924  4.308682
H    -1.759723  -3.558872  1.199538
H    0.727159  -4.685612  4.452160
H    -0.793301  -5.479398  2.556315
O    1.812527  0.149850  2.875399
Ca    1.755246  0.790541  -1.401752
