22
Energy: -33483.5199019 eV PBE+vdW (tier 2 basis)
N    -0.294980  0.776881  0.253191
C    -0.008693  0.127993  1.573998
C    1.493651  0.305771  1.856364
O    2.164144  1.099435  1.167192
H    -0.337379  0.049495  -0.473100
H    -1.246558  1.162313  0.273832
H    1.480778  -0.920595  3.328143
H    -0.519279  0.733538  2.342840
C    -0.529941  -1.337858  1.644685
C    -0.556498  -2.000177  3.001045
N    -0.491996  -3.387095  3.132488
C    -0.788019  -1.525976  4.274300
C    -0.679704  -3.743976  4.408684
N    -0.852376  -2.622208  5.110426
H    0.057464  -1.962124  0.952550
H    -1.561480  -1.329793  1.255630
H    -0.352183  -4.061725  2.379519
H    -0.954064  -0.522972  4.651581
H    -0.681280  -4.758547  4.799566
H    -1.019456  -2.592490  6.118479
O    2.082975  -0.321714  2.828752
Ca    1.554133  2.394050  -0.438282
