22
Energy: -33483.8626415 eV PBE+vdW (tier 2 basis)
N    0.897735  1.355981  1.269239
C    0.096915  0.337901  2.031191
C    0.909884  -0.956565  2.031212
O    2.130934  -0.950546  1.762849
H    0.678902  2.287628  1.642219
H    0.545533  1.391301  0.302342
H    0.842088  -2.824697  2.405003
H    0.086948  0.657481  3.087656
C    -1.381117  0.223835  1.533860
C    -2.386799  -0.381840  2.474862
N    -3.089918  -1.551342  2.200275
C    -2.911542  0.091223  3.653722
C    -3.999201  -1.783293  3.155137
N    -3.890719  -0.794269  4.045894
H    -1.406346  -0.309543  0.572336
H    -1.711776  1.251100  1.316552
H    -2.987574  -2.140668  1.375922
H    -2.694857  0.985647  4.226154
H    -4.697377  -2.614260  3.192861
H    -4.471675  -0.705237  4.880977
O    0.256844  -2.031666  2.361672
Ca    3.335119  0.768831  1.168064
