22
Energy: -33483.138915 eV PBE+vdW (tier 2 basis)
N    0.212721  -0.711128  -0.386209
C    -0.230588  -0.228242  0.904836
C    0.929105  0.589940  1.482705
O    1.966539  0.079606  2.020393
H    1.016757  -1.335749  -0.387723
H    0.248838  -0.034256  -1.146015
H    0.165228  2.288019  0.946651
H    -1.067445  0.466846  0.734480
C    -0.721899  -1.375862  1.820864
C    -1.980193  -2.026502  1.316670
N    -3.147205  -2.102803  2.073101
C    -2.266898  -2.674487  0.139051
C    -4.097833  -2.763460  1.400680
N    -3.571816  -3.109857  0.223470
H    -0.896929  -0.985276  2.833792
H    0.071376  -2.133385  1.912971
H    -3.282308  -1.742807  3.015871
H    -1.655697  -2.862780  -0.733517
H    -5.102958  -2.978307  1.749508
H    -4.071072  -3.630185  -0.498299
O    0.978618  1.891561  1.326215
Ca    3.867659  0.433115  2.860506
