32
Energy: -241840.235782 eV PBE+vdW (tier 2 basis)
C    0.673136  0.034461  1.753060
C    0.310916  1.322565  2.419457
O    1.203828  2.175549  2.721749
H    0.684623  0.157707  0.658352
H    -0.021567  -0.776473  1.997408
H    1.687565  -0.243086  2.059710
N    -0.979433  1.606779  2.688475
C    -2.082977  1.301750  1.785828
C    -1.886586  2.172161  0.510720
O    -0.962584  3.046462  0.453069
H    -1.124307  2.418520  3.289421
H    -2.014778  0.245459  1.483349
C    -3.447384  1.543634  2.462796
C    -3.859612  0.523819  3.551268
C    -3.890400  -0.911856  3.016325
C    -3.052197  0.630030  4.851518
H    -4.217530  1.532135  1.677636
H    -3.460300  2.568009  2.873526
H    -4.897158  0.807043  3.792188
H    -4.345478  -1.584485  3.753551
H    -2.880639  -1.308272  2.822730
H    -4.480156  -0.999686  2.092467
H    -3.524329  0.026517  5.636514
H    -3.009196  1.663123  5.226585
H    -2.025283  0.254846  4.739940
N    -2.702421  1.966648  -0.508389
C    -2.664749  2.709784  -1.771118
H    -3.418347  1.251608  -0.406297
H    -1.699500  2.566905  -2.271119
H    -2.828448  3.778622  -1.590464
H    -3.460077  2.330891  -2.417844
Ba    1.084311  4.170875  1.285745
