32
Energy: -241839.362731 eV PBE+vdW (tier 2 basis)
C    0.017534  -0.156865  -0.222184
C    -0.161764  -0.152812  1.257614
O    0.847244  -0.531121  2.008821
H    0.921941  0.408072  -0.483259
H    -0.836294  0.267781  -0.756517
H    0.165167  -1.190067  -0.567475
N    -1.265700  0.205896  1.848158
C    -2.567391  0.649135  1.320106
C    -3.135566  1.387679  2.569613
O    -2.720598  1.006248  3.679101
H    -1.363292  0.216826  2.894301
H    -2.415992  1.334353  0.476216
C    -3.378354  -0.597986  0.882655
C    -4.790929  -0.371631  0.298399
C    -5.100069  -1.480257  -0.718433
C    -5.874951  -0.328933  1.383413
H    -3.438832  -1.283944  1.742504
H    -2.760939  -1.103989  0.123908
H    -4.791837  0.583474  -0.252700
H    -5.064441  -2.472306  -0.244945
H    -6.106629  -1.353643  -1.136112
H    -4.389394  -1.475881  -1.556388
H    -6.851306  -0.085730  0.945783
H    -5.673887  0.403079  2.175108
H    -5.970874  -1.311867  1.866711
N    -4.003049  2.397885  2.432529
C    -4.569688  3.004961  1.233373
H    -4.321203  2.769820  3.326406
H    -3.962617  2.775979  0.352961
H    -5.594894  2.655136  1.055416
H    -4.584992  4.093199  1.360455
Ba    2.550687  -1.169116  3.368054
