32
Energy: -241840.259835 eV PBE+vdW (tier 2 basis)
C    -0.306187  2.128772  -0.113042
C    -0.285597  1.088820  0.960613
O    0.741513  0.929946  1.691631
H    -0.980892  1.876381  -0.937824
H    0.713371  2.248472  -0.496630
H    -0.614168  3.102102  0.300487
N    -1.366719  0.310095  1.179268
C    -2.735808  0.808358  1.156644
C    -2.924407  1.706477  2.419024
O    -1.938901  1.980155  3.177752
H    -1.206061  -0.468905  1.818429
H    -2.838810  1.485747  0.295059
C    -3.754455  -0.338051  0.978017
C    -3.631477  -1.555728  1.914938
C    -3.755804  -1.209858  3.404704
C    -4.679645  -2.601916  1.509713
H    -3.658979  -0.677905  -0.062922
H    -4.773458  0.075351  1.051794
H    -2.643068  -2.022822  1.745075
H    -3.695407  -2.119443  4.015057
H    -4.722232  -0.734504  3.626988
H    -2.963482  -0.532905  3.766073
H    -4.570987  -3.513721  2.109291
H    -4.582493  -2.884653  0.453722
H    -5.699199  -2.220965  1.665354
N    -4.123324  2.213594  2.638351
C    -4.466400  3.095635  3.755814
H    -4.873436  1.940150  2.008960
H    -5.454682  3.523535  3.568476
H    -3.734095  3.905836  3.835839
H    -4.492712  2.531190  4.696786
Ba    0.383248  1.727771  3.989767
