32
Energy: -241840.816559 eV PBE+vdW (tier 2 basis)
C    -1.094273  -3.823053  0.964342
C    -0.827917  -2.583867  1.755230
O    0.238151  -1.916080  1.575532
H    -2.014711  -4.337062  1.259750
H    -0.246558  -4.513570  1.057406
H    -1.166949  -3.547238  -0.097784
N    -1.747023  -2.184593  2.642052
C    -1.752035  -0.900433  3.362903
C    -0.800497  -0.987891  4.577790
O    0.446482  -0.820047  4.396072
H    -2.592194  -2.746103  2.715994
H    -1.290539  -0.156788  2.695485
C    -3.185925  -0.455536  3.685331
C    -4.049518  0.033821  2.492908
C    -3.393522  1.196281  1.739012
C    -4.503261  -1.076411  1.534930
H    -3.110185  0.377613  4.400393
H    -3.723964  -1.270310  4.203250
H    -4.957456  0.428588  2.975634
H    -4.100421  1.631977  1.022359
H    -2.520045  0.870910  1.151080
H    -3.077866  2.003060  2.415554
H    -5.282137  -0.696447  0.862376
H    -4.939825  -1.933934  2.068814
H    -3.687810  -1.436707  0.890653
N    -1.311414  -1.243421  5.769343
C    -0.558953  -1.367499  7.017205
H    -2.323214  -1.338760  5.826898
H    0.480835  -1.084511  6.841168
H    -0.604796  -2.401964  7.379877
H    -0.997765  -0.705149  7.772160
Ba    2.107300  -0.783880  2.603278
