32
Energy: -241839.556249 eV PBE+vdW (tier 2 basis)
C    0.005760  -0.604892  0.349442
C    -0.425170  -0.172400  1.709823
O    0.483159  -0.048386  2.650004
H    -0.653842  -0.218853  -0.435070
H    -0.017978  -1.704079  0.294048
H    1.032544  -0.279467  0.155076
N    -1.665263  0.075230  2.019936
C    -2.897752  0.064959  1.225482
C    -3.894404  0.745208  2.222454
O    -3.473207  1.060986  3.349811
H    -1.948478  0.438894  2.972546
H    -2.775091  0.747092  0.368394
C    -3.309799  -1.326854  0.695814
C    -3.301089  -2.508567  1.683192
C    -4.330549  -2.374153  2.812549
C    -3.517464  -3.809921  0.898651
H    -2.658452  -1.568178  -0.157172
H    -4.315388  -1.227753  0.256158
H    -2.295487  -2.561569  2.140960
H    -4.325462  -3.273959  3.440661
H    -5.347347  -2.269835  2.406933
H    -4.140839  -1.518704  3.473544
H    -3.462552  -4.680585  1.563768
H    -2.766548  -3.944262  0.107708
H    -4.508367  -3.823905  0.422526
N    -5.133116  0.965869  1.782104
C    -6.184908  1.579991  2.590212
H    -5.376875  0.657676  0.846356
H    -6.677494  2.371630  2.014907
H    -5.730675  2.008162  3.487274
H    -6.930083  0.829989  2.884740
Ba    1.999022  0.257868  4.311346
