32
Energy: -241839.673424 eV PBE+vdW (tier 2 basis)
C    -0.708073  -1.357518  -1.540520
C    -0.909000  -0.186484  -0.638717
O    -0.127440  0.849357  -0.747883
H    -0.805170  -1.038156  -2.587246
H    -1.426462  -2.159903  -1.346229
H    0.309443  -1.750617  -1.409068
N    -1.865050  -0.206993  0.253242
C    -2.215678  0.809177  1.239604
C    -3.157117  0.008735  2.200086
O    -3.590592  -1.076478  1.801909
H    -2.493519  -1.032412  0.398260
H    -1.303447  1.121741  1.772161
C    -2.941005  2.024834  0.599941
C    -2.681266  3.384396  1.273174
C    -1.261415  3.906311  0.992198
C    -3.724145  4.417314  0.830759
H    -4.020389  1.820547  0.593886
H    -2.651640  2.094074  -0.461478
H    -2.768058  3.270457  2.367331
H    -1.052504  4.842087  1.525811
H    -1.179997  4.134804  -0.092642
H    -0.494681  3.172470  1.312777
H    -3.543837  5.395014  1.294876
H    -4.734567  4.097328  1.113220
H    -3.714018  4.553830  -0.260989
N    -3.459333  0.576574  3.375708
C    -4.370434  -0.028851  4.348811
H    -3.004205  1.445681  3.631756
H    -5.157968  0.684166  4.618362
H    -3.823555  -0.325368  5.252086
H    -4.821294  -0.914451  3.893888
Ba    1.144238  2.733702  -1.019519
