32
Energy: -241840.651639 eV PBE+vdW (tier 2 basis)
C    0.130901  -0.153607  -0.068452
C    -0.031539  -0.006007  1.408170
O    0.902368  0.474102  2.123022
H    0.291228  0.842338  -0.505492
H    -0.731965  -0.619869  -0.554854
H    1.030653  -0.745083  -0.282145
N    -1.189690  -0.377152  1.970471
C    -1.536277  -0.131585  3.377394
C    -0.758311  -1.091618  4.303155
O    0.274953  -0.632186  4.892925
H    -1.934465  -0.694447  1.354503
H    -1.121628  0.854500  3.634823
C    -3.059302  -0.067265  3.595929
C    -3.699780  1.315665  3.324764
C    -3.196072  2.391758  4.293358
C    -3.590386  1.771293  1.864151
H    -3.262446  -0.340797  4.642041
H    -3.558311  -0.830475  2.979377
H    -4.769226  1.161730  3.539625
H    -3.772994  3.316626  4.171127
H    -2.143031  2.662694  4.108519
H    -3.292406  2.080030  5.342355
H    -4.196016  2.671073  1.700530
H    -3.958935  1.008049  1.163009
H    -2.558780  2.034346  1.583003
N    -1.109878  -2.354468  4.497315
C    -2.218512  -3.127057  3.929951
H    -0.516908  -2.846714  5.165916
H    -3.139617  -2.980987  4.507052
H    -1.944376  -4.185597  3.969660
H    -2.389736  -2.860494  2.883413
Ba    2.154402  0.757464  4.185423
