32
Energy: -241839.675168 eV PBE+vdW (tier 2 basis)
C    0.133979  -0.169478  -0.027366
C    0.021667  -0.189448  1.461487
O    1.103273  -0.167061  2.181052
H    0.687487  0.724479  -0.345024
H    -0.842730  -0.178261  -0.520678
H    0.707729  -1.046074  -0.358872
N    -1.164825  -0.228015  2.013947
C    -1.561748  -0.269258  3.419262
C    -3.127644  -0.309908  3.299351
O    -3.623486  -0.224221  2.171942
H    -2.049693  -0.217511  1.445403
H    -1.232014  -1.228016  3.854344
C    -1.010931  0.913326  4.256803
C    0.069538  0.518370  5.285854
C    0.983607  1.708563  5.614206
C    -0.522015  -0.090277  6.563733
H    -1.836303  1.404742  4.791597
H    -0.628599  1.673172  3.560966
H    0.662759  -0.305268  4.816319
H    0.429873  2.491830  6.151189
H    1.360916  2.233411  4.711789
H    1.822189  1.435642  6.277226
H    0.258070  -0.390846  7.275009
H    -1.118733  -0.987415  6.348258
H    -1.167707  0.639451  7.071502
N    -3.818189  -0.441736  4.438861
C    -5.280206  -0.505975  4.489364
H    -3.312228  -0.543196  5.312281
H    -5.667154  0.265734  5.164707
H    -5.605876  -1.492919  4.839510
H    -5.667464  -0.335099  3.481753
Ba    2.948065  0.158920  3.515495
