32
Energy: -241840.155619 eV PBE+vdW (tier 2 basis)
C    0.248289  0.400683  0.178228
C    0.012039  0.122287  1.626928
O    0.980671  -0.054625  2.427453
H    0.370511  1.483428  0.013077
H    -0.570323  0.047725  -0.457811
H    1.185681  -0.080066  -0.122557
N    -1.249694  0.085884  2.112533
C    -2.296016  1.037161  1.732424
C    -1.762235  2.459631  2.045444
O    -0.810998  2.621163  2.878159
H    -1.323855  -0.261004  3.069313
H    -2.479267  0.966111  0.649784
C    -3.593857  0.648893  2.478621
C    -4.850300  1.514316  2.222165
C    -6.101666  0.624428  2.214100
C    -5.001994  2.643034  3.252030
H    -3.387458  0.622365  3.562521
H    -3.792110  -0.388391  2.171389
H    -4.771736  1.955524  1.209505
H    -6.055549  -0.134820  1.422558
H    -7.004518  1.225191  2.049888
H    -6.220674  0.106854  3.176695
H    -4.104721  3.269496  3.355263
H    -5.222503  2.224082  4.244277
H    -5.836771  3.304155  2.988322
N    -2.316706  3.469617  1.398185
C    -2.035914  4.888672  1.608223
H    -3.087797  3.243651  0.771925
H    -1.976210  5.391521  0.637079
H    -1.087748  4.998444  2.138577
H    -2.839496  5.346939  2.200074
Ba    1.218521  1.806317  4.035849
