32
Energy: -241840.054998 eV PBE+vdW (tier 2 basis)
C    0.295496  0.499741  0.257485
C    0.056836  0.240678  1.708959
O    1.023625  0.134595  2.522874
H    0.501397  1.568797  0.090122
H    -0.546169  0.199917  -0.374324
H    1.196819  -0.046420  -0.046290
N    -1.207085  0.143421  2.181737
C    -2.298730  1.047090  1.791756
C    -1.780802  2.486110  2.007427
O    -0.898044  2.699488  2.908826
H    -1.269064  -0.187345  3.145235
H    -2.540275  0.893946  0.731543
C    -3.529531  0.659665  2.649708
C    -4.865550  1.394205  2.411970
C    -6.024379  0.456632  2.783954
C    -4.972468  2.705744  3.202017
H    -3.253289  0.750490  3.715381
H    -3.670201  -0.413632  2.451050
H    -4.957397  1.607814  1.334037
H    -5.965289  0.152676  3.839083
H    -6.026602  -0.451563  2.167230
H    -6.988930  0.958933  2.641224
H    -5.000066  2.500863  4.282154
H    -5.901012  3.234061  2.952622
H    -4.142609  3.403176  3.023792
N    -2.198843  3.490374  1.252948
C    -3.175189  3.514253  0.161769
H    -1.814310  4.397440  1.520261
H    -2.800759  4.180486  -0.622832
H    -4.139703  3.892650  0.522199
H    -3.318007  2.517120  -0.261245
Ba    1.123928  2.008570  4.142111
