32
Energy: -241840.741131 eV PBE+vdW (tier 2 basis)
C    -2.366053  -2.259617  0.908605
C    -1.710874  -1.171954  1.697461
O    -0.499078  -1.279323  2.064264
H    -3.424078  -2.068698  0.701369
H    -2.267836  -3.214702  1.440049
H    -1.830437  -2.368008  -0.045449
N    -2.428832  -0.082516  1.992515
C    -1.925958  1.169220  2.582173
C    -1.802649  1.031287  4.118884
O    -0.843544  0.343835  4.594066
H    -3.389825  -0.056434  1.657277
H    -0.885120  1.284686  2.240561
C    -2.740731  2.367288  2.067089
C    -4.294991  2.263970  2.154485
C    -4.898960  3.574603  2.679784
C    -4.918401  1.896575  0.798127
H    -2.449976  2.531684  1.019839
H    -2.380549  3.256556  2.604977
H    -4.571086  1.462477  2.868208
H    -4.523641  3.847011  3.679690
H    -5.991358  3.506898  2.748125
H    -4.657134  4.411423  2.010055
H    -4.519691  0.965015  0.364866
H    -4.729427  2.688710  0.060220
H    -6.004700  1.774048  0.885660
N    -2.675552  1.648328  4.894230
C    -2.680810  1.636098  6.356015
H    -3.408333  2.185245  4.433536
H    -3.567189  1.102222  6.720912
H    -2.708329  2.667241  6.726867
H    -1.778531  1.139083  6.717756
Ba    1.000673  -1.119250  3.946785
