32
Energy: -241840.768621 eV PBE+vdW (tier 2 basis)
C    -1.700708  0.274302  0.637379
C    -0.975323  -0.007791  1.913930
O    0.175531  -0.539824  1.889793
H    -2.606010  0.875591  0.771059
H    -1.983632  -0.688462  0.185581
H    -1.029196  0.776464  -0.069122
N    -1.591986  0.301558  3.062964
C    -1.217090  -0.042731  4.452329
C    -0.004306  0.769518  4.934965
O    1.164568  0.517505  4.511435
H    -2.512456  0.718619  2.958734
H    -2.082893  0.277613  5.047107
C    -1.017153  -1.548484  4.725668
C    -2.290449  -2.429674  4.702133
C    -3.347250  -1.958601  5.708054
C    -2.888577  -2.633269  3.303467
H    -0.564662  -1.623554  5.727126
H    -0.286554  -1.967663  4.015381
H    -1.932681  -3.414279  5.044845
H    -4.150281  -2.701198  5.790073
H    -3.831594  -1.018259  5.400560
H    -2.929534  -1.819767  6.714999
H    -3.626410  -3.444534  3.325292
H    -2.125564  -2.910146  2.561236
H    -3.418744  -1.741702  2.939507
N    -0.231825  1.707231  5.843808
C    0.785866  2.548730  6.472873
H    -1.194871  1.857141  6.134026
H    0.625784  2.557508  7.556701
H    0.713673  3.575287  6.091920
H    1.775660  2.144032  6.250862
Ba    2.385593  -0.742270  2.820457
