32
Energy: -241840.118375 eV PBE+vdW (tier 2 basis)
C    0.054926  0.004519  0.452388
C    -0.407234  0.178742  1.863525
O    0.340388  0.749903  2.718035
H    -0.545650  0.643755  -0.211004
H    -0.065167  -1.024843  0.091273
H    1.101775  0.307292  0.366999
N    -1.624280  -0.258972  2.262464
C    -2.219473  -1.542170  1.869802
C    -1.224984  -2.662177  2.282740
O    -0.186875  -2.391674  2.974117
H    -1.877831  0.067188  3.193946
H    -3.083630  -1.658223  2.544143
C    -2.768486  -1.606918  0.414146
C    -4.249005  -2.038416  0.286752
C    -4.507957  -3.492285  0.699471
C    -5.196324  -1.071153  1.004427
H    -2.132139  -2.255448  -0.206077
H    -2.683920  -0.596772  -0.005358
H    -4.459258  -1.967829  -0.792339
H    -5.545038  -3.777518  0.482938
H    -4.379237  -3.655362  1.783734
H    -3.878582  -4.203218  0.137160
H    -6.241389  -1.330141  0.794817
H    -5.041795  -0.033410  0.680542
H    -5.086556  -1.105860  2.100887
N    -1.508802  -3.900216  1.928234
C    -0.714036  -5.074563  2.292410
H    -2.368954  -4.053424  1.399527
H    0.312277  -4.971626  1.921462
H    -1.171820  -5.954825  1.833989
H    -0.696360  -5.206788  3.381115
Ba    1.370094  -0.918726  4.202265
