32
Energy: -241839.289178 eV PBE+vdW (tier 2 basis)
C    0.592626  0.517392  0.870178
C    -0.231202  -0.461593  1.634731
O    0.142840  -1.720571  1.645298
H    1.622878  0.503977  1.251346
H    0.205418  1.537988  0.927638
H    0.630641  0.215266  -0.185521
N    -1.303223  -0.132372  2.298158
C    -2.004176  1.156062  2.454842
C    -2.788345  0.881316  3.771964
O    -3.173704  -0.287589  3.945978
H    -1.868121  -0.841139  2.819538
H    -1.276100  1.969406  2.550324
C    -2.922043  1.346137  1.213673
C    -3.655555  2.686243  0.994585
C    -4.875487  2.893105  1.898949
C    -2.710199  3.892986  0.978517
H    -3.653345  0.523373  1.220739
H    -2.272399  1.180015  0.339229
H    -4.049042  2.582087  -0.030841
H    -5.449479  3.765934  1.563574
H    -4.607044  3.071287  2.946613
H    -5.548994  2.026139  1.870510
H    -3.239038  4.788595  0.629669
H    -1.858878  3.737160  0.299420
H    -2.312107  4.134463  1.973768
N    -3.001608  1.853703  4.668796
C    -2.524217  3.230527  4.709073
H    -3.570528  1.544559  5.455716
H    -2.194208  3.460875  5.728430
H    -3.311871  3.941131  4.425739
H    -1.671060  3.369638  4.039402
Ba    0.740859  -3.911826  1.683049
