32
Energy: -241840.755597 eV PBE+vdW (tier 2 basis)
C    -2.612108  -2.386238  1.179788
C    -1.859110  -1.263954  1.818382
O    -0.649959  -1.417304  2.174953
H    -3.657777  -2.141882  0.966168
H    -2.572210  -3.273422  1.824516
H    -2.109228  -2.651897  0.238890
N    -2.487888  -0.094767  1.991160
C    -1.875251  1.171441  2.416841
C    -1.705196  1.208391  3.954935
O    -0.735989  0.559216  4.466338
H    -3.447770  -0.030426  1.658842
H    -0.834767  1.145436  2.057691
C    -2.566075  2.376265  1.724947
C    -4.084706  2.344832  1.430861
C    -4.995654  2.254383  2.662645
C    -4.438582  3.583571  0.593038
H    -2.056267  2.499510  0.759294
H    -2.317645  3.285349  2.294807
H    -4.297054  1.471443  0.784464
H    -4.874043  3.136362  3.315719
H    -4.853968  1.339744  3.259805
H    -6.049980  2.258546  2.359041
H    -5.495734  3.565123  0.302333
H    -3.840546  3.637185  -0.325582
H    -4.266153  4.507916  1.162711
N    -2.531832  1.924095  4.691288
C    -2.471895  2.072228  6.144103
H    -3.297000  2.393437  4.207407
H    -3.301801  1.527474  6.612179
H    -2.554362  3.134407  6.400439
H    -1.521841  1.678293  6.510953
Ba    0.963390  -1.106754  3.946044
