32
Energy: -241840.601349 eV PBE+vdW (tier 2 basis)
C    1.413158  -0.803596  1.198857
C    0.907404  -0.466745  2.567471
O    1.690302  -0.501858  3.557181
H    0.649514  -0.744029  0.416650
H    1.832667  -1.818613  1.214430
H    2.236967  -0.121786  0.947462
N    -0.391458  -0.142268  2.683484
C    -1.224086  0.267548  3.841753
C    -0.587005  1.388028  4.680146
O    0.334840  1.157461  5.517641
H    -0.908744  -0.174786  1.809250
H    -2.089755  0.722119  3.346502
C    -1.863843  -0.866146  4.692711
C    -1.104869  -1.696811  5.748780
C    -2.130605  -2.374977  6.673326
C    -0.160690  -2.759513  5.164574
H    -2.334256  -1.558203  3.975899
H    -2.703584  -0.374829  5.208687
H    -0.548548  -0.987069  6.397635
H    -1.633531  -2.988797  7.435181
H    -2.791762  -3.038091  6.098159
H    -2.757598  -1.638479  7.190943
H    0.378695  -3.296475  5.961696
H    0.562445  -2.377470  4.427825
H    -0.735391  -3.530325  4.632078
N    -1.062871  2.622816  4.550859
C    -2.115928  3.126939  3.661118
H    -0.628949  3.301370  5.176619
H    -2.169856  4.211605  3.789416
H    -3.095539  2.706371  3.921088
H    -1.881172  2.923551  2.609736
Ba    2.152311  -0.429556  5.934668
