32
Energy: -241840.656264 eV PBE+vdW (tier 2 basis)
C    -0.456379  1.675776  0.165525
C    -0.987345  0.999272  1.385821
O    -1.450154  1.674144  2.357440
H    -1.269220  2.252936  -0.297956
H    -0.049673  0.978701  -0.574182
H    0.322295  2.394206  0.452956
N    -0.981296  -0.339499  1.435523
C    -1.619151  -1.130081  2.498521
C    -0.793516  -1.045125  3.801452
O    -1.200175  -0.243037  4.705766
H    -0.666718  -0.842256  0.609099
H    -2.556241  -0.612955  2.758458
C    -1.985806  -2.548756  2.024926
C    -3.359143  -2.663767  1.328894
C    -3.477178  -1.815284  0.056176
C    -3.646763  -4.140589  1.032898
H    -1.990239  -3.210694  2.903607
H    -1.200644  -2.939541  1.357071
H    -4.117500  -2.309993  2.050573
H    -4.449672  -1.983990  -0.422360
H    -2.707926  -2.090209  -0.682370
H    -3.405376  -0.734245  0.245565
H    -4.648213  -4.259911  0.601978
H    -3.601101  -4.756507  1.940916
H    -2.927194  -4.549711  0.308906
N    0.306398  -1.754842  4.008096
C    0.994491  -2.712359  3.137528
H    0.714672  -1.617285  4.932933
H    0.562237  -3.715821  3.232504
H    2.043620  -2.751766  3.445830
H    0.959705  -2.390924  2.093046
Ba    -2.001803  2.063810  4.690072
