32
Energy: -241840.818081 eV PBE+vdW (tier 2 basis)
C    -0.817481  0.110421  -0.074938
C    -0.553772  0.020871  1.394542
O    0.521540  -0.493828  1.819650
H    -0.827961  -0.906967  -0.490762
H    0.009978  0.644750  -0.559692
H    -1.761424  0.605861  -0.324089
N    -1.495658  0.496247  2.228884
C    -1.541085  0.428848  3.707432
C    -0.535225  1.419903  4.320199
O    0.712073  1.226511  4.231424
H    -2.317840  0.891238  1.781222
H    -2.546369  0.790003  3.964035
C    -1.452567  -1.025221  4.226819
C    -1.393973  -1.226915  5.759750
C    -2.141127  -2.511990  6.142470
C    0.046730  -1.273706  6.296075
H    -0.615515  -1.558458  3.749640
H    -2.349063  -1.522126  3.829349
H    -1.908471  -0.381664  6.248953
H    -3.194777  -2.467428  5.839022
H    -2.114354  -2.675165  7.226754
H    -1.690258  -3.393220  5.662486
H    0.064858  -1.489196  7.371786
H    0.586589  -0.322807  6.168079
H    0.602485  -2.104622  5.818824
N    -1.041115  2.473874  4.947764
C    -0.264506  3.531260  5.594159
H    -2.053405  2.565673  4.976573
H    -0.433025  4.484002  5.077259
H    0.796016  3.274954  5.551032
H    -0.580446  3.630817  6.639134
Ba    2.252147  -0.539921  3.520167
