32
Energy: -241840.198859 eV PBE+vdW (tier 2 basis)
C    -1.102761  1.390932  -0.444448
C    -0.355757  1.004985  0.791371
O    0.418409  1.827452  1.372539
H    -2.070030  1.847893  -0.180437
H    -1.296866  0.537205  -1.102715
H    -0.521982  2.148306  -0.982139
N    -0.520353  -0.223379  1.324915
C    -1.807812  -0.907083  1.411763
C    -2.739902  -0.027457  2.279708
O    -2.246923  0.914435  2.989163
H    0.140288  -0.461576  2.064626
H    -2.239681  -0.994433  0.403776
C    -1.632927  -2.319145  2.017227
C    -1.109042  -3.409350  1.053211
C    -2.085788  -3.679349  -0.096696
C    0.315127  -3.161278  0.542134
H    -2.602610  -2.646679  2.416031
H    -0.968722  -2.233436  2.894602
H    -1.079260  -4.317894  1.676667
H    -1.746250  -4.534874  -0.693280
H    -2.157995  -2.830495  -0.796145
H    -3.095105  -3.919377  0.265852
H    0.683050  -4.047231  0.010204
H    1.020949  -2.965828  1.362692
H    0.366178  -2.322433  -0.166740
N    -4.044825  -0.249619  2.290926
C    -4.822123  -1.242455  1.544312
H    -4.570806  0.341754  2.934780
H    -5.753949  -0.773885  1.210173
H    -5.067039  -2.099758  2.184502
H    -4.273531  -1.593629  0.666899
Ba    -0.498796  2.571633  3.541055
