32
Energy: -241840.680129 eV PBE+vdW (tier 2 basis)
C    1.271776  -0.578781  -0.066363
C    0.623092  0.561555  0.650429
O    0.362944  1.644509  0.038661
H    1.467173  -1.440931  0.579470
H    2.214543  -0.244321  -0.518099
H    0.615399  -0.891426  -0.890812
N    0.316104  0.403701  1.942762
C    -0.487578  1.321495  2.763977
C    0.374265  2.509375  3.253228
O    0.606402  3.461365  2.439232
H    0.514558  -0.504129  2.361450
H    -1.194203  1.809784  2.074034
C    -1.354424  0.554378  3.795899
C    -0.839240  -0.648985  4.637046
C    -0.502329  -1.915302  3.826614
C    0.274583  -0.346892  5.646622
H    -2.218176  0.183456  3.225137
H    -1.770246  1.309994  4.480013
H    -1.731147  -0.904855  5.230716
H    0.529706  -1.920112  3.430422
H    -1.205051  -2.089841  3.000750
H    -0.546063  -2.797661  4.477333
H    0.450824  -1.218198  6.290445
H    0.006772  0.473622  6.333328
H    1.243066  -0.136029  5.163223
N    0.831261  2.544490  4.488065
C    1.630870  3.638132  5.042231
H    0.631706  1.746833  5.091511
H    1.140535  4.598770  4.849868
H    2.633288  3.649473  4.596227
H    1.720507  3.487419  6.121197
Ba    0.488080  4.054111  0.079382
