32
Energy: -241840.726528 eV PBE+vdW (tier 2 basis)
C    -2.382522  -0.296614  0.467287
C    -1.512291  0.284286  1.536862
O    -0.296823  -0.062193  1.626150
H    -3.396442  0.116187  0.452035
H    -2.443624  -1.383486  0.620998
H    -1.913546  -0.139060  -0.512384
N    -2.066341  1.166297  2.382162
C    -1.515580  1.758425  3.620661
C    -0.427624  2.800303  3.333203
O    0.708622  2.448906  2.884741
H    -3.051516  1.355081  2.221384
H    -2.371140  2.280780  4.061271
C    -1.031398  0.733599  4.664840
C    -2.086153  -0.303694  5.098263
C    -1.450479  -1.280194  6.095494
C    -3.342424  0.349977  5.686439
H    -0.700241  1.308176  5.545700
H    -0.140912  0.199222  4.296421
H    -2.381136  -0.882241  4.205687
H    -2.161766  -2.067108  6.373840
H    -1.147889  -0.767369  7.019699
H    -0.562902  -1.775263  5.675721
H    -4.044157  -0.417564  6.034628
H    -3.893772  0.966008  4.960127
H    -3.096542  0.982286  6.552336
N    -0.663010  4.076796  3.604559
C    -1.885963  4.700097  4.127593
H    0.130011  4.695487  3.434550
H    -1.722125  5.780672  4.158918
H    -2.103673  4.357759  5.146645
H    -2.742502  4.507170  3.471315
Ba    1.994860  0.570270  2.027858
