32
Energy: -241840.814427 eV PBE+vdW (tier 2 basis)
C    -0.896840  -2.061895  0.366096
C    -0.975706  -0.983219  1.396940
O    0.034660  -0.690848  2.108672
H    -0.141543  -1.776783  -0.380213
H    -1.847594  -2.246656  -0.144394
H    -0.549509  -2.992726  0.832575
N    -2.130794  -0.320629  1.543606
C    -2.337312  0.874500  2.384519
C    -2.497277  0.432577  3.856718
O    -1.452950  0.273329  4.564920
H    -2.901117  -0.587723  0.934563
H    -1.397096  1.447079  2.357869
C    -3.449508  1.747678  1.783176
C    -3.424791  3.235061  2.195042
C    -4.494679  3.994555  1.400659
C    -3.586672  3.476317  3.700597
H    -4.448729  1.316632  1.978252
H    -3.328306  1.702606  0.689767
H    -2.438200  3.628934  1.891177
H    -5.505894  3.651939  1.664378
H    -4.366567  3.868157  0.317554
H    -4.445779  5.068615  1.616532
H    -3.575625  4.552703  3.911389
H    -2.780969  3.031144  4.304076
H    -4.547373  3.088419  4.071867
N    -3.709698  0.195587  4.321902
C    -4.040373  -0.225895  5.681512
H    -4.487676  0.403967  3.700118
H    -4.668134  -1.123741  5.645135
H    -4.590391  0.574901  6.191791
H    -3.119671  -0.439398  6.227873
Ba    0.933329  -0.166304  4.291593
