32
Energy: -241839.584869 eV PBE+vdW (tier 2 basis)
C    -0.876337  0.554569  -0.446736
C    -0.833552  0.812910  1.020926
O    0.037608  1.684510  1.476254
H    -0.935051  1.508961  -0.985623
H    -1.718257  -0.077171  -0.742485
H    0.055306  0.059699  -0.756830
N    -1.614309  0.219083  1.877144
C    -2.677765  -0.776720  1.703739
C    -3.437349  -0.631904  3.058927
O    -2.853511  -0.050775  3.990416
H    -1.606130  0.450837  2.906182
H    -3.326423  -0.489088  0.864875
C    -2.079996  -2.188647  1.491333
C    -3.075080  -3.322375  1.174719
C    -3.938254  -3.027534  -0.058603
C    -2.292686  -4.630576  0.995435
H    -1.495191  -2.448936  2.386769
H    -1.362436  -2.121847  0.656734
H    -3.734462  -3.459624  2.047721
H    -4.592800  -3.878498  -0.283645
H    -3.314116  -2.855869  -0.948832
H    -4.594260  -2.150137  0.057219
H    -2.977477  -5.471187  0.829598
H    -1.686542  -4.865533  1.880407
H    -1.620117  -4.575998  0.126890
N    -4.665649  -1.150238  3.128645
C    -5.481916  -1.148535  4.341125
H    -5.045965  -1.599565  2.301660
H    -6.463194  -0.708954  4.128781
H    -4.971816  -0.553861  5.102928
H    -5.617884  -2.172121  4.711908
Ba    1.496563  3.198132  2.330590
