32
Energy: -241840.799905 eV PBE+vdW (tier 2 basis)
C    -0.188298  1.060686  0.373242
C    -0.474115  0.600779  1.765528
O    0.365520  0.794567  2.698535
H    0.766986  0.638914  0.035026
H    -0.069706  2.153590  0.383663
H    -0.973410  0.795789  -0.342360
N    -1.641350  -0.008282  2.013456
C    -2.146161  -0.375046  3.349623
C    -1.452712  -1.673916  3.815764
O    -0.348978  -1.587134  4.441679
H    -2.282958  -0.123871  1.231924
H    -1.792800  0.401869  4.043004
C    -3.683366  -0.357202  3.346956
C    -4.367927  -0.251187  4.731152
C    -4.198049  -1.488299  5.620993
C    -3.971798  1.032019  5.473130
H    -4.086463  -1.222803  2.792030
H    -3.979426  0.526413  2.760311
H    -5.440089  -0.168908  4.492924
H    -4.816614  -1.390886  6.521629
H    -3.160850  -1.620147  5.967136
H    -4.514166  -2.411902  5.115591
H    -4.608376  1.173313  6.355006
H    -4.082232  1.925733  4.843689
H    -2.934529  0.996475  5.844403
N    -2.006187  -2.834396  3.515758
C    -1.490872  -4.151923  3.881743
H    -2.916800  -2.804535  3.062849
H    -0.502940  -4.041105  4.332866
H    -1.423095  -4.781617  2.987125
H    -2.169879  -4.625439  4.602218
Ba    1.526639  -0.035551  4.651406
