32
Energy: -241840.087105 eV PBE+vdW (tier 2 basis)
C    0.404173  0.019513  1.582276
C    -0.655747  0.695493  2.388138
O    -0.370011  1.690081  3.127188
H    0.158973  0.090205  0.513796
H    0.483232  -1.051035  1.818609
H    1.367976  0.502191  1.763093
N    -1.938902  0.270405  2.352172
C    -2.367196  -1.136171  2.372779
C    -1.679694  -1.806223  3.597977
O    -1.153135  -1.091693  4.512847
H    -2.586453  0.919240  2.795846
H    -3.434468  -1.086962  2.644049
C    -2.300131  -1.918131  1.045849
C    -3.110059  -1.323824  -0.136204
C    -4.543242  -0.951594  0.259290
C    -2.398675  -0.177448  -0.865283
H    -2.735535  -2.910868  1.247079
H    -1.258783  -2.094341  0.743393
H    -3.177475  -2.157896  -0.852990
H    -5.135289  -0.718324  -0.633972
H    -4.582500  -0.053282  0.896242
H    -5.060155  -1.770877  0.780163
H    -2.956834  0.093078  -1.770359
H    -1.390198  -0.467561  -1.192500
H    -2.327064  0.732987  -0.254678
N    -1.696450  -3.123504  3.688909
C    -1.174586  -3.886463  4.825512
H    -2.109473  -3.642519  2.918583
H    -0.093898  -3.731341  4.927959
H    -1.366776  -4.947167  4.645655
H    -1.676396  -3.582845  5.751642
Ba    -0.332596  1.028574  5.494866
