32
Energy: -241840.763332 eV PBE+vdW (tier 2 basis)
C    -1.757026  -1.900584  0.587898
C    -1.242840  -0.781857  1.435340
O    -0.021146  -0.743789  1.783931
H    -2.834562  -1.843833  0.402515
H    -1.520546  -2.862393  1.060499
H    -1.228402  -1.879149  -0.375862
N    -2.095901  0.180533  1.803327
C    -1.737943  1.439136  2.481801
C    -1.562541  1.195419  3.996898
O    -0.464352  0.701930  4.409679
H    -3.063532  0.095176  1.498173
H    -0.720602  1.684995  2.139657
C    -2.636785  2.606301  2.015992
C    -4.159077  2.673625  2.302516
C    -4.725578  3.884445  1.544374
C    -4.950651  1.403334  1.958072
H    -2.502054  2.652779  0.923148
H    -2.173824  3.526725  2.401871
H    -4.327529  2.900336  3.373948
H    -4.188715  4.808871  1.793331
H    -5.783311  4.035653  1.791052
H    -4.654002  3.733461  0.457798
H    -4.706627  0.541939  2.600814
H    -4.814974  1.120693  0.900996
H    -6.025811  1.577860  2.088658
N    -2.546192  1.502412  4.821260
C    -2.526474  1.333222  6.273410
H    -3.380859  1.914352  4.404292
H    -1.496966  1.191903  6.610025
H    -3.130379  0.463003  6.561254
H    -2.947036  2.228964  6.742819
Ba    1.537238  -0.438461  3.601514
