32
Energy: -241840.697248 eV PBE+vdW (tier 2 basis)
C    0.865656  0.269497  0.436923
C    0.476548  0.226935  1.882259
O    1.313551  0.549428  2.771481
H    0.065937  -0.033249  -0.246664
H    1.735567  -0.383330  0.283459
H    1.184169  1.290173  0.185099
N    -0.772653  -0.169947  2.174372
C    -1.512910  -0.311348  3.454360
C    -1.421183  0.929872  4.361102
O    -0.388620  1.209944  5.034140
H    -1.331797  -0.414151  1.361474
H    -2.554750  -0.346522  3.108163
C    -1.347461  -1.657200  4.216462
C    -0.124203  -2.007257  5.090610
C    -0.508114  -3.153442  6.042246
C    1.132644  -2.399512  4.297766
H    -1.485413  -2.455581  3.469948
H    -2.236000  -1.711864  4.864176
H    0.079454  -1.134740  5.748044
H    0.340019  -3.445794  6.674327
H    -0.814648  -4.042282  5.473366
H    -1.338317  -2.871289  6.701472
H    0.962752  -3.338909  3.753147
H    1.982327  -2.602394  4.969927
H    1.438741  -1.671443  3.531283
N    -2.515807  1.676532  4.453548
C    -2.631675  2.855354  5.314460
H    -3.323662  1.423961  3.892198
H    -3.685734  3.138573  5.374392
H    -2.056742  3.693418  4.900622
H    -2.259995  2.623048  6.318276
Ba    2.024330  0.763425  5.072383
