32
Energy: -241840.802337 eV PBE+vdW (tier 2 basis)
C    0.355921  -1.034901  0.762780
C    -0.543521  -0.166523  1.583612
O    -0.219282  0.152392  2.764672
H    -0.010560  -1.213276  -0.253320
H    0.472510  -2.000614  1.274501
H    1.352883  -0.577995  0.712281
N    -1.694483  0.247971  1.023836
C    -2.797242  1.017578  1.647658
C    -2.352798  2.476453  1.862941
O    -1.558039  2.792851  2.794938
H    -1.856924  -0.064661  0.070801
H    -3.583966  1.033865  0.882171
C    -3.376309  0.264734  2.871296
C    -4.485422  0.928059  3.723213
C    -3.946825  1.837277  4.838405
C    -5.570730  1.624242  2.892017
H    -2.558406  -0.065146  3.530004
H    -3.775441  -0.669604  2.449968
H    -4.970307  0.080676  4.232559
H    -4.756836  2.167512  5.501183
H    -3.465263  2.749653  4.456552
H    -3.249476  1.279005  5.495003
H    -5.214374  2.555391  2.427553
H    -6.423070  1.896828  3.525955
H    -5.957865  0.967139  2.101361
N    -2.833984  3.376580  1.015084
C    -2.530643  4.806710  1.030569
H    -3.478096  3.051956  0.298303
H    -2.015950  5.087365  0.103486
H    -1.890286  5.028468  1.886699
H    -3.463210  5.378117  1.108362
Ba    -0.326339  1.725879  4.613940
