32
Energy: -241839.514624 eV PBE+vdW (tier 2 basis)
C    -2.576381  1.326296  0.360143
C    -1.897000  1.191304  1.677694
O    -1.203821  2.215202  2.127294
H    -3.212158  2.221812  0.368496
H    -3.184478  0.455939  0.105300
H    -1.822185  1.470483  -0.426601
N    -1.945833  0.121197  2.416743
C    -2.626856  -1.169972  2.267981
C    -2.544717  -1.692468  3.744174
O    -1.823302  -1.063727  4.542059
H    -1.515574  0.090395  3.386789
H    -3.677540  -1.002856  1.989456
C    -1.918266  -2.113625  1.247834
C    -2.823691  -2.945062  0.307573
C    -3.744295  -3.941929  1.021065
C    -3.615089  -2.082905  -0.681887
H    -1.248891  -2.786544  1.802774
H    -1.264311  -1.491074  0.619780
H    -2.108978  -3.541523  -0.282588
H    -4.224517  -4.606570  0.292066
H    -4.573974  -3.438065  1.547400
H    -3.195764  -4.584826  1.723894
H    -4.158913  -2.716215  -1.394005
H    -2.957594  -1.428239  -1.270862
H    -4.377012  -1.462684  -0.182007
N    -3.239378  -2.785994  4.048776
C    -3.222877  -3.422226  5.364208
H    -3.772239  -3.235408  3.308987
H    -2.778615  -4.423033  5.296398
H    -4.245410  -3.508632  5.749753
H    -2.627364  -2.807816  6.043702
Ba    -0.026477  3.937307  3.011303
