32
Energy: -241840.484416 eV PBE+vdW (tier 2 basis)
C    0.032983  0.267393  0.437842
C    0.001182  0.647920  1.885194
O    0.906558  1.386651  2.370677
H    -0.831625  -0.323164  0.117956
H    0.948272  -0.309640  0.244080
H    0.093600  1.177714  -0.172818
N    -1.007604  0.170989  2.629365
C    -1.286597  0.335434  4.070165
C    -1.010319  1.770991  4.548560
O    0.095401  2.110237  5.068179
H    -1.655229  -0.442165  2.141324
H    -2.377493  0.230358  4.122641
C    -0.741120  -0.760081  5.044542
C    0.529656  -1.604357  4.795018
C    0.432304  -2.567344  3.602796
C    1.860550  -0.841728  4.781395
H    -1.558881  -1.485312  5.154763
H    -0.654481  -0.273704  6.027750
H    0.566941  -2.236155  5.697915
H    1.235640  -3.313570  3.647023
H    0.522231  -2.060015  2.632994
H    -0.517569  -3.117638  3.611912
H    2.706850  -1.534765  4.869079
H    1.923033  -0.144650  5.635989
H    1.987865  -0.324997  3.812048
N    -1.998189  2.657106  4.458762
C    -3.353200  2.475462  3.925124
H    -1.784831  3.568042  4.863558
H    -3.834449  3.456877  3.889828
H    -3.953502  1.825334  4.575039
H    -3.327998  2.073683  2.906112
Ba    2.324871  2.342346  4.110453
