32
Energy: -241839.585458 eV PBE+vdW (tier 2 basis)
C    0.000294  -0.308595  0.246135
C    -0.222953  -0.193601  1.715343
O    0.799166  -0.376163  2.519447
H    -0.816846  0.121172  -0.340345
H    0.095232  -1.370505  -0.025541
H    0.940171  0.186577  -0.025101
N    -1.380501  0.069332  2.248853
C    -2.701257  0.307305  1.659776
C    -3.487545  0.856231  2.892982
O    -2.948019  0.784207  4.009983
H    -1.503937  0.191697  3.288827
H    -2.618172  1.098288  0.898938
C    -3.364572  -0.941089  1.032651
C    -3.820390  -2.068991  1.976644
C    -4.635243  -3.090098  1.170661
C    -2.666166  -2.761942  2.715586
H    -2.688316  -1.350708  0.265088
H    -4.238517  -0.575855  0.471408
H    -4.490145  -1.630061  2.735509
H    -5.026821  -3.878795  1.824790
H    -4.018484  -3.575038  0.399641
H    -5.491323  -2.621256  0.667812
H    -3.038160  -3.638269  3.261209
H    -2.186833  -2.107355  3.456816
H    -1.899913  -3.119492  2.009158
N    -4.702421  1.357145  2.657510
C    -5.585915  1.874095  3.701376
H    -5.043977  1.370313  1.701616
H    -5.861704  2.911512  3.479215
H    -5.055131  1.834563  4.655783
H    -6.495762  1.264882  3.765509
Ba    2.509260  -0.696415  3.974633
