32
Energy: -241840.176778 eV PBE+vdW (tier 2 basis)
C    0.592183  1.301875  0.466246
C    0.349731  0.661515  1.793855
O    1.315166  0.296221  2.531512
H    0.716582  2.390000  0.585605
H    -0.220973  1.123626  -0.245379
H    1.531860  0.913075  0.058428
N    -0.912168  0.483461  2.246862
C    -1.984488  1.463507  2.085186
C    -1.525398  2.784984  2.750139
O    -0.533775  2.782633  3.552961
H    -0.984440  -0.091881  3.085353
H    -2.115548  1.660774  1.010701
C    -3.326185  0.890186  2.612270
C    -3.572573  0.727128  4.132661
C    -2.528392  -0.115251  4.882204
C    -3.843701  2.046232  4.867674
H    -3.430071  -0.087565  2.117999
H    -4.136749  1.508481  2.204843
H    -4.508684  0.146881  4.172852
H    -2.881762  -0.358617  5.891979
H    -1.582808  0.446373  5.024357
H    -2.311129  -1.073120  4.385204
H    -4.221410  1.848919  5.878951
H    -4.605522  2.647254  4.354051
H    -2.940242  2.662597  4.983247
N    -2.140713  3.920522  2.460738
C    -3.288140  4.152504  1.580911
H    -1.791066  4.732329  2.969993
H    -3.194327  5.154176  1.149879
H    -4.227807  4.096344  2.145039
H    -3.310315  3.427240  0.762015
Ba    1.400757  1.652478  4.600195
