32
Energy: -241840.628212 eV PBE+vdW (tier 2 basis)
C    0.356900  -0.211876  0.279920
C    0.150359  -0.221945  1.758767
O    1.137768  -0.279654  2.554755
H    0.957942  0.668971  0.013513
H    -0.578016  -0.189999  -0.289311
H    0.938146  -1.095940  -0.013553
N    -1.100876  -0.157877  2.237201
C    -1.432712  -0.009045  3.664909
C    -1.159226  -1.339662  4.401848
O    -0.086237  -1.419462  5.088099
H    -1.859461  -0.059594  1.566274
H    -0.684509  0.677839  4.089637
C    -2.806326  0.662877  3.833937
C    -3.093393  1.246094  5.233180
C    -4.371716  2.092031  5.166713
C    -3.199167  0.185136  6.335895
H    -3.622556  -0.010929  3.538551
H    -2.818860  1.495442  3.112284
H    -2.256186  1.922682  5.483712
H    -4.567114  2.572559  6.132921
H    -5.247409  1.472398  4.924815
H    -4.299102  2.884598  4.410281
H    -3.985081  -0.551112  6.110659
H    -3.470051  0.656222  7.288880
H    -2.258953  -0.355959  6.514467
N    -1.950927  -2.398238  4.314544
C    -3.206326  -2.596093  3.586606
H    -1.637721  -3.186247  4.881794
H    -4.065282  -2.273174  4.187611
H    -3.307614  -3.665619  3.377213
H    -3.199605  -2.063861  2.631945
Ba    2.237875  -0.821934  4.653802
