32
Energy: -241840.681934 eV PBE+vdW (tier 2 basis)
C    -1.761157  0.252835  0.435529
C    -1.111133  0.085829  1.772386
O    0.103219  -0.271201  1.848624
H    -2.776937  0.658041  0.487961
H    -1.798795  -0.730929  -0.054881
H    -1.143260  0.902211  -0.196928
N    -1.859835  0.313271  2.860992
C    -1.565533  0.049634  4.285659
C    -0.540281  1.033890  4.857378
O    0.674511  1.000507  4.483000
H    -2.820361  0.581699  2.668617
H    -2.520542  0.234220  4.789360
C    -1.152170  -1.406724  4.609763
C    -2.315679  -2.421535  4.703322
C    -3.267986  -2.101744  5.862008
C    -3.072875  -2.621540  3.384509
H    -0.632269  -1.390857  5.580656
H    -0.423855  -1.756562  3.861561
H    -1.820680  -3.376643  4.943754
H    -3.995425  -2.912173  5.992755
H    -3.858376  -1.188790  5.683328
H    -2.733286  -1.986652  6.815133
H    -3.741930  -3.487210  3.461120
H    -2.395421  -2.807768  2.538826
H    -3.710943  -1.760601  3.134366
N    -0.917004  1.888248  5.798809
C    -2.250302  2.088743  6.382375
H    -0.163111  2.469030  6.166060
H    -2.171584  2.885002  7.127464
H    -2.604397  1.181675  6.887187
H    -2.973248  2.406547  5.621812
Ba    2.235783  -0.048684  2.943998
