32
Energy: -241840.76964 eV PBE+vdW (tier 2 basis)
C    -1.688241  0.512994  0.700041
C    -0.975806  0.111121  1.951737
O    0.228913  -0.282407  1.901190
H    -1.074160  1.227028  0.137721
H    -2.678036  0.945886  0.877991
H    -1.803339  -0.379978  0.068002
N    -1.657363  0.169564  3.104077
C    -1.283411  -0.335293  4.443832
C    -0.186179  0.524126  5.091701
O    1.016589  0.461332  4.693446
H    -2.616548  0.493392  3.020280
H    -2.196010  -0.205239  5.040879
C    -0.918400  -1.835142  4.496474
C    -2.101624  -2.827768  4.387797
C    -3.106544  -2.663828  5.534191
C    -2.795942  -2.826380  3.019593
H    -0.413929  -2.005899  5.460484
H    -0.187818  -2.069309  3.705705
H    -1.628803  -3.815978  4.509757
H    -3.836554  -3.482319  5.518410
H    -3.690675  -1.733423  5.453811
H    -2.618608  -2.681458  6.518512
H    -3.423226  -1.935700  2.869132
H    -3.464533  -3.691831  2.936374
H    -2.078896  -2.889525  2.188079
N    -0.546382  1.291808  6.110428
C    0.350054  2.138514  6.897206
H    -1.528858  1.294681  6.372813
H    1.385326  1.863011  6.684552
H    0.140588  1.990789  7.962312
H    0.190579  3.194326  6.643967
Ba    2.415837  -0.407094  2.897505
