32
Energy: -241840.116625 eV PBE+vdW (tier 2 basis)
C    -1.227622  0.558312  3.253497
C    -2.246053  0.233044  4.298314
O    -2.013481  0.483804  5.522204
H    -1.599254  1.379386  2.623253
H    -1.024944  -0.286042  2.582243
H    -0.299644  0.883181  3.731123
N    -3.434068  -0.327370  3.970376
C    -3.606064  -1.406478  2.988450
C    -2.697928  -2.588418  3.436242
O    -2.101061  -2.561280  4.563607
H    -4.091311  -0.344810  4.748708
H    -4.638426  -1.758541  3.146638
C    -3.495121  -0.975242  1.498190
C    -4.706155  -1.349072  0.615593
C    -4.544744  -0.697221  -0.762576
C    -4.929010  -2.860379  0.481110
H    -2.568776  -1.366571  1.048460
H    -3.403420  0.117813  1.484607
H    -5.601289  -0.915793  1.095444
H    -3.663582  -1.089950  -1.290944
H    -4.435036  0.392479  -0.685893
H    -5.420842  -0.897487  -1.391189
H    -5.786931  -3.067787  -0.170455
H    -5.159269  -3.358465  1.437468
H    -4.064172  -3.354742  0.003104
N    -2.594637  -3.626703  2.630234
C    -1.837453  -4.843277  2.930513
H    -3.120328  -3.597157  1.755462
H    -2.250056  -5.347134  3.813102
H    -0.782828  -4.602895  3.108197
H    -1.909875  -5.514015  2.070612
Ba    -1.439001  -1.578831  6.732397
