32
Energy: -241840.22908 eV PBE+vdW (tier 2 basis)
C    -3.137619  3.533900  -0.755518
C    -1.954941  2.985062  -0.024589
O    -0.918051  3.694585  0.161979
H    -3.800840  4.074735  -0.061973
H    -3.724874  2.757529  -1.257013
H    -2.780396  4.260248  -1.494228
N    -1.979605  1.724873  0.462805
C    -3.143505  1.140343  1.120050
C    -3.336086  1.887318  2.471578
O    -2.539403  2.819023  2.822310
H    -1.079106  1.393028  0.810216
H    -4.028648  1.362715  0.504692
C    -3.002385  -0.400278  1.265572
C    -4.149822  -1.217387  0.637169
C    -3.803134  -2.709520  0.689947
C    -5.507353  -0.946176  1.298008
H    -2.892109  -0.672653  2.326748
H    -2.061687  -0.692015  0.776678
H    -4.220204  -0.919818  -0.423908
H    -2.854688  -2.923582  0.180156
H    -4.583002  -3.306159  0.201396
H    -3.717708  -3.064116  1.727517
H    -5.847544  0.098069  1.185295
H    -5.494806  -1.217968  2.367419
H    -6.293476  -1.556773  0.836921
N    -4.353250  1.524301  3.228884
C    -4.680022  2.114164  4.528768
H    -4.945778  0.766712  2.885873
H    -5.598222  1.648963  4.896236
H    -4.841316  3.193981  4.430502
H    -3.873197  1.929975  5.248491
Ba    -0.646105  4.377308  2.513059
