32
Energy: -241839.632149 eV PBE+vdW (tier 2 basis)
C    0.576916  0.730289  1.318066
C    -0.431752  -0.116859  2.022153
O    -0.163876  -0.564335  3.215292
H    0.790605  1.625218  1.918476
H    0.237758  1.043513  0.325884
H    1.516386  0.170691  1.212086
N    -1.562515  -0.393139  1.429153
C    -2.690846  -1.213235  1.862868
C    -3.422507  -1.455738  0.494713
O    -3.073559  -0.765217  -0.469891
H    -1.762672  -0.100497  0.437662
H    -2.315063  -2.168934  2.259304
C    -3.599947  -0.478948  2.897027
C    -4.033750  -1.267192  4.151476
C    -4.817594  -2.551856  3.859600
C    -2.868299  -1.553552  5.115798
H    -4.504994  -0.131887  2.380070
H    -3.080385  0.436472  3.215622
H    -4.713085  -0.588993  4.692190
H    -5.201990  -2.999396  4.784789
H    -4.196031  -3.322596  3.375093
H    -5.687304  -2.343033  3.222884
H    -3.222707  -2.017388  6.045486
H    -2.375261  -0.595569  5.376483
H    -2.155392  -2.257943  4.639923
N    -4.390952  -2.377290  0.469655
C    -5.190886  -2.670915  -0.720182
H    -4.596569  -2.890727  1.319612
H    -5.108880  -3.734031  -0.974360
H    -4.811248  -2.069013  -1.549614
H    -6.243979  -2.420415  -0.543242
Ba    0.390208  -1.215645  5.337767
