32
Energy: -241839.693098 eV PBE+vdW (tier 2 basis)
C    -0.013582  -0.111460  -0.461515
C    -0.199330  -0.046987  1.019605
O    0.620259  -0.693888  1.788857
H    0.993416  0.236111  -0.729677
H    -0.752898  0.485558  -1.004102
H    -0.094756  -1.158364  -0.785971
N    -1.179239  0.675870  1.507373
C    -1.730373  0.758897  2.861111
C    -3.244932  1.051845  2.548163
O    -3.523862  1.470377  1.420527
H    -1.887455  1.112715  0.868284
H    -1.629630  -0.218262  3.355116
C    -1.173201  1.909979  3.734367
C    0.226167  1.784263  4.383813
C    0.392877  0.480933  5.180472
C    1.394438  2.083103  3.429890
H    -1.895492  2.048732  4.552011
H    -1.219882  2.838131  3.146050
H    0.256637  2.591585  5.132601
H    1.383585  0.424008  5.666319
H    0.200999  -0.423422  4.568862
H    -0.332936  0.407396  6.001495
H    2.365787  2.013350  3.953179
H    1.346871  3.111979  3.050129
H    1.394291  1.453939  2.523102
N    -4.122416  0.848774  3.538649
C    -5.554793  1.125321  3.412950
H    -3.791340  0.469939  4.419579
H    -5.856877  1.897134  4.130943
H    -6.131904  0.211654  3.596865
H    -5.749031  1.479224  2.397287
Ba    2.466947  -1.061079  3.131667
