32
Energy: -241840.86301 eV PBE+vdW (tier 2 basis)
C    1.033561  -1.141579  1.055265
C    0.072456  -0.082361  1.487819
O    0.382715  1.146665  1.406234
H    1.231173  -1.013493  -0.018761
H    0.667470  -2.158710  1.229061
H    1.991314  -1.007654  1.573985
N    -1.126447  -0.458069  1.950509
C    -2.261323  0.434112  2.240191
C    -2.089855  1.074261  3.635093
O    -1.301438  2.063750  3.763819
H    -1.319389  -1.456900  1.975174
H    -2.190648  1.275282  1.534160
C    -3.584695  -0.301205  1.998864
C    -3.821510  -0.762825  0.542157
C    -5.163073  -1.501647  0.462722
C    -3.764653  0.400161  -0.454933
H    -4.403814  0.376024  2.288280
H    -3.653545  -1.185260  2.658996
H    -3.030086  -1.484530  0.271772
H    -5.327132  -1.897050  -0.546807
H    -6.001132  -0.828718  0.694375
H    -5.206409  -2.348986  1.160442
H    -2.770818  0.869930  -0.515294
H    -4.500054  1.178776  -0.203085
H    -4.001111  0.045810  -1.465596
N    -2.769195  0.576185  4.652675
C    -2.727863  1.060067  6.032003
H    -3.397608  -0.199053  4.451563
H    -2.311768  0.283585  6.685689
H    -3.744938  1.298591  6.364342
H    -2.105783  1.955940  6.081732
Ba    0.444595  3.271907  2.554557
