32
Energy: -241840.815563 eV PBE+vdW (tier 2 basis)
C    -3.593531  0.415070  -0.848668
C    -2.612390  -0.191791  0.100481
O    -1.367128  -0.169735  -0.151097
H    -4.636236  0.263234  -0.551411
H    -3.439054  0.006938  -1.855370
H    -3.395617  1.495385  -0.907203
N    -3.074680  -0.739013  1.230743
C    -2.259502  -1.206857  2.365651
C    -1.698290  -2.610671  2.041523
O    -0.646816  -2.706925  1.333954
H    -4.078424  -0.692690  1.390170
H    -1.376219  -0.550708  2.421980
C    -3.043781  -1.101991  3.683243
C    -3.124574  0.304753  4.321198
C    -3.833602  1.354974  3.456461
C    -3.799078  0.184539  5.693795
H    -2.554097  -1.761023  4.415697
H    -4.067765  -1.496912  3.542248
H    -2.084803  0.639766  4.484425
H    -4.856509  1.040213  3.195577
H    -3.292357  1.592777  2.530308
H    -3.927295  2.295825  4.012558
H    -3.799439  1.152850  6.208512
H    -3.282954  -0.535148  6.343271
H    -4.846679  -0.135895  5.596897
N    -2.339075  -3.670707  2.502093
C    -1.958348  -5.065705  2.283275
H    -3.157662  -3.499495  3.082471
H    -1.915196  -5.584419  3.247713
H    -0.977755  -5.101227  1.804220
H    -2.700708  -5.560582  1.644634
Ba    0.711567  -1.396829  -0.219349
