32
Energy: -241839.506483 eV PBE+vdW (tier 2 basis)
C    -0.806195  1.005474  -0.215609
C    -1.096402  0.356941  1.097245
O    -0.437548  0.723945  2.151452
H    -0.879810  2.097084  -0.125404
H    -1.473131  0.660980  -1.011876
H    0.230925  0.774288  -0.499124
N    -2.018967  -0.574145  1.162418
C    -2.415352  -1.440085  2.271814
C    -3.562054  -2.287624  1.619503
O    -3.982356  -1.930366  0.513436
H    -2.629584  -0.804616  0.344834
H    -1.575178  -2.114320  2.501077
C    -2.816360  -0.717542  3.584637
C    -3.542074  0.637813  3.492391
C    -4.915069  0.546471  2.809901
C    -3.690041  1.248675  4.896391
H    -1.897463  -0.621753  4.200819
H    -3.442353  -1.401233  4.176027
H    -2.937685  1.325258  2.858080
H    -5.415187  1.522672  2.810013
H    -5.563403  -0.158770  3.348615
H    -4.840614  0.210495  1.769633
H    -4.057974  2.282326  4.859795
H    -2.758740  1.229092  5.507236
H    -4.402876  0.674162  5.504167
N    -4.030093  -3.363841  2.270512
C    -3.549942  -3.995557  3.494994
H    -4.779983  -3.837314  1.769182
H    -3.650359  -5.081356  3.392385
H    -4.128990  -3.680875  4.374816
H    -2.488259  -3.782446  3.662684
Ba    -0.372355  1.861055  4.162459
