32
Energy: -241840.672932 eV PBE+vdW (tier 2 basis)
C    -0.026784  -1.936933  0.248863
C    -0.373622  -1.110940  1.443415
O    0.244493  -0.029457  1.690112
H    -0.187447  -1.333145  -0.655439
H    -0.615177  -2.856946  0.171488
H    1.040728  -2.191864  0.277167
N    -1.358911  -1.525705  2.252349
C    -1.895599  -0.735760  3.369418
C    -0.914674  -0.727576  4.561869
O    -0.168527  0.298507  4.697338
H    -1.857944  -2.373998  1.994317
H    -1.891334  0.312519  3.037389
C    -3.351708  -1.112528  3.673988
C    -4.363810  -0.625879  2.612072
C    -5.750104  -1.188861  2.950174
C    -4.404587  0.901741  2.491114
H    -3.618447  -0.677733  4.650432
H    -3.447505  -2.202117  3.788278
H    -4.064893  -1.040798  1.632385
H    -6.481996  -0.902335  2.185422
H    -6.110864  -0.802265  3.914171
H    -5.743160  -2.285732  3.007285
H    -5.162830  1.206266  1.759438
H    -3.453454  1.337176  2.145771
H    -4.668114  1.370212  3.450754
N    -0.810690  -1.722668  5.430442
C    -1.509093  -3.010123  5.491594
H    -0.143071  -1.540768  6.180284
H    -0.886998  -3.700117  6.069551
H    -1.644856  -3.433147  4.492284
H    -2.480140  -2.910638  5.991294
Ba    1.116978  1.696446  3.162088
