32
Energy: -241840.818728 eV PBE+vdW (tier 2 basis)
C    0.076767  0.960157  0.123123
C    -0.045899  0.471706  1.531643
O    0.991871  0.169210  2.193773
H    -0.879847  1.238481  -0.330770
H    0.539934  0.167233  -0.481282
H    0.755611  1.822092  0.092489
N    -1.276385  0.366147  2.053486
C    -1.701119  -0.234178  3.337935
C    -1.308749  0.635441  4.543426
O    -0.103454  0.719045  4.928977
H    -2.035043  0.625574  1.429443
H    -2.797158  -0.234881  3.276327
C    -1.263450  -1.697529  3.534765
C    -1.687948  -2.667279  2.413892
C    -1.150886  -4.068120  2.732126
C    -3.206912  -2.690708  2.203965
H    -1.695120  -2.032440  4.492178
H    -0.169444  -1.760153  3.654355
H    -1.212776  -2.331970  1.475701
H    -0.058729  -4.069404  2.860930
H    -1.384017  -4.766387  1.919338
H    -1.601486  -4.469576  3.651069
H    -3.735127  -2.966055  3.128632
H    -3.474646  -3.434384  1.443669
H    -3.613122  -1.730177  1.852689
N    -2.291432  1.252056  5.184799
C    -2.138143  2.074927  6.384452
H    -3.233154  1.148520  4.815403
H    -2.211147  3.138989  6.125636
H    -1.164847  1.874482  6.838018
H    -2.934001  1.824204  7.093963
Ba    2.179860  0.149976  4.288849
