32
Energy: -241839.462199 eV PBE+vdW (tier 2 basis)
C    -1.629148  1.432906  -0.279857
C    -1.287156  1.220827  1.155550
O    -0.420537  2.032920  1.717155
H    -0.736845  1.256445  -0.897207
H    -1.932011  2.476994  -0.433407
H    -2.428470  0.773770  -0.628762
N    -1.803633  0.272875  1.883987
C    -2.777539  -0.784066  1.574577
C    -3.285832  -1.126459  3.007942
O    -2.538321  -0.856580  3.963103
H    -1.575973  0.163999  2.904902
H    -3.590965  -0.376737  0.959213
C    -2.054554  -1.949885  0.850016
C    -2.896099  -3.119604  0.281336
C    -3.214328  -4.224231  1.297190
C    -4.135113  -2.653971  -0.492621
H    -1.283124  -2.344779  1.528421
H    -1.518707  -1.487049  0.006205
H    -2.220406  -3.577124  -0.460019
H    -3.640193  -5.095153  0.783130
H    -3.939631  -3.916302  2.059996
H    -2.308424  -4.562150  1.817782
H    -4.926106  -2.250036  0.160519
H    -4.587838  -3.494634  -1.032413
H    -3.894492  -1.882461  -1.238889
N    -4.502340  -1.665389  3.112241
C    -5.083957  -2.119493  4.372681
H    -5.015257  -1.854524  2.256640
H    -5.081911  -3.216405  4.425541
H    -6.114429  -1.757099  4.455674
H    -4.486375  -1.720674  5.196324
Ba    1.054821  3.416639  2.747091
