32
Energy: -241839.583244 eV PBE+vdW (tier 2 basis)
C    0.892396  2.751094  2.329315
C    0.360054  1.376585  2.567057
O    1.188949  0.396929  2.763697
H    1.558783  3.047295  3.150518
H    0.098019  3.496276  2.223699
H    1.494746  2.743185  1.409576
N    -0.935072  1.182311  2.580369
C    -1.710454  -0.054330  2.661021
C    -3.177384  0.489228  2.505138
O    -3.346153  1.712650  2.545208
H    -1.618001  1.973359  2.488442
H    -1.466022  -0.681616  1.788740
C    -1.535838  -0.888473  3.947241
C    -1.652713  -0.140215  5.297786
C    -2.514611  -0.929195  6.290862
C    -0.279700  0.169242  5.914065
H    -0.576650  -1.443825  3.891761
H    -2.291594  -1.685376  3.906242
H    -2.148460  0.826620  5.113632
H    -2.610918  -0.397399  7.245615
H    -2.084783  -1.920218  6.501793
H    -3.526872  -1.080768  5.895311
H    -0.369450  0.709200  6.865384
H    0.340534  0.807406  5.259797
H    0.241009  -0.780019  6.169479
N    -4.149811  -0.417604  2.352387
C    -5.558724  -0.056424  2.179991
H    -3.899588  -1.394737  2.241482
H    -6.184132  -0.722727  2.783707
H    -5.852792  -0.138254  1.125973
H    -5.696448  0.976471  2.510031
Ba    2.362066  -1.052088  4.111236
