32
Energy: -241840.121199 eV PBE+vdW (tier 2 basis)
C    -0.932918  -0.724663  -0.799250
C    0.113498  -0.312540  0.185606
O    1.132578  -1.045458  0.384348
H    -1.187795  0.095622  -1.480095
H    -1.861509  -1.020638  -0.287169
H    -0.565238  -1.578140  -1.375492
N    -0.001097  0.833990  0.895946
C    -1.240510  1.321309  1.518415
C    -1.736908  0.216365  2.490546
O    -1.005584  -0.792764  2.761323
H    0.849383  1.067518  1.406376
H    -0.913718  2.157663  2.157114
C    -2.302134  1.891528  0.546540
C    -3.130025  3.086610  1.077946
C    -2.257309  4.293160  1.438497
C    -4.188656  3.456285  0.031122
H    -2.980205  1.095857  0.206220
H    -1.757272  2.244361  -0.341316
H    -3.682301  2.790636  1.994034
H    -1.537243  4.092699  2.246601
H    -2.881617  5.125989  1.783995
H    -1.693764  4.644955  0.562597
H    -3.714389  3.792356  -0.901939
H    -4.821692  4.275637  0.391857
H    -4.843504  2.607740  -0.208729
N    -2.922524  0.373995  3.047867
C    -3.513535  -0.537661  4.029635
H    -3.454603  1.202012  2.779326
H    -2.853199  -0.644370  4.898125
H    -3.690234  -1.523272  3.582421
H    -4.468652  -0.119050  4.356719
Ba    0.981342  -2.245987  2.526393
