32
Energy: -241840.232932 eV PBE+vdW (tier 2 basis)
C    -0.484752  0.735538  0.184340
C    -0.141600  0.550544  1.626340
O    1.047676  0.703080  2.042897
H    -0.743802  1.787825  -0.014289
H    -1.326420  0.110308  -0.132852
H    0.399198  0.499829  -0.418143
N    -1.104769  0.242234  2.524335
C    -2.448659  0.811642  2.506831
C    -2.321820  2.353779  2.640686
O    -1.220237  2.887941  2.983925
H    -0.760160  -0.017945  3.447861
H    -2.903476  0.602809  1.526592
C    -3.346834  0.149566  3.583375
C    -3.121250  0.444150  5.087247
C    -1.704422  0.153649  5.607011
C    -3.591943  1.834558  5.535112
H    -3.263396  -0.933133  3.405146
H    -4.390127  0.400623  3.342604
H    -3.779133  -0.285399  5.586604
H    -1.683171  0.177394  6.703672
H    -0.985170  0.931978  5.279104
H    -1.329581  -0.836363  5.305652
H    -3.613279  1.893893  6.630644
H    -4.607714  2.053958  5.180803
H    -2.926758  2.640219  5.189288
N    -3.395046  3.075085  2.366746
C    -3.491414  4.528278  2.511168
H    -4.244902  2.577444  2.111994
H    -4.306450  4.889918  1.878051
H    -2.554076  4.995665  2.196272
H    -3.700307  4.796140  3.555729
Ba    1.190367  2.672848  3.528301
