32
Energy: -241840.459653 eV PBE+vdW (tier 2 basis)
C    -1.127466  0.865954  -0.577758
C    -1.211238  0.229492  0.777103
O    -0.680161  -0.899492  0.966024
H    -1.610271  1.846577  -0.640595
H    -1.589753  0.191751  -1.311647
H    -0.071124  0.969192  -0.859333
N    -1.866737  0.915902  1.729401
C    -2.232141  0.678618  3.148859
C    -1.072671  0.261908  4.059457
O    -0.302262  -0.708869  3.802537
H    -2.235973  1.800201  1.391137
H    -2.490415  1.694003  3.473180
C    -3.568258  -0.097351  3.390359
C    -3.755075  -1.628263  3.286974
C    -3.545660  -2.221479  1.891584
C    -3.061605  -2.442215  4.387090
H    -4.291742  0.379654  2.711527
H    -3.888006  0.200190  4.401522
H    -4.833811  -1.741086  3.487943
H    -3.850310  -3.275597  1.867471
H    -2.502716  -2.152508  1.540943
H    -4.137593  -1.696796  1.129444
H    -3.371685  -3.494155  4.344258
H    -3.313372  -2.073453  5.390606
H    -1.960050  -2.405826  4.336047
N    -0.911552  0.937040  5.194750
C    -1.646907  2.100947  5.703126
H    -0.156325  0.582289  5.780636
H    -2.704731  1.867027  5.873197
H    -1.553032  2.958858  5.025694
H    -1.204599  2.381590  6.662963
Ba    0.119425  -2.660369  2.399108
