32
Energy: -241840.812399 eV PBE+vdW (tier 2 basis)
C    -0.470295  -0.058658  0.008993
C    -0.293498  -0.143623  1.491916
O    0.791121  -0.582303  1.979107
H    0.350389  0.528710  -0.422784
H    -1.426239  0.378956  -0.296337
H    -0.393178  -1.072086  -0.409932
N    -1.313219  0.253949  2.268039
C    -1.474561  0.152189  3.736745
C    -0.533088  1.109241  4.490169
O    0.706941  0.865018  4.589868
H    -2.132541  0.587471  1.767895
H    -2.501860  0.496791  3.912120
C    -1.380710  -1.285601  4.274619
C    -1.704938  -1.427484  5.776029
C    -3.151518  -1.032630  6.100752
C    -1.415268  -2.865172  6.224417
H    -0.379903  -1.702479  4.075273
H    -2.075316  -1.903250  3.684657
H    -1.030399  -0.757989  6.341230
H    -3.359192  -1.183325  7.167041
H    -3.867504  -1.647979  5.537345
H    -3.373789  0.023424  5.887385
H    -1.595328  -2.983539  7.299666
H    -0.370980  -3.154411  6.031930
H    -2.061301  -3.583662  5.700352
N    -1.085126  2.171216  5.058692
C    -0.377293  3.172731  5.855437
H    -2.086205  2.302030  4.938136
H    -0.967940  3.401406  6.749048
H    -0.239211  4.092449  5.272662
H    0.596930  2.776365  6.150501
Ba    2.473019  -0.562755  3.701030
