32
Energy: -241840.243034 eV PBE+vdW (tier 2 basis)
C    -1.742389  2.020400  -0.547837
C    -0.911613  1.471316  0.566325
O    -0.145378  2.223566  1.243800
H    -2.697055  2.407741  -0.157337
H    -1.963002  1.273916  -1.317988
H    -1.209864  2.867138  -0.995229
N    -0.987788  0.160831  0.885239
C    -2.243269  -0.585328  0.941120
C    -3.132050  0.067438  2.024063
O    -2.621177  0.895407  2.853785
H    -0.283107  -0.150961  1.554460
H    -2.750651  -0.506509  -0.031158
C    -1.951928  -2.067890  1.246858
C    -1.219540  -2.814814  0.113463
C    -0.839216  -4.218724  0.600787
C    -2.057559  -2.877258  -1.168188
H    -2.898952  -2.582588  1.462901
H    -1.365837  -2.119696  2.180966
H    -0.285748  -2.270188  -0.111020
H    -0.274284  -4.753927  -0.171922
H    -1.732702  -4.817158  0.829932
H    -0.214489  -4.184165  1.503665
H    -1.523475  -3.433994  -1.947697
H    -2.276224  -1.886103  -1.594547
H    -3.012517  -3.395845  -0.995843
N    -4.419376  -0.231824  2.096135
C    -5.214137  -1.118604  1.241678
H    -4.914076  0.203307  2.875188
H    -6.187073  -0.648443  1.062891
H    -5.373644  -2.085578  1.735625
H    -4.723328  -1.281868  0.278701
Ba    -0.926845  2.543801  3.565235
