32
Energy: -241840.23569 eV PBE+vdW (tier 2 basis)
C    -1.324177  -1.232854  -0.093389
C    -0.471232  -0.666270  0.995434
O    0.722935  -1.065705  1.162619
H    -1.144854  -0.699452  -1.040176
H    -2.393841  -1.180314  0.135178
H    -1.032122  -2.277351  -0.251350
N    -0.958989  0.293240  1.812098
C    -1.775045  1.407231  1.344137
C    -0.856976  2.331569  0.497352
O    0.373579  2.046862  0.320941
H    -0.363223  0.503599  2.613720
H    -2.535146  1.002620  0.658196
C    -2.490500  2.129420  2.520947
C    -4.028077  2.209425  2.392275
C    -4.484759  3.086165  1.219711
C    -4.679163  0.823098  2.350838
H    -2.073540  3.138728  2.649751
H    -2.248399  1.576081  3.439778
H    -4.360145  2.706339  3.317508
H    -5.575566  3.203188  1.221620
H    -4.242230  2.637642  0.239111
H    -4.066315  4.104296  1.275943
H    -5.772397  0.910016  2.370768
H    -4.380449  0.206147  3.208535
H    -4.431709  0.269310  1.430069
N    -1.402269  3.407154  -0.037567
C    -0.688361  4.383831  -0.862729
H    -2.392572  3.572699  0.148238
H    -1.402224  5.143454  -1.191199
H    -0.253774  3.897499  -1.743901
H    0.107405  4.867793  -0.283746
Ba    2.389776  0.633950  0.526278
