32
Energy: -241839.600573 eV PBE+vdW (tier 2 basis)
C    0.647674  -0.374389  0.139030
C    0.464397  -0.334961  1.621178
O    1.508458  -0.254118  2.386569
H    1.199701  0.514542  -0.195389
H    -0.302837  -0.427601  -0.400510
H    1.254325  -1.252797  -0.122145
N    -0.750845  -0.367801  2.113614
C    -1.220914  -0.549135  3.488516
C    -2.572109  -1.309915  3.245401
O    -3.065025  -1.239185  2.114773
H    -1.577583  -0.524821  1.488062
H    -0.508874  -1.184913  4.031761
C    -1.532738  0.760687  4.254403
C    -0.375891  1.596010  4.854179
C    0.573877  0.753324  5.719459
C    0.344465  2.495911  3.836654
H    -2.192700  0.483184  5.087844
H    -2.144181  1.398638  3.599778
H    -0.868531  2.292012  5.551417
H    1.371020  1.371045  6.170341
H    1.006837  -0.106070  5.169076
H    0.052159  0.291593  6.568461
H    1.140050  3.091392  4.321266
H    -0.340922  3.234704  3.401357
H    0.743519  1.944748  2.967515
N    -3.145229  -1.975311  4.260515
C    -2.676780  -2.164526  5.627071
H    -4.044613  -2.386422  4.015427
H    -2.975997  -3.160841  5.969868
H    -3.104973  -1.420855  6.314650
H    -1.583328  -2.115999  5.678394
Ba    3.164200  0.735215  3.662774
