32
Energy: -241839.456831 eV PBE+vdW (tier 2 basis)
C    0.334816  -0.276976  0.656483
C    -0.099604  0.616197  1.768280
O    0.676591  1.621689  2.102901
H    -0.492427  -0.855111  0.233919
H    1.086338  -0.986544  1.034375
H    0.806845  0.315035  -0.135698
N    -1.204194  0.448126  2.435799
C    -2.285617  -0.538072  2.316734
C    -3.403037  0.156997  3.155245
O    -3.084614  1.159412  3.823849
H    -1.525494  1.125581  3.182479
H    -2.614374  -0.592188  1.267460
C    -1.864868  -1.951059  2.785508
C    -1.270461  -2.098365  4.200503
C    -2.312444  -1.955516  5.317998
C    -0.558410  -3.454966  4.296027
H    -1.135917  -2.326112  2.050844
H    -2.736244  -2.613567  2.684382
H    -0.506505  -1.310854  4.338840
H    -1.853182  -2.156167  6.294216
H    -3.126085  -2.684291  5.188996
H    -2.754374  -0.953634  5.373441
H    -0.094341  -3.584617  5.281598
H    0.229234  -3.561365  3.536847
H    -1.267452  -4.283890  4.157576
N    -4.649523  -0.322683  3.120853
C    -5.185281  -1.459575  2.378448
H    -5.294643  0.180883  3.726658
H    -6.231523  -1.251702  2.131867
H    -5.142921  -2.384871  2.968799
H    -4.646691  -1.606546  1.436207
Ba    1.920619  3.417779  2.717429
