15
Energy: -29402.7657398 eV PBE+vdW (tier 2 basis)
N    -0.078028  -1.096581  -0.222879
C    -0.091150  -0.181201  0.968125
C    1.387068  0.164124  1.295318
O    2.282726  -0.488607  0.807927
H    -0.013693  -0.502829  -1.061044
H    0.874730  -1.525063  -0.186964
H    -0.652596  0.730085  0.724149
C    -0.711840  -0.876415  2.177391
O    -1.977940  -1.524500  1.738506
H    -0.941071  -0.152694  2.967526
H    -0.062558  -1.666050  2.581064
H    -2.605617  -1.537397  2.485206
O    1.471516  1.174709  2.148701
H    2.412010  1.368080  2.357153
Ca    -1.949859  -2.529621  -0.238166
