15
Energy: -29403.1075469 eV PBE+vdW (tier 2 basis)
N    -0.262147  -1.436817  0.316356
C    -0.068222  -0.320636  1.274904
C    1.426082  -0.162897  1.560399
O    2.031129  -0.829400  2.434712
H    -1.147680  -1.318920  -0.185688
H    0.464774  -1.491853  -0.400235
H    -0.451140  0.646585  0.917712
C    -0.810439  -0.781938  2.546607
O    -0.452214  -2.191533  2.718623
H    -1.898509  -0.710650  2.415158
H    -0.536856  -0.212604  3.445338
H    -0.439625  -2.448482  1.715923
O    2.015859  0.719392  0.809755
H    2.978297  0.802220  1.002480
Ca    1.454072  -2.475003  3.776763
