15
Energy: -29403.0496491 eV PBE+vdW (tier 2 basis)
N    0.060108  -0.529129  -0.364482
C    -0.713105  -0.568606  0.936401
C    0.392697  -0.505228  2.004737
O    1.562378  -0.591426  1.689104
H    1.070201  -0.611632  -0.063191
H    -0.062642  0.353617  -0.876511
H    -1.355611  0.318692  0.996402
C    -1.589752  -1.854818  0.992653
O    -2.425052  -1.868493  2.102542
H    -0.925748  -2.739028  0.989260
H    -2.188532  -1.880573  0.063227
H    -0.174203  -1.301815  -1.002189
O    -0.075520  -0.355565  3.243873
H    0.693674  -0.289191  3.851517
Ca    -3.622892  -2.136804  3.598655
