15
Energy: -29402.8160551 eV PBE+vdW (tier 2 basis)
N    -1.706232  -1.163055  -1.745470
C    -1.786788  -0.721161  -0.289353
C    -0.401114  -0.288940  0.233403
O    -0.223962  -0.013210  1.386790
H    -1.075303  -1.971126  -1.854509
H    -1.321170  -0.412711  -2.338786
H    -2.431564  0.169791  -0.278693
C    -2.399181  -1.810688  0.604698
O    -3.793923  -1.941355  0.451302
H    -2.137367  -1.517225  1.633116
H    -1.899414  -2.776926  0.406411
H    -2.634178  -1.425288  -2.105671
O    0.503376  -0.259235  -0.768566
H    1.367992  0.046874  -0.419247
Ca    -5.599446  -2.335648  1.076940
