15
Energy: -29402.5380636 eV PBE+vdW (tier 2 basis)
N    4.056256  -0.122384  -0.076687
C    4.102405  -0.580467  1.271890
C    5.508240  -1.058820  1.675538
O    6.554087  -0.658282  1.098969
H    4.000511  -0.836191  -0.798706
H    3.409874  0.640482  -0.253628
H    3.932598  0.286098  1.939533
C    3.022142  -1.634839  1.585816
O    3.207560  -2.090794  3.025692
H    3.098436  -2.519366  0.940456
H    2.020643  -1.198487  1.539223
H    2.693101  -2.893994  3.254250
O    5.637341  -1.879396  2.697971
H    4.254534  -2.204820  3.123156
Ca    7.901247  -1.661138  2.469736
