15
Energy: -29403.0124106 eV PBE+vdW (tier 2 basis)
N    -0.398421  -0.231818  0.283698
C    -0.199507  -0.249803  1.784247
C    1.339870  -0.184134  1.929196
O    2.046263  -0.259702  0.942103
H    0.593092  -0.335602  -0.085417
H    -0.991332  -0.998474  -0.054003
H    -0.655176  0.651446  2.213422
C    -0.786080  -1.510637  2.445199
O    -2.193609  -1.533946  2.446898
H    -0.393475  -1.527453  3.473995
H    -0.389039  -2.405812  1.932195
H    -0.781676  0.655184  -0.063898
O    1.718964  -0.055041  3.188402
H    2.698766  -0.012480  3.242637
Ca    -3.985642  -1.994729  3.058328
