15
Energy: -29403.4120594 eV PBE+vdW (tier 2 basis)
N    -0.080391  -0.029779  -0.054150
C    -0.072207  0.055714  1.459032
C    1.377181  0.044900  1.946295
O    2.219648  -0.716011  1.348415
H    -0.999593  -0.332422  -0.412194
H    0.136352  0.875811  -0.495991
H    -0.561194  0.989471  1.758852
C    -0.807722  -1.190704  2.028487
O    -0.347945  -1.363457  3.348726
H    -0.558861  -2.067881  1.398440
H    -1.893883  -1.015515  1.973590
H    -1.025833  -1.812596  3.880119
O    1.697493  0.717542  2.971928
H    0.631995  -0.714171  -0.363710
Ca    3.582634  -0.383270  3.092629
