15
Energy: -29403.3400497 eV PBE+vdW (tier 2 basis)
N    0.291635  1.103074  1.912662
C    0.346597  0.656610  3.357622
C    1.661027  1.312569  3.897145
O    2.048154  0.870495  5.055388
H    -0.618103  1.494953  1.637839
H    0.545814  0.374827  1.233565
H    -0.499821  1.136121  3.869269
C    0.260676  -0.849363  3.613399
O    1.597549  -1.473632  3.714063
H    -0.309753  -1.371035  2.834074
H    -0.257284  -1.013216  4.565614
H    1.591050  -2.299807  3.199861
O    2.213754  2.134506  3.184428
H    1.045517  1.857255  1.892981
Ca    3.050189  -0.848355  5.487092
