15
Energy: -29403.686541 eV PBE+vdW (tier 2 basis)
N    0.035957  -1.014039  0.373299
C    0.099022  -0.171205  1.624901
C    1.534108  0.037081  2.081674
O    2.492878  -0.578404  1.496332
H    0.792825  -1.713879  0.350885
H    -0.897434  -1.488650  0.422022
H    -0.353588  0.801626  1.387079
C    -0.773065  -0.877687  2.692067
O    -1.927810  -1.266115  1.966485
H    -0.989270  -0.158061  3.494873
H    -0.243688  -1.747647  3.119869
H    -2.559047  -1.744935  2.530462
O    1.755217  0.819884  3.061918
H    0.091089  -0.459351  -0.490062
Ca    3.911804  0.456382  2.887193
