15
Energy: -29402.1123678 eV PBE+vdW (tier 2 basis)
N    -0.347491  -0.171030  -0.081061
C    -0.147304  -0.074488  1.329519
C    1.279382  0.122170  1.824378
O    1.634427  -0.271656  2.992679
H    -0.451905  0.717307  -0.563461
H    0.305243  -0.771922  -0.579237
H    -0.682023  0.818195  1.706147
C    -0.778928  -1.328206  2.009195
O    -0.603007  -1.356485  3.450218
H    -0.330753  -2.235604  1.575980
H    -1.844931  -1.313161  1.750986
H    0.802252  -0.743952  3.409968
O    2.133075  0.683480  1.043388
H    3.024138  0.782340  1.452496
Ca    -1.499975  -2.042784  5.098587
