15
Energy: -29401.29966 eV PBE+vdW (tier 2 basis)
N    0.008673  0.053219  -0.126755
C    -0.041844  0.019756  1.302613
C    1.337812  0.096914  1.967377
O    2.375634  0.378118  1.461084
H    -0.387922  0.890945  -0.542836
H    0.937013  -0.120533  -0.510165
H    -0.632092  0.858529  1.707719
C    -0.763852  -1.314076  1.639122
O    -0.873555  -1.572881  3.139267
H    -0.224343  -2.163861  1.203701
H    -1.787869  -1.271043  1.249733
H    -0.000527  -1.130570  3.490228
O    1.224622  -0.246869  3.333524
H    2.114282  -0.221117  3.747195
Ca    -2.370959  -2.619868  4.146526
