15
Energy: -29403.7112321 eV PBE+vdW (tier 2 basis)
N    0.284092  -0.497872  0.008064
C    0.184077  -0.264376  1.477690
C    1.584173  -0.518217  2.064712
O    2.288675  -1.409388  1.561789
H    -0.649230  -0.409362  -0.410810
H    0.839094  0.249723  -0.424587
H    -0.177517  0.746177  1.727474
C    -0.807706  -1.282849  2.068025
O    -0.413859  -2.608555  1.591057
H    -1.824684  -1.058213  1.714918
H    -0.796036  -1.261545  3.166195
H    -0.961800  -3.281915  2.034009
O    2.026869  0.130730  3.103999
H    1.447345  0.854880  3.418292
Ca    1.336194  -2.728590  0.072452
