15
Energy: -29403.0250739 eV PBE+vdW (tier 2 basis)
N    0.504492  -1.403586  0.099524
C    -0.301445  -0.261804  0.685972
C    0.333504  -0.043288  2.069767
O    1.100528  -0.865081  2.536908
H    1.154456  -1.089768  -0.632879
H    1.066260  -1.766817  0.913382
H    -0.165675  0.626735  0.056129
C    -1.807870  -0.577286  0.770061
O    -2.113137  -1.615990  1.667262
H    -2.171297  -0.821351  -0.243791
H    -2.298834  0.362582  1.069761
H    -0.081074  -2.151728  -0.289786
O    -0.078761  1.082799  2.631081
H    0.379869  1.219510  3.487837
Ca    -3.100015  -2.723927  2.927772
