15
Energy: -29402.1235137 eV PBE+vdW (tier 2 basis)
N    -0.148436  0.214911  0.135718
C    -0.229758  -0.054907  1.564857
C    1.146349  -0.441651  2.051435
O    1.520886  -1.675055  2.030170
H    0.184702  1.153408  -0.083043
H    0.379749  -0.467101  -0.405791
H    -0.540813  0.865245  2.078606
C    -1.255773  -1.149537  1.906050
O    -0.849164  -2.454169  1.418873
H    -2.205558  -0.850983  1.440059
H    -1.391693  -1.206236  2.997156
H    0.686916  -2.229628  1.778361
O    1.977841  0.480016  2.395329
H    2.877906  0.135577  2.600866
Ca    -1.689222  -4.132349  0.743406
