15
Energy: -29402.85648 eV PBE+vdW (tier 2 basis)
N    0.481980  -1.375761  0.013417
C    -0.436771  -0.372984  0.692270
C    0.192467  -0.141392  2.073349
O    1.364705  -0.281004  2.284108
H    1.459063  -1.210003  0.321364
H    0.227861  -2.341573  0.274239
H    -0.333459  0.570982  0.132424
C    -1.898322  -0.841775  0.704131
O    -2.119710  -1.739721  1.752779
H    -2.148477  -1.293244  -0.273622
H    -2.524124  0.066448  0.780323
H    0.435022  -1.300426  -1.012573
O    -0.701769  0.276931  3.050397
H    -0.149979  0.687017  3.754355
Ca    -2.576486  -1.482492  3.655039
