15
Energy: -29403.3248297 eV PBE+vdW (tier 2 basis)
N    0.032019  1.134881  2.064088
C    0.517890  0.511480  3.291436
C    1.820149  1.255093  3.651975
O    2.587669  0.861808  4.572635
H    -0.956982  1.382171  2.088780
H    0.218651  0.602030  1.212218
H    -0.188435  0.726281  4.110699
C    0.700730  -1.011187  3.182948
O    1.191871  -1.595962  4.456928
H    1.418106  -1.276663  2.393647
H    -0.268209  -1.471526  2.958039
H    0.734184  -2.448642  4.573441
O    2.058145  2.301357  2.961779
H    1.257503  2.301398  2.292124
Ca    2.892712  -0.817519  5.776262
