15
Energy: -29402.5476504 eV PBE+vdW (tier 2 basis)
N    -0.203003  1.163399  -0.533335
C    -0.378184  0.758286  0.848009
C    1.071466  0.527223  1.295729
O    1.820973  1.449574  1.718463
H    -0.579166  2.080708  -0.755534
H    -0.461618  0.475631  -1.235820
H    -0.795032  1.576284  1.452669
C    -1.249626  -0.471557  1.087640
O    -0.523891  -1.628191  0.449093
H    -2.215709  -0.392963  0.578364
H    -1.381524  -0.697758  2.153459
H    -0.892027  -2.499509  0.702388
O    1.606348  -0.670574  1.114764
H    0.520328  -1.470730  0.721854
Ca    3.632749  0.268330  1.592630
