15
Energy: -29403.9442865 eV PBE+vdW (tier 2 basis)
N    -0.706635  -0.904644  0.152919
C    0.022056  -0.158857  1.221764
C    1.431439  -0.751923  1.297627
O    1.616959  -1.966802  1.092513
H    -1.681325  -0.582736  0.126549
H    -0.323747  -0.651095  -0.765492
H    0.083492  0.924584  1.040223
C    -0.700282  -0.381877  2.558737
O    -0.881855  -1.828799  2.721876
H    -1.685827  0.104905  2.537815
H    -0.115478  0.020510  3.396234
H    -1.252383  -2.006133  3.605587
O    2.359151  0.099340  1.623143
H    3.245136  -0.323446  1.703396
Ca    -0.255807  -3.174981  0.950976
