15
Energy: -29403.0582091 eV PBE+vdW (tier 2 basis)
N    0.608082  -0.670249  -0.345223
C    -0.464719  -0.452936  0.706044
C    0.298429  -0.353827  2.027755
O    1.494789  -0.459130  2.099933
H    0.615374  0.064117  -1.065965
H    1.528681  -0.666603  0.150049
H    -0.952813  0.510139  0.501642
C    -1.540158  -1.580882  0.659484
O    -2.459885  -1.365254  1.663220
H    -1.038695  -2.562901  0.767124
H    -2.013581  -1.552546  -0.339145
H    0.502561  -1.578182  -0.822470
O    -0.483803  -0.103393  3.138943
H    0.158109  0.045178  3.870748
Ca    -2.971372  -0.787533  3.452860
