15
Energy: -29403.450292 eV PBE+vdW (tier 2 basis)
N    0.019029  1.181443  2.089759
C    0.495367  0.483184  3.338435
C    1.822764  1.236162  3.687755
O    2.486014  0.734498  4.682142
H    -0.935761  1.554096  2.162297
H    0.080088  0.616850  1.231879
H    -0.240673  0.664784  4.133496
C    0.668461  -1.027723  3.114344
O    1.102912  -1.669593  4.360303
H    1.420806  -1.229842  2.336949
H    -0.285278  -1.482106  2.815359
H    0.647475  -2.528762  4.415843
O    2.115435  2.205036  3.005832
H    0.736077  1.982337  2.027828
Ca    2.822284  -0.929367  5.789780
