13
Properties=species:S:1:pos:R:3:Z:I:1:forces:R:3 magmom=0 Energy=T energy=-8809.22499784 pbc="F F F" dipole="-1.7886157 -0.0067959 -1.1459365"
N       0.25323269      -0.01038093       1.06744761        7      -0.02049020      -0.00110424       0.00284302 
C       0.46671357      -0.21976858       2.50051145        6      -0.01855380      -0.00996441       0.00064386 
C       1.96451416      -0.15717447       2.82796447        6       0.00139071      -0.03836590       0.01407221 
O       2.77144294      -0.20291636       1.76928088        8      -0.02211910       0.00233425       0.00469005 
H      -0.49074571      -0.59093653       0.70521605        1       0.00331158       0.00107344       0.02772683 
H       0.03402546       0.95084793       0.84583498        1       0.00897233       0.02233250       0.00431287 
H       2.19227542      -0.22676034       0.98524265        1       0.00343278      -0.00514719       0.00234978 
H      -0.00675172       0.54762627       3.11657733        1       0.00671279       0.01529477      -0.03865402 
C      -0.06046140      -1.58501162       2.93047532        6       0.01472502       0.00109076      -0.00670863 
H      -1.14380847      -1.62750882       2.80909617        1       0.04200951      -0.00573670      -0.00277150 
H       0.18438773      -1.76739690       3.97421019        1       0.00124822       0.00373972      -0.01267410 
H       0.39443190      -2.37046959       2.32452635        1      -0.01588880      -0.00400881      -0.00023094 
O       2.36774341      -0.10614809       3.95261554        8      -0.00475094       0.01846181       0.00440060 
