10
Properties=species:S:1:pos:R:3:Z:I:1:forces:R:3 magmom=0 Energy=T energy=-7739.55015889 pbc="F F F" dipole="-1.5543217 -0.5086689 -1.4802987"
N      -0.17412273      -0.24328097       0.00275908        7      -0.00860708      -0.01391893       0.00291846 
C      -0.18766527       0.22897600       1.38467794        6      -0.01684042       0.00024266      -0.01370681 
C       1.22481718       0.41854095       1.93998056        6      -0.00331148      -0.00035651      -0.00033861 
O       1.42425037       0.72204696       3.07863741        8       0.00707470      -0.00514899      -0.01659035 
H      -0.75103123       0.31315489      -0.60964875        1      -0.01096550       0.01447706       0.02208398 
H      -0.46490374      -1.20640470      -0.08156065        1       0.00437802       0.00337257       0.01627704 
H      -0.68219798       1.19621698       1.46640250        1       0.01992559       0.00959119      -0.02661925 
H      -0.71052479      -0.44002404       2.06797135        1       0.01702718      -0.02177138      -0.02106824 
O       2.19837316       0.22888843       1.05207316        8      -0.00860332       0.00349994       0.00918702 
H       1.76500402      -0.01011449       0.21170740        1      -0.00007765       0.01001239       0.02785672 
