10
Energy: -7742.54240484 eV PBE+vdW (tier 2 basis)
N    -0.147131  -0.243324  -0.002154
C    -0.186001  0.230448  1.390264
C    1.233316  0.422675  1.953647
O    1.450451  0.731103  3.102965
H    -0.729044  0.318037  -0.619081
H    -0.449484  -1.211371  -0.086314
H    -0.689906  1.203575  1.460957
H    -0.722112  -0.449095  2.066598
O    2.196846  0.223836  1.034818
H    1.685064  -0.017884  0.211300
