22
Properties=species:S:1:pos:R:3:Z:I:1:forces:R:3 magmom=0 Energy=T energy=-12017.9629734 pbc="F F F" dipole="-2.0445238 -0.3151456 -0.6947242"
N      -0.37001317      -1.97282854       0.37275306        7      -0.01908540       0.00413043      -0.00100566 
C       0.10032395      -0.94148107       1.30159348        6       0.00929289      -0.00724059       0.01010284 
C       1.59889320      -1.13365227       1.58576203        6       0.00032483      -0.01506487       0.03152764 
O       2.20011801      -2.04326471       0.82251130        8      -0.01356982       0.01000128      -0.00738287 
H      -0.86617114      -2.70842362       0.86052829        1       0.00026302      -0.01774303       0.02126909 
H       1.50679596      -2.41002385       0.24336633        1      -0.00824337      -0.00905131      -0.01913436 
H       0.04320264       0.02603600       0.79852380        1       0.00190976      -0.00599674      -0.01404306 
C      -0.67393958      -0.87226340       2.61790873        6      -0.00887463      -0.00134088      -0.00193368 
C      -2.14233504      -0.47129240       2.47591473        6      -0.01524510      -0.00320421      -0.00011914 
C      -2.84254816      -0.59507720       3.82642664        6      -0.00100705      -0.00533180       0.00531416 
C      -2.30105002       0.94533286       1.93058611        6       0.00409109       0.00235189      -0.01027752 
H      -0.16388078      -0.17089805       3.28116970        1       0.01336249       0.00305396      -0.02215042 
H      -0.61256174      -1.85388588       3.10098630        1       0.01979909      -0.00677342      -0.01002375 
H      -2.62809671      -1.16335564       1.77971624        1      -0.00703248      -0.01158678      -0.00472471 
H      -2.38959569       0.08389024       4.55234009        1       0.00023880      -0.00225100      -0.00653960 
H      -2.76366674      -1.60809777       4.22205786        1      -0.01214862       0.00185927       0.01015298 
H      -3.89975429      -0.34089608       3.74416696        1       0.00911518      -0.01323146       0.01056472 
H      -3.35491492       1.22118656       1.88363251        1       0.01206506       0.00516787      -0.00879384 
H      -1.88838578       1.05468877       0.92759533        1      -0.00777476       0.00723760      -0.01375479 
H      -1.79533980       1.66188856       2.58167840        1       0.00303596      -0.00568687      -0.00325121 
O       2.18078028      -0.49800100       2.41514121        8       0.02057741       0.02733381       0.02748114 
H      -0.98986047      -1.60758248      -0.33536012        1      -0.00109442       0.04336685       0.00672215 
