23
Energy: -15098.1214241 eV PBE+vdW (tier 2 basis)
N    0.446171  0.212329  0.236963
C    -0.093095  0.132148  1.604702
C    1.023426  0.511436  2.612327
O    0.905007  0.393792  3.812801
H    -0.229979  0.598867  -0.418156
H    0.710256  -0.717222  -0.098922
H    -0.846501  0.927163  1.719496
C    -0.762724  -1.212513  1.979215
C    0.096916  -2.410454  1.657926
C    1.121778  -2.822120  2.524732
C    -0.082013  -3.112654  0.456480
C    1.943324  -3.898869  2.193247
C    0.740658  -4.190925  0.122543
C    1.758654  -4.584992  0.990627
H    -1.715976  -1.285985  1.436566
H    -0.992469  -1.175477  3.052264
H    1.272901  -2.292033  3.465365
H    -0.890735  -2.821948  -0.217544
H    2.731611  -4.205840  2.880662
H    0.580369  -4.726341  -0.813435
H    2.401215  -5.427479  0.735567
O    2.116700  1.017463  2.020064
H    1.890507  0.962653  1.045511
