27
Properties=species:S:1:pos:R:3:Z:I:1:forces:R:3 magmom=0 Energy=T energy=-18676.0959652 pbc="F F F" dipole="-1.1598504 -0.5568887 -0.4926154"
N      -0.67149106      -0.24750331      -0.23559467        7       0.01093182       0.01003795      -0.00227964 
C      -0.14936047      -0.20791202       1.12818431        6       0.00760198      -0.00702251       0.01858414 
C       1.38653304      -0.28495662       1.10668979        6       0.00635968      -0.03046428      -0.00476760 
O       1.93889627      -0.08277628      -0.08471201        8      -0.02632517       0.00662974      -0.01367524 
H      -0.89938344      -1.19719160      -0.51183929        1       0.01630481       0.00153171      -0.00274167 
H       1.20019439       0.02726998      -0.71131315        1      -0.02567046       0.01121454      -0.02767217 
H      -0.37481565       0.77669794       1.54407226        1       0.01169708       0.01640143       0.01931814 
C      -0.69442359      -1.28584096       2.07729312        6      -0.00486226      -0.03951246      -0.00981709 
C      -0.50145230      -2.66542672       1.52698471        6       0.00595550      -0.02353403      -0.00916763 
C       0.60973239      -3.44910434       1.64715170        6       0.01216276      -0.00517301       0.00751235 
C      -1.43074862      -3.40933690       0.71866763        6       0.00180461      -0.00548869      -0.00234773 
N       0.42832109      -4.63203598       0.97073886        7      -0.00227265       0.01501396      -0.00077416 
C      -0.81368569      -4.63551169       0.38784470        6      -0.00825530       0.00520345       0.00273195 
C      -2.72645392      -3.15636144       0.25103501        6      -0.01266469       0.01235297       0.00207987 
C      -1.44795226      -5.59841802      -0.39576521        6       0.00260278       0.00319660       0.00547486 
C      -3.35769201      -4.10695209      -0.52402903        6      -0.00375155       0.00517759      -0.00080902 
C      -2.72114936      -5.31674158      -0.84714848        6       0.00342779       0.00432516       0.01383809 
H      -1.75689000      -1.10272380       2.25008596        1       0.01223120       0.01481876      -0.00767063 
H      -0.17770868      -1.18153514       3.03064061        1      -0.03032215      -0.00255100      -0.01284138 
H       1.52906894      -3.24449306       2.17079984        1       0.01015797       0.01183942       0.00708133 
H       1.10221822      -5.37431010       0.91406508        1      -0.01361353       0.02236207      -0.00538379 
H      -3.22907434      -2.22944432       0.49955422        1      -0.00113823       0.00320200       0.00441674 
H      -0.96129874      -6.53265538      -0.64203009        1       0.00969177       0.00040901      -0.00142876 
H      -4.35928031      -3.92446799      -0.88798046        1      -0.00036129       0.00464069      -0.00316040 
H      -3.24132128      -6.04085927      -1.45906155        1       0.01114362      -0.00206861       0.00562593 
O       2.03649893      -0.48811020       2.09227202        8       0.00587754      -0.02181689       0.02626130 
H      -1.50453853       0.31468983      -0.33518191        1       0.00128632      -0.01072551      -0.00838786 
