19
Properties=species:S:1:pos:R:3:Z:I:1:forces:R:3 magmom=0 Energy=T energy=-10948.424692 pbc="F F F" dipole="-1.8623241 0.8312153 -0.3352886"
N      -0.41357293       0.76769559       0.71529339        7      -0.01980377       0.00418205       0.01317984 
C       0.06667034       0.13263626       1.94408832        6       0.01731561      -0.00643933      -0.00403200 
C       1.46977741      -0.45346529       1.71609044        6      -0.00625133      -0.02927551      -0.00406394 
O       2.04398408      -0.09981321       0.56895873        8      -0.01273205       0.00528619       0.00427436 
H      -0.91103711       1.62739295       0.89326366        1      -0.00216754       0.01031285       0.03505545 
H      -1.02914995       0.15956830       0.19069176        1       0.00534075      -0.03024250      -0.00680427 
H       0.21683659       0.91899760       2.68826150        1       0.01413618       0.02003959      -0.01609248 
C      -0.85699534      -0.92714205       2.56473096        6      -0.00388782       0.00940839       0.00051129 
C      -2.15059659      -0.29363963       3.05875291        6      -0.01644853       0.01460623      -0.00015272 
C      -1.13751968      -2.07565047       1.60012120        6       0.00518252      -0.00355630      -0.01105883 
H      -0.31086452      -1.33239220       3.41727357        1       0.02203317       0.02012073      -0.00093069 
H      -1.95240666       0.49934907       3.78084020        1      -0.01714391       0.00583754       0.00755570 
H      -2.78406523      -1.03877727       3.53936181        1      -0.00128823       0.00822738       0.00157557 
H      -2.71848605       0.13531459       2.23056211        1      -0.01608477       0.00539196      -0.00654485 
H      -0.21465719      -2.53579512       1.24640769        1       0.00522350      -0.00832235      -0.00910356 
H      -1.71707860      -1.74567650       0.73425756        1      -0.00671778      -0.00661036      -0.00646596 
H      -1.72850621      -2.84519671       2.09588433        1       0.01905002      -0.00472867      -0.00255259 
O       2.01061742      -1.15501021       2.52018619        8       0.01800050      -0.03216440       0.02507463 
H       1.39505123       0.46060631       0.10497466        1      -0.00375654       0.01792640      -0.01942499 
