19
Energy: -10950.9149969 eV PBE+vdW (tier 2 basis)
N    -0.379130  0.771482  0.696014
C    0.077954  0.129113  1.944694
C    1.496919  -0.452538  1.723229
O    2.044040  -0.084900  0.550489
H    -0.878870  1.639248  0.876379
H    -1.007328  0.159367  0.174009
H    0.219475  0.927567  2.690950
C    -0.867459  -0.928636  2.558428
C    -2.162797  -0.289984  3.067593
C    -1.146195  -2.087695  1.593575
H    -0.313573  -1.336796  3.417194
H    -1.960158  0.505213  3.799082
H    -2.800525  -1.038086  3.557138
H    -2.750626  0.149765  2.247188
H    -0.217735  -2.558557  1.244397
H    -1.723462  -1.768188  0.710868
H    -1.744228  -2.862445  2.090762
O    2.066260  -1.147097  2.536113
H    1.325439  0.472169  0.131899
