27
Energy: -169718.63232 eV PBE+vdW (tier 2 basis)
C    -0.768526  0.063127  -0.169986
C    -1.338974  -1.155603  0.450606
O    -1.367909  -2.245016  -0.132061
H    -0.001224  -0.211031  -0.902612
H    -0.386411  0.781641  0.564606
H    -1.580040  0.564465  -0.729312
N    -1.950588  -1.125521  1.783338
C    -0.995390  -0.987840  2.944984
C    -0.602543  -2.353482  3.575313
O    -1.171376  -3.462674  3.306385
H    -0.057162  -0.530499  2.594764
C    -1.730046  -0.053132  3.953712
C    -3.186873  -0.039596  3.480299
C    -3.043671  -0.091720  1.969672
H    -1.292720  0.951371  3.894387
H    -1.624150  -0.399875  4.987489
H    -3.722662  0.859894  3.803768
H    -3.744011  -0.909881  3.855027
H    -2.705825  0.878657  1.574819
H    -3.941126  -0.403344  1.424347
N    0.371149  -2.314717  4.464309
C    0.870801  -3.472640  5.218859
H    0.779715  -1.408534  4.686435
H    0.753525  -4.379080  4.619227
H    0.313652  -3.581320  6.158154
H    1.929097  -3.307258  5.441446
Cd    -2.356716  -3.458392  1.524022
