27
Energy: -169717.68778 eV PBE+vdW (tier 2 basis)
C    0.191724  -0.182555  0.137885
C    -0.079207  -0.615631  1.539322
O    0.470939  -1.688811  2.019170
H    1.134900  0.388339  0.114885
H    -0.584511  0.464433  -0.281762
H    0.285032  -1.066122  -0.504377
N    -0.924451  0.020625  2.344731
C    -1.711758  1.213928  2.000625
C    -0.804317  2.430861  1.636282
O    0.403835  2.425574  1.823985
H    -2.348438  0.999515  1.124934
C    -2.567267  1.482659  3.263767
C    -2.625376  0.126927  3.974617
C    -1.237777  -0.453069  3.721163
H    -3.555868  1.877092  3.005591
H    -2.060176  2.223829  3.898127
H    -3.396199  -0.519879  3.534704
H    -2.837846  0.225589  5.044134
H    -1.187362  -1.543638  3.762420
H    -0.481988  -0.032234  4.404398
N    -1.487841  3.499660  1.138971
C    -0.875412  4.802446  0.960552
H    -2.503739  3.444317  1.080850
H    -0.966623  5.417432  1.872717
H    0.190086  4.672027  0.741597
H    -1.393622  5.326757  0.148133
Cd    2.426193  -2.446254  1.665892
