27
Energy: -169718.630078 eV PBE+vdW (tier 2 basis)
C    -0.317964  -0.418739  -0.190522
C    -0.348435  0.718026  0.777829
O    0.516759  1.678333  0.662070
H    -1.186461  -0.362926  -0.865806
H    -0.361583  -1.395833  0.309430
H    0.585088  -0.351955  -0.803368
N    -1.277928  0.767719  1.731404
C    -1.507769  1.890730  2.680746
C    -0.316344  2.384300  3.490196
O    0.757018  1.682859  3.648667
H    -1.894816  2.735874  2.086725
C    -2.620831  1.347109  3.616886
C    -3.422896  0.421023  2.703432
C    -2.349243  -0.262105  1.866864
H    -3.223070  2.155920  4.041657
H    -2.164883  0.787334  4.446171
H    -4.103288  0.997242  2.061726
H    -4.023617  -0.302115  3.264946
H    -2.698466  -0.578364  0.878614
H    -1.918930  -1.136518  2.381171
N    -0.419090  3.534191  4.136360
C    -1.540150  4.474783  4.214364
H    0.389100  3.750237  4.724067
H    -2.175462  4.243397  5.079649
H    -2.140902  4.446609  3.299764
H    -1.132273  5.483193  4.337768
Cd    2.131440  1.648677  2.021189
