27
Energy: -169718.699095 eV PBE+vdW (tier 2 basis)
C    0.356307  -0.909736  0.575075
C    -0.004119  0.196333  1.513004
O    0.841720  1.159071  1.603967
H    0.307608  -1.886326  1.076320
H    1.366125  -0.747944  0.189833
H    -0.347936  -0.937305  -0.270923
N    -1.156998  0.138404  2.200466
C    -1.697847  1.253082  3.000268
C    -0.951348  1.557228  4.327416
O    -0.259637  2.645003  4.403883
H    -1.572910  2.191351  2.425682
C    -3.216316  0.969979  3.103475
C    -3.401616  -0.520058  2.773755
C    -2.197512  -0.902560  1.913348
H    -3.720769  1.598543  2.359353
H    -3.628740  1.254444  4.078183
H    -4.338314  -0.686805  2.231359
H    -3.450875  -1.136133  3.676423
H    -2.432105  -0.869028  0.840837
H    -1.802120  -1.898061  2.146701
N    -1.016903  0.821733  5.419280
C    -1.750623  -0.412619  5.708692
H    -0.489606  1.219295  6.200481
H    -1.299759  -0.859832  6.599561
H    -1.658433  -1.122324  4.882485
H    -2.806496  -0.204146  5.921882
Cd    0.785225  3.030412  2.595201
