27
Energy: -169718.912138 eV PBE+vdW (tier 2 basis)
C    -0.277690  -0.608140  0.030792
C    -0.136203  -0.182182  1.460246
O    1.044964  0.199828  1.799005
H    -0.884489  0.120234  -0.528287
H    -0.763123  -1.590116  -0.045798
H    0.713391  -0.657153  -0.427825
N    -1.189684  -0.218300  2.287049
C    -1.224419  0.352114  3.663441
C    -0.501834  -0.514649  4.721688
O    0.687772  -0.222108  5.115744
H    -0.689893  1.320903  3.654036
C    -2.726547  0.621285  3.939132
C    -3.389369  0.575326  2.558150
C    -2.584431  -0.489827  1.825784
H    -2.860011  1.574260  4.461932
H    -3.159602  -0.150541  4.590289
H    -3.300310  1.541396  2.043433
H    -4.454043  0.325064  2.616771
H    -2.649453  -0.420538  0.738088
H    -2.864817  -1.511265  2.124103
N    -1.113017  -1.550049  5.254386
C    -0.534671  -2.446154  6.263580
H    -2.087621  -1.702461  5.003378
H    0.545331  -2.524352  6.112277
H    -1.003243  -3.429382  6.160676
H    -0.731943  -2.052878  7.269619
Cd    1.844955  0.788688  3.656311
