27
Energy: -169717.468131 eV PBE+vdW (tier 2 basis)
C    -0.089883  0.333457  -0.034938
C    -0.054328  0.021063  1.434037
O    1.023340  0.025342  2.048855
H    -0.596728  1.291855  -0.219107
H    -0.620165  -0.453375  -0.589654
H    0.939202  0.405477  -0.396290
N    -1.238293  -0.265200  2.093796
C    -1.341489  -0.283924  3.571570
C    -0.634765  -1.482939  4.281552
O    -1.226267  -2.291006  5.086840
H    -0.818446  0.605124  3.968181
C    -2.844738  -0.144548  3.847528
C    -3.406935  0.544493  2.593242
C    -2.573740  -0.094240  1.482571
H    -3.046714  0.432636  4.760535
H    -3.323696  -1.148598  3.907030
H    -3.230159  1.627412  2.643958
H    -4.481323  0.381647  2.462426
H    -2.513048  0.512321  0.575426
H    -2.967832  -1.085839  1.201957
N    0.646364  -1.633310  4.062587
C    1.517116  -2.636931  4.672768
H    1.028774  -0.984695  3.323958
H    1.412102  -3.599257  4.153162
H    1.269669  -2.769067  5.730899
H    2.549912  -2.291089  4.568098
Cd    -3.077823  -2.132532  6.139616
