20
Energy: -14473.7495092 eV PBE+vdW (tier 2 basis)
N    2.313213  -0.731910  1.113033
C    1.169724  0.128876  0.835442
C    0.466383  0.787282  2.033151
O    -0.303553  1.720176  1.943877
H    3.080556  -0.189249  1.507788
H    2.077487  -1.437571  1.810892
H    1.527749  0.975966  0.231445
C    0.111364  -0.605466  -0.021593
C    -0.488843  -1.839178  0.658473
C    -1.612745  -2.577391  -0.069212
O    -2.375228  -3.325149  0.532181
N    -1.700398  -2.387256  -1.420163
H    0.625855  -0.888665  -0.952614
H    -0.679968  0.115827  -0.271081
H    -0.903476  -1.589092  1.644862
H    0.292587  -2.595207  0.837305
H    -1.097787  -1.753234  -1.926238
H    -2.432498  -2.874308  -1.922147
O    0.781026  0.203241  3.224203
H    0.260551  0.681310  3.899396
