20
Energy: -14473.9212041 eV PBE+vdW (tier 2 basis)
N    0.844775  -2.773674  0.596451
C    0.445802  -1.385903  0.319188
C    1.016821  -0.446094  1.380410
O    1.537874  -0.808762  2.415827
H    1.629591  -3.040938  0.004630
H    1.187527  -2.819639  1.561109
H    0.864086  -1.066874  -0.647379
C    -1.091118  -1.209186  0.220119
C    -1.904127  -1.591276  1.475190
C    -2.553228  -2.981859  1.503289
O    -3.677590  -3.143794  1.972817
N    -1.808673  -3.995237  0.981842
H    -1.432338  -1.798084  -0.642608
H    -1.283653  -0.156643  -0.026264
H    -2.736623  -0.891852  1.608758
H    -1.288593  -1.501508  2.386408
H    -0.827925  -3.840240  0.719491
H    -2.185574  -4.932820  1.049550
O    0.854247  0.859837  1.051082
H    1.214720  1.379547  1.796091
