20
Energy: -14473.9331188 eV PBE+vdW (tier 2 basis)
N    -0.651321  0.503209  -0.045010
C    -0.235452  0.252490  1.339065
C    1.151461  -0.410791  1.540031
O    1.430899  -1.506815  0.803442
H    -0.688291  -0.356242  -0.594127
H    0.626186  -1.825387  0.302992
H    -0.117319  1.236828  1.811237
C    -1.339980  -0.466749  2.149074
C    -1.480966  -2.001061  2.024266
C    -1.742866  -2.506130  0.618273
O    -0.873613  -2.483704  -0.269178
N    -2.980583  -2.989060  0.361992
H    -2.290041  0.016226  1.876759
H    -1.162169  -0.258542  3.213303
H    -2.282207  -2.328823  2.701508
H    -0.556948  -2.489528  2.367221
H    -3.706188  -3.004646  1.065148
H    -3.194920  -3.315704  -0.573324
O    1.964357  0.039623  2.321528
H    0.017961  1.122806  -0.501201
