20
Energy: -14473.6999331 eV PBE+vdW (tier 2 basis)
N    -0.136210  0.824843  0.444001
C    0.000460  0.184588  1.753813
C    1.406632  -0.303177  2.164068
O    1.694849  -0.582344  3.301813
H    -0.127304  0.179998  -0.345158
H    1.891854  -0.123752  0.333644
H    -0.266756  0.932526  2.516177
C    -0.968983  -1.008435  1.888039
C    -2.432597  -0.703322  1.522048
C    -3.041973  0.414853  2.366840
O    -3.598516  0.204198  3.438170
N    -2.920111  1.666931  1.823767
H    -0.908925  -1.365014  2.924030
H    -0.612734  -1.834467  1.250280
H    -3.030477  -1.602959  1.710977
H    -2.520106  -0.460851  0.453920
H    -2.280409  1.818631  1.048854
H    -3.201353  2.456706  2.393370
O    2.319192  -0.427966  1.158705
H    0.508467  1.596012  0.284644
