20
Energy: -14473.816716 eV PBE+vdW (tier 2 basis)
N    1.640428  0.233153  0.357635
C    0.835385  -0.549939  1.296248
C    -0.668721  -0.401735  1.045046
O    -1.244793  0.658286  0.903947
H    1.526950  -0.126094  -0.591046
H    1.299224  1.197415  0.341944
H    1.099096  -1.609319  1.173435
C    1.158366  -0.101726  2.733934
C    0.458093  -0.892289  3.844751
C    0.744295  -2.391193  3.947621
O    -0.111835  -3.188996  4.310034
N    2.019973  -2.786042  3.645057
H    0.879062  0.959214  2.829672
H    2.254060  -0.130138  2.836529
H    -0.633434  -0.804298  3.771711
H    0.729849  -0.453839  4.818280
H    2.747394  -2.135190  3.381581
H    2.256911  -3.763350  3.761860
O    -1.299173  -1.604109  0.994645
H    -2.250130  -1.416810  0.863114
