20
Energy: -14473.8355839 eV PBE+vdW (tier 2 basis)
N    -1.212556  0.676089  0.448439
C    -1.220295  -0.199184  1.629113
C    -0.276804  0.206855  2.766200
O    -0.395275  -0.149532  3.917881
H    -1.753861  1.520261  0.632204
H    -0.260996  0.991222  0.251882
H    -2.225037  -0.158466  2.072112
C    -0.962251  -1.683255  1.265920
C    0.335614  -1.996271  0.494378
C    0.261834  -2.104351  -1.035152
O    1.009332  -2.865048  -1.644835
N    -0.671521  -1.327326  -1.655458
H    -1.830252  -2.036036  0.691680
H    -0.965117  -2.246122  2.209021
H    0.735633  -2.964063  0.818118
H    1.127331  -1.264643  0.727968
H    -1.154383  -0.579101  -1.149144
H    -0.678882  -1.338785  -2.668475
O    0.753177  0.996582  2.340741
H    1.309311  1.160173  3.127406
