20
Energy: -14473.7678973 eV PBE+vdW (tier 2 basis)
N    0.539778  1.316180  0.810255
C    0.614444  -0.126700  1.075204
C    -0.624234  -0.868696  0.567731
O    -0.656607  -1.602727  -0.397113
H    -0.292104  1.715400  1.248671
H    0.462670  1.492192  -0.192090
H    1.450808  -0.528383  0.486101
C    0.880899  -0.370045  2.566298
C    1.054569  -1.850133  2.916238
C    1.285712  -2.211099  4.383394
O    1.032636  -3.330889  4.812263
N    1.817046  -1.234560  5.180171
H    0.054144  0.062799  3.150792
H    1.786738  0.209975  2.802093
H    1.903828  -2.275243  2.356195
H    0.176034  -2.435583  2.612987
H    2.018109  -0.301581  4.848005
H    1.997390  -1.459352  6.150768
O    -1.737432  -0.567233  1.302032
H    -2.476426  -1.047322  0.881004
