20
Energy: -14473.8608718 eV PBE+vdW (tier 2 basis)
N    1.416712  1.138094  3.076993
C    0.604767  0.528584  2.026208
C    -0.878486  0.435778  2.396019
O    -1.317710  0.435699  3.528795
H    1.091231  0.806330  3.988010
H    1.266256  2.147118  3.088213
H    0.677439  1.152597  1.124093
C    1.130779  -0.873238  1.642077
C    1.144106  -1.878684  2.794394
C    1.472534  -3.287830  2.303814
O    1.065869  -3.731116  1.235771
N    2.235495  -4.035905  3.157451
H    2.153499  -0.737358  1.263560
H    0.529906  -1.284242  0.820245
H    0.149709  -1.939634  3.267984
H    1.849163  -1.565619  3.578058
H    2.572037  -3.674853  4.039231
H    2.438552  -4.996513  2.909147
O    -1.671771  0.319808  1.297484
H    -2.586087  0.216984  1.627452
