20
Energy: -14473.9849502 eV PBE+vdW (tier 2 basis)
N    -0.065386  -0.277989  -0.070471
C    -0.218890  0.159883  1.330667
C    1.058532  0.936183  1.736866
O    1.365393  1.178016  2.888643
H    0.332593  -1.217473  -0.119959
H    1.306894  0.936107  -0.091898
H    -1.018725  0.919158  1.340267
C    -0.564327  -0.921193  2.359897
C    0.536719  -1.994333  2.544966
C    0.840138  -2.309572  4.014151
O    0.656631  -3.423321  4.496055
N    1.332668  -1.256398  4.725106
H    -1.510122  -1.397816  2.067932
H    -0.757550  -0.416529  3.315397
H    1.480344  -1.662928  2.079356
H    0.258689  -2.944348  2.077389
H    1.442022  -0.330984  4.312922
H    1.523880  -1.392776  5.709595
O    1.785304  1.342793  0.688995
H    -0.960807  -0.302481  -0.554875
