20
Energy: -14473.7740699 eV PBE+vdW (tier 2 basis)
N    1.150712  0.969274  0.617053
C    0.751957  -0.396538  0.987085
C    -0.769880  -0.490705  0.882572
O    -1.536071  -0.867963  1.742454
H    2.168143  1.042395  0.634394
H    0.844061  1.188338  -0.330482
H    1.137418  -1.169393  0.284442
C    1.265788  -0.724327  2.388755
C    1.118170  -2.193856  2.788244
C    1.932956  -2.512395  4.039496
O    3.085287  -2.122595  4.196462
N    1.296498  -3.293388  4.963735
H    0.758551  -0.076543  3.117253
H    2.335555  -0.470994  2.428232
H    1.517612  -2.840401  1.988547
H    0.060915  -2.458049  2.918514
H    0.323622  -3.550487  4.869966
H    1.788301  -3.530974  5.816742
O    -1.194881  -0.105698  -0.355842
H    -2.168712  -0.180700  -0.342623
