20
Energy: -14473.7947492 eV PBE+vdW (tier 2 basis)
N    -1.614318  -0.355590  1.594444
C    -0.183794  -0.569144  1.761962
C    0.692489  -0.551458  0.501851
O    1.857863  -0.221621  0.473099
H    -2.054630  -1.109235  1.067075
H    -1.799418  0.514242  1.096741
H    0.205470  0.268450  2.359822
C    0.124861  -1.852078  2.573854
C    0.009287  -3.202189  1.839415
C    -1.421728  -3.639542  1.533176
O    -2.133078  -4.183351  2.368830
N    -1.860837  -3.371336  0.261745
H    -0.546597  -1.847062  3.443732
H    1.153076  -1.764574  2.949960
H    0.416896  -3.978837  2.498572
H    0.624554  -3.197791  0.927031
H    -1.281908  -2.889524  -0.415870
H    -2.801431  -3.649651  0.008532
O    0.034685  -0.969094  -0.632235
H    0.700557  -0.911614  -1.345735
