20
Energy: -14473.8711181 eV PBE+vdW (tier 2 basis)
N    1.300692  -1.524040  0.386430
C    0.337331  -0.532841  0.846004
C    0.838306  0.904076  1.032420
O    0.142843  1.893656  0.928161
H    2.018054  -1.691505  1.093492
H    1.771739  -1.213492  -0.462150
H    -0.456640  -0.450869  0.086262
C    -0.316530  -0.975826  2.172460
C    -0.909785  -2.383438  2.105164
C    0.137985  -3.479616  2.297822
O    1.109664  -3.341193  3.034965
N    -0.134252  -4.662493  1.667416
H    -1.096000  -0.247366  2.429942
H    0.433906  -0.956728  2.977537
H    -1.467542  -2.533688  1.168602
H    -1.633700  -2.507571  2.926432
H    -0.798600  -4.701327  0.905811
H    0.571866  -5.387775  1.715785
O    2.161019  0.965477  1.356896
H    2.356642  1.913556  1.488548
