20
Energy: -14474.0213968 eV PBE+vdW (tier 2 basis)
N    0.320828  0.763193  0.658454
C    0.076960  0.020106  1.905937
C    1.410483  -0.561646  2.426609
O    1.484028  -1.394990  3.303232
H    0.200116  0.161632  -0.158307
H    2.081196  0.602800  1.154733
H    -0.210551  0.772766  2.658166
C    -1.011562  -1.061600  1.858952
C    -2.390609  -0.550356  1.391586
C    -2.826278  0.706113  2.134436
O    -2.479931  1.831385  1.773692
N    -3.586433  0.507097  3.248764
H    -1.082518  -1.509504  2.859179
H    -0.692258  -1.872527  1.185210
H    -3.129320  -1.357297  1.501201
H    -2.358907  -0.281916  0.327631
H    -3.855664  -0.415448  3.561709
H    -3.848047  1.309671  3.809025
O    2.485626  -0.018183  1.827818
H    -0.352070  1.527896  0.575943
