20
Energy: -14473.7891496 eV PBE+vdW (tier 2 basis)
N    0.358720  1.118036  3.880236
C    0.010997  -0.030408  3.041155
C    1.117801  -0.299778  2.031497
O    1.514457  -1.397839  1.701790
H    -0.394065  1.293320  4.546941
H    0.453831  1.958941  3.309085
H    -0.013516  -0.923834  3.682496
C    -1.351183  0.080978  2.310254
C    -1.770170  -1.172146  1.540966
C    -3.242648  -1.123092  1.135392
O    -4.100233  -0.557460  1.804597
N    -3.542575  -1.776185  -0.028257
H    -1.329623  0.952146  1.637179
H    -2.119922  0.290872  3.067998
H    -1.645784  -2.061796  2.181543
H    -1.131334  -1.341588  0.662382
H    -2.845257  -2.284383  -0.554978
H    -4.514729  -1.851599  -0.302278
O    1.588205  0.849559  1.468352
H    2.271028  0.574256  0.826650
