20
Energy: -14473.9229101 eV PBE+vdW (tier 2 basis)
N    -0.367302  -0.191724  0.145860
C    -0.251499  -0.281106  1.608715
C    1.184845  -0.654270  1.962426
O    2.083895  -0.786307  1.156749
H    0.573288  -0.194549  -0.257588
H    -0.821539  0.677808  -0.125937
H    -0.416306  0.703281  2.084412
C    -1.268278  -1.258046  2.244363
C    -1.094191  -2.752470  1.896158
C    -1.960400  -3.324461  0.766237
O    -2.547583  -4.396864  0.898905
N    -2.014582  -2.577075  -0.367988
H    -2.275363  -0.917953  1.962580
H    -1.196627  -1.137719  3.333176
H    -1.332997  -3.365785  2.771482
H    -0.042233  -2.972385  1.646631
H    -1.462437  -1.713926  -0.450514
H    -2.541099  -2.944284  -1.150981
O    1.358891  -0.813514  3.297491
H    2.299516  -1.044652  3.424823
