20
Energy: -14473.9995282 eV PBE+vdW (tier 2 basis)
N    -0.301492  0.803069  1.726683
C    -0.169871  -0.323621  2.666044
C    1.325658  -0.724535  2.748908
O    1.720987  -1.761232  3.236489
H    -1.135691  1.346772  1.959150
H    -0.445302  0.454103  0.776591
H    -0.400438  0.077892  3.667866
C    -1.056868  -1.553467  2.424697
C    -2.513291  -1.426986  2.911710
C    -3.337310  -0.374252  2.180960
O    -3.203618  0.834181  2.376720
N    -4.224449  -0.854788  1.261667
H    -0.591643  -2.396522  2.953788
H    -1.034299  -1.810252  1.352368
H    -2.516022  -1.146585  3.974789
H    -2.996802  -2.411845  2.836404
H    -4.391161  -1.843874  1.137794
H    -4.808268  -0.194588  0.761594
O    2.141489  0.224143  2.258822
H    1.500391  0.915388  1.914956
