20
Energy: -14473.849959 eV PBE+vdW (tier 2 basis)
N    1.463666  1.056308  2.534825
C    0.183915  0.457841  2.163818
C    -0.748833  0.265934  3.362442
O    -0.394159  0.201524  4.522698
H    1.356544  2.064322  2.645822
H    1.745021  0.708426  3.454287
H    -0.326261  1.128832  1.458288
C    0.378025  -0.892156  1.432229
C    1.126624  -1.937306  2.254714
C    1.356414  -3.231375  1.475520
O    1.251596  -3.313845  0.257572
N    1.701105  -4.308768  2.248197
H    0.940840  -0.689412  0.512874
H    -0.601903  -1.283893  1.126482
H    0.601486  -2.164594  3.195944
H    2.118637  -1.548129  2.538413
H    1.845781  -4.232931  3.245960
H    1.949300  -5.173239  1.783059
O    -2.050086  0.138281  2.983747
H    -2.559713  -0.017819  3.803109
