20
Energy: -14473.8834359 eV PBE+vdW (tier 2 basis)
N    0.992276  1.137811  3.249912
C    0.419911  0.669388  1.986152
C    -0.932617  -0.015759  2.183859
O    -1.290920  -0.540694  3.220944
H    0.677287  0.517525  4.000299
H    0.612688  2.055665  3.480739
H    0.258381  1.532435  1.325415
C    1.396993  -0.278004  1.242270
C    1.807007  -1.529792  2.021017
C    0.752819  -2.637639  1.998589
O    0.021164  -2.833211  1.032939
N    0.732143  -3.444182  3.102751
H    2.294252  0.317683  1.029459
H    0.954014  -0.582996  0.284365
H    2.100172  -1.273160  3.049786
H    2.705332  -1.959779  1.550276
H    1.176788  -3.156110  3.964222
H    -0.007941  -4.134168  3.160905
O    -1.686179  0.004329  1.059587
H    -2.465569  -0.558340  1.235515
