20
Energy: -14473.7703938 eV PBE+vdW (tier 2 basis)
N    2.548267  -1.412606  1.559896
C    1.248890  -0.719873  1.563007
C    1.413823  0.791153  1.611378
O    0.644071  1.570162  2.129995
H    3.235708  -0.856718  1.052655
H    2.466758  -2.294686  1.054472
H    0.680171  -0.893155  0.626593
C    0.358800  -1.183423  2.728490
C    0.197783  -2.699969  2.816980
C    -0.480457  -3.334826  1.604615
O    -1.074025  -2.691651  0.744629
N    -0.370015  -4.699388  1.535479
H    -0.622863  -0.705630  2.625679
H    0.799896  -0.827837  3.670410
H    -0.415583  -2.945369  3.699131
H    1.174153  -3.179702  2.988100
H    0.031642  -5.241980  2.288624
H    -0.891237  -5.184074  0.814731
O    2.532142  1.211007  0.943939
H    2.523078  2.185566  1.005197
