20
Energy: -14474.0640512 eV PBE+vdW (tier 2 basis)
N    0.590967  0.269898  -0.045795
C    -0.017767  0.067445  1.279452
C    0.982598  0.535875  2.370300
O    0.699493  0.598838  3.548243
H    0.449831  -0.553488  -0.645289
H    2.041502  0.687082  0.876353
H    -0.921131  0.685145  1.417823
C    -0.386598  -1.397332  1.562940
C    -1.603932  -1.939910  0.799567
C    -1.300467  -2.524573  -0.577264
O    -0.313466  -2.216988  -1.247587
N    -2.219260  -3.416683  -1.041214
H    -0.590536  -1.463545  2.639227
H    0.491016  -2.032452  1.366930
H    -2.351113  -1.141016  0.655953
H    -2.104770  -2.708934  1.406524
H    -3.018517  -3.705628  -0.494268
H    -2.086471  -3.814532  -1.963105
O    2.184961  0.843813  1.865385
H    0.204661  1.083986  -0.519175
