20
Energy: -14473.7724587 eV PBE+vdW (tier 2 basis)
N    0.136887  -0.305789  0.114273
C    -0.010764  -0.141742  1.568407
C    1.247103  -0.651737  2.271436
O    1.443979  -1.795092  2.650501
H    0.347247  -1.275425  -0.130816
H    0.896583  0.276601  -0.236696
H    -0.062087  0.939438  1.749854
C    -1.294300  -0.814192  2.138787
C    -2.156464  -1.627549  1.165937
C    -1.690844  -2.996431  0.664646
O    -2.386225  -3.634234  -0.121153
N    -0.486839  -3.461857  1.111973
H    -1.929731  -0.013309  2.539652
H    -1.020088  -1.433325  3.004595
H    -2.379668  -1.041057  0.264886
H    -3.129172  -1.819274  1.642092
H    0.089591  -2.992003  1.810409
H    -0.219285  -4.391640  0.810725
O    2.199223  0.311793  2.369160
H    2.989984  -0.116625  2.752726
