20
Energy: -14473.810595 eV PBE+vdW (tier 2 basis)
N    0.274954  0.287728  -0.036082
C    0.093878  0.102402  1.403077
C    1.438359  0.056387  2.127879
O    1.678942  -0.570689  3.138192
H    -0.623913  0.537915  -0.456037
H    0.925683  1.050901  -0.215745
H    -0.427076  0.960209  1.891086
C    -0.714270  -1.164209  1.725985
C    -2.239962  -1.039325  1.543812
C    -2.695738  -0.914061  0.095648
O    -2.694942  0.155874  -0.513365
N    -3.102499  -2.075063  -0.494933
H    -0.520137  -1.424476  2.774448
H    -0.319715  -1.986043  1.109567
H    -2.603067  -0.144509  2.068631
H    -2.719965  -1.909713  2.014784
H    -3.046267  -2.966991  -0.022888
H    -3.330931  -2.059460  -1.481799
O    2.360606  0.871459  1.542722
H    3.162393  0.804244  2.096186
