20
Energy: -14473.9803492 eV PBE+vdW (tier 2 basis)
N    0.211489  -0.377678  -0.224279
C    -0.012391  -0.057626  1.197333
C    1.351917  0.049361  1.913727
O    1.447803  0.210815  3.116679
H    -0.349060  0.204138  -0.842676
H    -0.014606  -1.351245  -0.426881
H    -0.414002  0.967481  1.244745
C    -0.967249  -1.002466  1.964561
C    -2.350792  -0.413038  2.240099
C    -2.452159  0.781929  3.198039
O    -3.503923  1.411077  3.281706
N    -1.358070  1.071512  3.958007
H    -0.495214  -1.303529  2.909761
H    -1.078989  -1.928957  1.380008
H    -3.005450  -1.187717  2.667736
H    -2.842889  -0.095490  1.308991
H    -0.432608  0.659314  3.825482
H    -1.433855  1.874020  4.572292
O    2.400929  -0.016029  1.090867
H    1.971336  -0.150629  0.193343
