20
Energy: -14473.8270242 eV PBE+vdW (tier 2 basis)
N    2.274032  -0.351154  2.821798
C    1.108507  -0.669163  2.013161
C    0.399636  0.464385  1.263848
O    -0.535184  0.279759  0.503264
H    2.041357  0.327282  3.547585
H    3.017552  0.059557  2.258338
H    1.450706  -1.330507  1.198841
C    0.060661  -1.450987  2.851837
C    0.203547  -2.968752  2.748058
C    -0.185841  -3.648403  1.430858
O    0.017949  -4.848614  1.271090
N    -0.789962  -2.880739  0.475308
H    -0.956809  -1.147657  2.569549
H    0.191309  -1.146676  3.900628
H    -0.411710  -3.456119  3.519170
H    1.238194  -3.273709  2.961125
H    -0.882605  -1.868073  0.519756
H    -1.020529  -3.341904  -0.396832
O    0.907605  1.696682  1.507686
H    0.378584  2.318790  0.969931
