20
Energy: -14474.0267541 eV PBE+vdW (tier 2 basis)
N    0.514088  -0.055725  0.565597
C    -0.088792  -0.504786  1.827240
C    0.871130  -0.132838  2.989409
O    0.804859  -0.620076  4.098950
H    -0.181048  0.115406  -0.157393
H    1.200198  -0.738803  0.225263
H    -0.966196  0.138884  2.009184
C    -0.573209  -1.964480  1.931712
C    0.368896  -3.033396  1.336197
C    1.836178  -2.829058  1.695803
O    2.595443  -2.204987  0.950853
N    2.256262  -3.367750  2.875207
H    -1.545096  -2.057640  1.426216
H    -0.748025  -2.162414  2.998410
H    0.322928  -3.010660  0.240130
H    0.022800  -4.026858  1.654844
H    1.575607  -3.630010  3.578085
H    3.160095  -3.057962  3.217097
O    1.747961  0.824964  2.656518
H    1.585895  0.955870  1.677837
