20
Energy: -14473.9527477 eV PBE+vdW (tier 2 basis)
N    -0.061212  -0.692660  0.158500
C    -0.286307  0.155625  1.347463
C    0.816245  1.237931  1.413741
O    0.786064  2.168244  2.188572
H    -0.288841  -1.668844  0.346812
H    1.535873  0.194896  0.065154
H    -1.245843  0.692351  1.295596
C    -0.278385  -0.664687  2.647152
C    1.065685  -1.331951  2.969390
C    0.899610  -2.391373  4.055668
O    0.032362  -3.257046  3.993144
N    1.790586  -2.321098  5.087340
H    -1.054954  -1.441212  2.584512
H    -0.558902  0.006432  3.469833
H    1.815341  -0.577364  3.246619
H    1.459882  -1.861220  2.087484
H    2.482452  -1.587426  5.154238
H    1.728422  -3.007909  5.829329
O    1.828614  1.018642  0.553395
H    -0.639691  -0.393332  -0.624943
