20
Energy: -14473.8463152 eV PBE+vdW (tier 2 basis)
N    0.550088  1.159176  0.554422
C    0.600517  -0.183807  1.124910
C    -0.723078  -0.605517  1.771414
O    -1.555558  0.148627  2.223802
H    0.241655  1.815493  1.275921
H    -0.165377  1.200987  -0.172795
H    0.808621  -0.894961  0.309860
C    1.768075  -0.252490  2.134956
C    2.152180  -1.645171  2.635862
C    1.331273  -2.125375  3.834528
O    0.739720  -1.360055  4.587189
N    1.357187  -3.476039  4.044958
H    1.531038  0.380429  3.003428
H    2.623023  0.203392  1.618944
H    3.199690  -1.623322  2.977214
H    2.111270  -2.388026  1.824211
H    1.761290  -4.117058  3.376158
H    0.841573  -3.850861  4.831553
O    -0.877490  -1.963581  1.772062
H    -1.702698  -2.136842  2.266402
