20
Energy: -14473.8589742 eV PBE+vdW (tier 2 basis)
N    1.298163  0.114666  0.315434
C    0.776097  -0.663713  1.450185
C    -0.752455  -0.643373  1.425481
O    -1.460688  0.252046  1.845155
H    0.898172  1.055200  0.319370
H    1.041244  -0.321034  -0.570694
H    1.116089  -1.699651  1.321720
C    1.333223  -0.101168  2.759447
C    0.862074  -0.833121  4.016721
C    1.339378  -2.283531  4.091451
O    2.369028  -2.678316  3.555149
N    0.539843  -3.115268  4.826924
H    1.049399  0.958439  2.841653
H    2.426865  -0.151014  2.687309
H    -0.232543  -0.778781  4.117868
H    1.272764  -0.322647  4.902599
H    -0.301096  -2.791018  5.284375
H    0.840278  -4.071479  4.971671
O    -1.262872  -1.739227  0.790168
H    -2.229960  -1.601011  0.750013
