20
Energy: -14473.8317473 eV PBE+vdW (tier 2 basis)
N    0.097837  1.525359  1.064909
C    -0.094942  0.164688  1.595737
C    1.136491  -0.706317  1.236358
O    1.065001  -1.589044  0.223935
H    0.157357  1.491555  0.044215
H    0.134610  -1.830645  -0.052037
H    -0.063331  0.248028  2.693121
C    -1.485602  -0.321524  1.179515
C    -1.907595  -1.693202  1.740714
C    -2.001307  -2.763358  0.664336
O    -1.284207  -2.745635  -0.343305
N    -2.903708  -3.753625  0.868467
H    -1.556676  -0.341176  0.081242
H    -2.191052  0.448982  1.515124
H    -2.860308  -1.621159  2.282570
H    -1.170712  -2.057895  2.476803
H    -3.496361  -3.779890  1.686708
H    -2.947602  -4.518385  0.205238
O    2.191091  -0.507909  1.809446
H    0.998015  1.882151  1.390902
