20
Energy: -14473.9741445 eV PBE+vdW (tier 2 basis)
N    0.395789  -0.261286  -0.147678
C    0.124019  -0.196792  1.283939
C    1.229477  -0.984599  2.014175
O    1.825241  -1.899614  1.481838
H    -0.462061  -0.197976  -0.694518
H    0.843688  -1.159240  -0.348615
H    0.181355  0.852971  1.613295
C    -1.277402  -0.755367  1.658074
C    -1.676384  -0.753894  3.151811
C    -1.532305  0.607413  3.807899
O    -0.426562  1.095772  4.085047
N    -2.676363  1.289610  4.059493
H    -1.338959  -1.790937  1.291785
H    -2.018738  -0.171149  1.089680
H    -1.034486  -1.448214  3.711647
H    -2.707405  -1.123260  3.244158
H    -3.588134  0.898203  3.868457
H    -2.614503  2.206166  4.487873
O    1.480086  -0.625048  3.281957
H    0.854913  0.102404  3.580066
