20
Energy: -14473.8873089 eV PBE+vdW (tier 2 basis)
N    -0.456331  -0.027318  -0.064916
C    -0.061109  0.030915  1.358695
C    1.477335  -0.053272  1.442911
O    2.038309  -0.528342  0.302221
H    1.256505  -0.580575  -0.323956
H    -0.543412  0.906116  -0.465100
H    -0.349236  0.980229  1.834917
C    -0.707933  -1.112027  2.166083
C    -0.278779  -2.545832  1.775255
C    0.847336  -3.078878  2.667200
O    0.632396  -3.388727  3.833678
N    2.073320  -3.218545  2.076950
H    -1.797551  -1.007197  2.050941
H    -0.495905  -0.953869  3.231581
H    -0.023812  -2.616317  0.707925
H    -1.123856  -3.224174  1.947084
H    2.294490  -2.704619  1.230598
H    2.847235  -3.416934  2.702467
O    2.116579  0.223494  2.429261
H    -1.352779  -0.497035  -0.186581
