20
Energy: -14474.1054761 eV PBE+vdW (tier 2 basis)
N    -0.232584  0.528767  0.482115
C    -0.066193  -0.404911  1.613136
C    1.414623  -0.374643  2.051689
O    2.225537  0.181277  1.143434
H    1.586120  0.502903  0.439465
H    -0.569257  1.439646  0.791262
H    -0.664405  -0.109911  2.488760
C    -0.487374  -1.824332  1.176644
C    -0.320520  -2.927905  2.231045
C    -1.164883  -2.660471  3.479114
O    -2.373693  -2.880756  3.503748
N    -0.468406  -2.161434  4.540349
H    0.084291  -2.096830  0.275221
H    -1.548984  -1.773160  0.887969
H    0.737647  -3.057670  2.490015
H    -0.683434  -3.870374  1.802310
H    -0.997844  -1.875171  5.355967
H    0.465154  -1.778167  4.392552
O    1.818488  -0.828013  3.107246
H    -0.899283  0.171154  -0.201041
