20
Energy: -14473.6639415 eV PBE+vdW (tier 2 basis)
N    0.711808  0.764107  0.475755
C    0.474332  -0.285032  1.471312
C    -1.031021  -0.469001  1.640391
O    -1.630627  -1.514810  1.542991
H    1.707117  0.828244  0.261316
H    0.416299  1.673248  0.834321
H    0.830660  -1.234502  1.049866
C    1.147511  -0.046649  2.847112
C    0.960120  -1.162410  3.883399
C    1.560576  -2.539248  3.593212
O    1.060304  -3.563651  4.037868
N    2.702404  -2.562961  2.834083
H    0.754392  0.893288  3.263972
H    2.217912  0.143655  2.658415
H    -0.104195  -1.344637  4.081797
H    1.392313  -0.837032  4.843392
H    3.191491  -1.722057  2.559335
H    3.168621  -3.454164  2.715254
O    -1.643844  0.710861  1.956017
H    -2.595173  0.505749  2.038191
