20
Energy: -14473.8187915 eV PBE+vdW (tier 2 basis)
N    0.458534  1.063269  0.753438
C    0.331813  -0.079726  1.665952
C    -1.130114  -0.302380  2.033737
O    -1.555710  -0.625701  3.123495
H    -0.168489  0.955535  -0.043483
H    1.410694  1.087071  0.386917
H    0.642212  -1.038370  1.194150
C    1.215288  0.147454  2.900619
C    1.505473  -1.109263  3.719527
C    2.360538  -2.122095  2.959948
O    3.126379  -1.808656  2.052414
N    2.229458  -3.416510  3.379915
H    0.754412  0.913582  3.537654
H    2.170859  0.552828  2.540795
H    0.573516  -1.571096  4.073663
H    2.074873  -0.828376  4.620341
H    1.599386  -3.678661  4.125625
H    2.816694  -4.125926  2.958879
O    -1.949111  -0.148643  0.953386
H    -2.852707  -0.333335  1.275027
