20
Energy: -14473.8381194 eV PBE+vdW (tier 2 basis)
N    1.701904  0.086224  1.037261
C    0.282544  -0.210969  1.149503
C    -0.449526  0.634187  2.193177
O    0.068953  1.234752  3.108984
H    2.104968  0.189487  1.971088
H    1.845780  0.978037  0.564647
H    -0.192938  -0.003867  0.178646
C    0.076635  -1.710120  1.487045
C    0.387138  -2.636506  0.310913
C    -0.559149  -2.628348  -0.890230
O    -0.209871  -3.079422  -1.975282
N    -1.819327  -2.129930  -0.691428
H    -0.942170  -1.878613  1.868328
H    0.747349  -1.953863  2.325313
H    0.420114  -3.680545  0.659674
H    1.386664  -2.416983  -0.085901
H    -2.128673  -1.723337  0.181207
H    -2.456022  -2.133970  -1.478723
O    -1.802196  0.617113  1.991706
H    -2.193176  1.146673  2.714071
