20
Energy: -14473.779441 eV PBE+vdW (tier 2 basis)
N    0.952462  1.112569  2.158508
C    0.036850  0.175157  1.521850
C    -0.993285  -0.378364  2.513962
O    -1.607890  -1.415972  2.345921
H    1.608766  1.489095  1.475540
H    1.487883  0.638633  2.889657
H    -0.587497  0.758033  0.818203
C    0.656643  -0.975769  0.688336
C    1.800622  -1.754969  1.369817
C    1.433081  -2.285459  2.748930
O    1.535445  -1.589340  3.759260
N    0.988100  -3.575827  2.799283
H    1.057201  -0.542447  -0.240147
H    -0.151116  -1.662440  0.399388
H    2.667304  -1.096839  1.514386
H    2.118342  -2.571114  0.705342
H    0.700303  -4.049026  1.952190
H    0.557097  -3.878129  3.666053
O    -1.204984  0.430957  3.575009
H    -1.883326  -0.022750  4.112513
