20
Energy: -14473.7464297 eV PBE+vdW (tier 2 basis)
N    -0.856594  -1.005934  2.731210
C    0.415585  -1.226042  2.061225
C    0.619413  -0.120115  1.035192
O    -0.255238  0.574531  0.565888
H    -1.540335  -0.632386  2.070823
H    -1.227927  -1.871477  3.118233
H    1.238857  -1.125077  2.789399
C    0.612526  -2.610711  1.378013
C    -0.426871  -2.963504  0.300775
C    -1.837116  -3.299086  0.784891
O    -2.838472  -2.751168  0.343184
N    -1.918916  -4.271087  1.757536
H    0.618279  -3.368699  2.177031
H    1.618187  -2.636091  0.933666
H    -0.060961  -3.834587  -0.266523
H    -0.543528  -2.144329  -0.419779
H    -1.132526  -4.869628  1.976324
H    -2.845365  -4.614009  1.984033
O    1.927352  -0.013712  0.665793
H    1.956650  0.689112  -0.011913
