20
Energy: -14473.9163004 eV PBE+vdW (tier 2 basis)
N    0.946259  -2.970311  1.172088
C    0.704162  -1.640411  0.624138
C    0.627610  -0.642870  1.766141
O    0.245077  -0.894599  2.894403
H    0.506762  -3.054635  2.088637
H    0.544161  -3.688500  0.571118
H    1.557085  -1.343128  -0.007483
C    -0.570668  -1.488392  -0.258873
C    -1.913480  -1.557585  0.482566
C    -2.198106  -2.926709  1.098695
O    -2.350752  -3.930298  0.408283
N    -2.315029  -2.942551  2.462621
H    -0.536067  -2.285420  -1.016661
H    -0.509179  -0.533008  -0.800056
H    -2.718095  -1.383409  -0.245370
H    -1.986553  -0.760033  1.235930
H    -1.926322  -2.185101  3.013750
H    -2.409238  -3.849365  2.906901
O    0.982479  0.607164  1.376797
H    0.849895  1.184160  2.154375
