20
Energy: -14473.8430604 eV PBE+vdW (tier 2 basis)
N    0.883385  1.530094  1.396680
C    0.550679  0.097325  1.436926
C    -0.937805  -0.080759  1.747579
O    -1.434692  -0.106042  2.857236
H    0.363436  2.002930  0.656714
H    0.627405  1.975965  2.279926
H    0.745791  -0.312785  0.435542
C    1.418300  -0.613539  2.473155
C    1.223708  -2.138690  2.483533
C    2.022235  -2.778594  3.613667
O    3.191928  -3.122439  3.489128
N    1.337305  -2.917498  4.791785
H    1.181629  -0.202453  3.466889
H    2.467511  -0.370885  2.260218
H    1.586392  -2.574438  1.543769
H    0.156430  -2.386054  2.585151
H    0.401817  -2.551649  4.911707
H    1.844664  -3.235986  5.608403
O    -1.686782  -0.129162  0.608693
H    -2.620338  -0.162342  0.897301
