20
Energy: -14473.6174443 eV PBE+vdW (tier 2 basis)
N    1.338355  -0.472455  3.969542
C    0.971244  -0.335961  2.566566
C    0.981252  1.156123  2.211116
O    1.104550  1.456528  0.889552
H    1.210727  0.637004  0.374206
H    0.831865  -1.231063  4.421243
H    1.742773  -0.830090  1.940750
C    -0.398524  -0.933084  2.166060
C    -0.477658  -2.447953  2.370137
C    -1.680402  -3.046757  1.637243
O    -2.012782  -2.677657  0.517039
N    -2.340426  -4.037791  2.305953
H    -0.606217  -0.737062  1.103016
H    -1.189717  -0.429006  2.742142
H    -0.498801  -2.716565  3.436964
H    0.417586  -2.928332  1.940475
H    -2.065068  -4.347002  3.227787
H    -3.113451  -4.501352  1.843638
O    0.861722  2.040202  3.025825
H    1.106973  0.400273  4.450749
