20
Energy: -14473.8312401 eV PBE+vdW (tier 2 basis)
N    1.191789  0.664064  3.648582
C    1.203694  -0.486820  2.724402
C    0.785682  -0.018553  1.328571
O    -0.360197  0.066203  0.928248
H    0.269541  1.105846  3.640023
H    1.859162  1.371874  3.338560
H    2.237139  -0.855818  2.669357
C    0.282478  -1.582408  3.266443
C    0.496774  -2.983215  2.661131
C    0.302270  -3.037288  1.149703
O    1.235559  -2.890420  0.365374
N    -0.979586  -3.264157  0.723934
H    -0.762526  -1.263165  3.128292
H    0.463150  -1.638822  4.348594
H    -0.182250  -3.690770  3.159088
H    1.524087  -3.318126  2.853986
H    -1.756616  -3.156411  1.363809
H    -1.168417  -3.093272  -0.257617
O    1.854035  0.405667  0.604607
H    1.498232  0.720592  -0.249087
