20
Energy: -14473.7663633 eV PBE+vdW (tier 2 basis)
N    0.984831  0.368461  0.429139
C    0.574690  -0.497972  1.545757
C    -0.940303  -0.430913  1.752693
O    -1.739336  -1.216591  1.289579
H    0.731143  1.339710  0.620433
H    0.501100  0.096138  -0.427525
H    0.777153  -1.534848  1.243560
C    1.389407  -0.149291  2.795518
C    1.158318  -1.079480  3.991882
C    1.519415  -2.557060  3.829455
O    0.876671  -3.441781  4.381759
N    2.622462  -2.832506  3.066964
H    1.151958  0.880486  3.101730
H    2.448348  -0.129950  2.493385
H    0.107813  -1.064347  4.309468
H    1.738209  -0.708542  4.851973
H    3.165715  -2.115189  2.606265
H    2.905053  -3.799692  2.968967
O    -1.323512  0.678786  2.455495
H    -2.300134  0.660583  2.468503
