20
Energy: -14473.7745629 eV PBE+vdW (tier 2 basis)
N    1.239892  1.264522  1.729729
C    0.230188  0.282616  1.343467
C    -1.049015  0.430924  2.154395
O    -2.136200  0.025720  1.801155
H    2.127440  1.052081  1.273746
H    1.399906  1.261292  2.736293
H    -0.072017  0.496893  0.307005
C    0.671389  -1.207920  1.368212
C    1.015971  -1.751208  2.755765
C    1.811768  -3.050744  2.662293
O    2.757796  -3.186985  1.894188
N    1.414276  -4.045120  3.511606
H    1.560242  -1.303393  0.727884
H    -0.121630  -1.817425  0.910471
H    0.111888  -1.879308  3.369045
H    1.664373  -1.035282  3.288135
H    0.614036  -3.948448  4.120922
H    1.919436  -4.922945  3.498739
O    -0.845281  1.015965  3.369573
H    -1.720457  1.034764  3.803377
