20
Energy: -14473.9151281 eV PBE+vdW (tier 2 basis)
N    1.206524  0.287737  3.658551
C    0.620938  0.229818  2.316629
C    -0.751458  -0.431078  2.436860
O    -1.374588  -0.527529  3.475528
H    0.489016  0.569628  4.328255
H    1.960383  0.972737  3.691893
H    0.369919  1.234886  1.913574
C    1.578672  -0.410951  1.286874
C    2.324381  -1.678569  1.742394
C    1.402714  -2.834814  2.127664
O    1.028380  -3.682310  1.322662
N    1.041072  -2.840312  3.447009
H    2.333837  0.344816  1.021706
H    1.013113  -0.617767  0.369730
H    2.988975  -1.436689  2.582560
H    2.943685  -2.031678  0.909294
H    1.191901  -1.997043  3.999521
H    0.308203  -3.481088  3.729911
O    -1.240683  -0.825755  1.238259
H    -2.124984  -1.202040  1.412125
