20
Energy: -14473.7448061 eV PBE+vdW (tier 2 basis)
N    2.012232  -0.725220  2.966810
C    1.237158  -0.614683  1.730047
C    1.384090  0.782685  1.140937
O    1.507261  1.040833  -0.035684
H    2.052979  -1.693391  3.281524
H    1.601136  -0.165581  3.714618
H    1.686128  -1.289935  0.989503
C    -0.282342  -0.931734  1.816971
C    -0.588405  -2.328304  2.358342
C    -0.119041  -3.447667  1.428193
O    -0.095452  -3.332049  0.209290
N    0.274617  -4.599243  2.058206
H    -0.714213  -0.836955  0.810754
H    -0.768704  -0.183855  2.461608
H    -1.679438  -2.440828  2.462355
H    -0.171251  -2.461158  3.368796
H    0.155296  -4.732038  3.053543
H    0.482756  -5.408236  1.484489
O    1.300091  1.749801  2.102221
H    1.380103  2.600559  1.629479
