20
Energy: -14473.7542573 eV PBE+vdW (tier 2 basis)
N    0.913127  1.377288  1.822857
C    0.154375  0.167514  1.511653
C    -1.017650  -0.020521  2.482772
O    -1.471880  -1.102441  2.816700
H    1.608075  1.543748  1.095377
H    1.422570  1.275676  2.701737
H    -0.343405  0.354839  0.541582
C    0.947934  -1.145096  1.376503
C    1.688146  -1.573672  2.665280
C    1.638390  -3.083330  2.902676
O    2.629344  -3.802082  2.820191
N    0.396929  -3.556527  3.221862
H    1.670708  -1.022486  0.557963
H    0.254845  -1.935348  1.057369
H    1.242227  -1.079701  3.544068
H    2.745054  -1.291191  2.632844
H    -0.421225  -2.953881  3.180273
H    0.275715  -4.557895  3.307116
O    -1.547667  1.144032  2.914499
H    -2.302612  0.894075  3.483678
