20
Energy: -14473.8166863 eV PBE+vdW (tier 2 basis)
N    -0.543532  -0.214778  -0.161284
C    -0.247370  0.028432  1.247659
C    1.215041  0.427098  1.367592
O    1.993184  0.535097  0.444854
H    0.089751  0.318129  -0.756983
H    -1.502618  0.045852  -0.380357
H    -0.813413  0.882780  1.671841
C    -0.622071  -1.236530  2.062962
C    -0.672771  -1.093121  3.590888
C    -1.637647  0.009082  4.017777
O    -2.848918  -0.070845  3.838351
N    -1.054119  1.093941  4.616593
H    0.057773  -2.051265  1.776992
H    -1.621138  -1.526508  1.709755
H    0.327642  -0.931080  4.009649
H    -1.060283  -2.031107  4.011231
H    -0.052225  1.230125  4.567795
H    -1.642945  1.892461  4.824260
O    1.588675  0.699025  2.657367
H    2.532871  0.945085  2.603082
