20
Energy: -14473.664328 eV PBE+vdW (tier 2 basis)
N    0.940191  1.070200  3.483657
C    0.120590  0.007384  2.894218
C    0.705679  -0.348837  1.533014
O    1.011113  -1.456881  1.160612
H    0.628448  1.265592  4.435372
H    0.848688  1.934461  2.948198
H    0.258394  -0.897883  3.501943
C    -1.397754  0.316449  2.824278
C    -2.310951  -0.837483  2.386629
C    -2.465248  -1.198924  0.907153
O    -2.893389  -2.296485  0.573432
N    -2.198374  -0.216090  -0.009050
H    -1.559899  1.221719  2.216254
H    -1.685589  0.605363  3.847266
H    -3.336418  -0.626290  2.728586
H    -2.020625  -1.771188  2.887578
H    -1.684602  0.622395  0.228249
H    -2.252568  -0.478410  -0.986240
O    0.832815  0.759974  0.735556
H    1.232498  0.440933  -0.096706
