20
Energy: -14473.8643979 eV PBE+vdW (tier 2 basis)
N    0.962194  1.003859  0.584813
C    0.649481  -0.353078  1.056116
C    -0.709744  -0.358237  1.762061
O    -0.899879  -0.220769  2.958863
H    0.970327  1.660377  1.367644
H    0.265796  1.331829  -0.084736
H    0.572556  -0.998495  0.168501
C    1.751926  -0.858562  1.983021
C    1.548263  -2.317756  2.453960
C    1.841260  -2.528269  3.940244
O    2.768583  -3.225190  4.340138
N    0.979576  -1.883620  4.781925
H    1.805388  -0.184984  2.851245
H    2.705726  -0.756158  1.451556
H    2.200186  -3.002467  1.902270
H    0.510547  -2.638635  2.267173
H    0.260830  -1.255714  4.430558
H    1.158824  -1.932279  5.776913
O    -1.735836  -0.450994  0.874762
H    -2.560003  -0.366859  1.393973
