20
Energy: -14473.7191037 eV PBE+vdW (tier 2 basis)
N    0.763928  1.574851  1.901882
C    0.401545  0.190529  1.612426
C    -1.106842  0.136685  1.392994
O    -1.819719  1.108948  1.255643
H    0.078813  2.205584  1.483446
H    1.683038  1.798615  1.526072
H    0.833723  -0.185128  0.660211
C    0.909310  -0.736623  2.746229
C    1.075308  -2.210359  2.365541
C    1.786983  -3.110689  3.372781
O    2.423311  -4.096323  3.016200
N    1.645158  -2.783314  4.693815
H    0.240819  -0.605684  3.612218
H    1.883358  -0.323739  3.047049
H    1.651438  -2.303448  1.434599
H    0.098046  -2.672631  2.163899
H    1.151183  -1.958469  5.005472
H    2.096112  -3.373885  5.381532
O    -1.588006  -1.133998  1.334133
H    -2.546506  -1.047924  1.164856
