20
Energy: -14473.7307923 eV PBE+vdW (tier 2 basis)
N    1.834696  -0.517123  2.948157
C    1.109942  -0.571457  1.667900
C    -0.193239  0.220876  1.760486
O    -0.405031  1.297712  1.248967
H    1.266216  -0.916608  3.697245
H    2.028567  0.451282  3.206767
H    1.718920  -0.039785  0.923838
C    0.952141  -2.034881  1.226175
C    0.655947  -2.252658  -0.263418
C    -0.711422  -1.896710  -0.850382
O    -0.829347  -1.579188  -2.027880
N    -1.795967  -2.046235  -0.026893
H    0.216305  -2.546595  1.867355
H    1.917905  -2.509255  1.453187
H    0.797678  -3.321171  -0.492184
H    1.388173  -1.716267  -0.881251
H    -1.700838  -2.108057  0.979023
H    -2.692780  -1.757001  -0.399801
O    -1.110123  -0.385630  2.589670
H    -1.859741  0.237752  2.647040
