20
Energy: -14473.8109665 eV PBE+vdW (tier 2 basis)
N    0.739541  0.477927  -0.170327
C    0.026730  0.365721  1.089639
C    0.887892  0.982616  2.182795
O    2.099476  0.949586  2.218069
H    1.704239  0.165766  -0.051849
H    0.295596  -0.096199  -0.890684
H    -0.902367  0.955753  1.027745
C    -0.367354  -1.061255  1.581070
C    -1.431439  -1.775215  0.718182
C    -0.883120  -2.414867  -0.552784
O    -0.704181  -1.791844  -1.597635
N    -0.580222  -3.742312  -0.450480
H    -0.774444  -0.970506  2.599695
H    0.543118  -1.676563  1.653685
H    -2.206240  -1.059142  0.411283
H    -1.925889  -2.541593  1.332739
H    -0.724298  -4.268253  0.400227
H    -0.171255  -4.208256  -1.251594
O    0.136227  1.543831  3.171749
H    0.771991  1.861804  3.842475
