20
Energy: -14473.8155975 eV PBE+vdW (tier 2 basis)
N    0.233008  1.178628  3.830014
C    0.026605  0.027485  2.948467
C    1.173574  -0.215585  1.964113
O    1.811819  -1.243570  1.861704
H    1.102478  1.081425  4.355041
H    0.308221  2.037635  3.283098
H    -0.002470  -0.875164  3.575969
C    -1.314109  0.168838  2.214031
C    -1.646903  -1.021439  1.317336
C    -3.065425  -0.943233  0.753276
O    -3.967540  -0.313052  1.291440
N    -3.261368  -1.650540  -0.402343
H    -1.306144  1.093442  1.616693
H    -2.099543  0.292178  2.970211
H    -1.579683  -1.959861  1.893909
H    -0.922892  -1.120311  0.493752
H    -2.533458  -2.215132  -0.818867
H    -4.201253  -1.712904  -0.774240
O    1.426251  0.880730  1.186623
H    2.175833  0.633431  0.611773
