20
Energy: -14473.9006735 eV PBE+vdW (tier 2 basis)
N    1.381027  -0.123691  0.207643
C    0.736292  -0.758729  1.352585
C    -0.785952  -0.590414  1.338735
O    -1.379578  0.409879  1.000821
H    1.091349  -0.573431  -0.661350
H    1.080720  0.851300  0.141339
H    0.964108  -1.833707  1.320245
C    1.311774  -0.157952  2.653506
C    0.823241  -0.794840  3.964929
C    1.327270  -2.227699  4.135216
O    2.467330  -2.475290  4.512755
N    0.420859  -3.209676  3.837238
H    1.074799  0.917163  2.666471
H    2.404090  -0.247973  2.583970
H    -0.272418  -0.745509  4.046081
H    1.238751  -0.222388  4.803391
H    -0.442903  -2.993178  3.352662
H    0.751739  -4.167699  3.837465
O    -1.448834  -1.716367  1.765516
H    -2.400664  -1.492797  1.732782
