20
Energy: -14473.9283807 eV PBE+vdW (tier 2 basis)
N    0.318961  -0.762628  -0.193666
C    -0.008141  -0.176834  1.121509
C    1.298811  0.275252  1.824042
O    2.389368  0.139984  1.051437
H    2.019827  -0.250036  0.206277
H    -0.256344  -0.388022  -0.943978
H    -0.572684  0.755435  0.956372
C    -0.814809  -1.102915  2.038432
C    -2.271207  -1.282992  1.594517
C    -2.902986  -2.502915  2.259721
O    -2.423625  -3.624801  2.136283
N    -4.034848  -2.266191  2.986974
H    -0.772783  -0.699807  3.058894
H    -0.326670  -2.090176  2.065960
H    -2.317434  -1.476502  0.510864
H    -2.846951  -0.364697  1.784317
H    -4.470851  -3.043950  3.468043
H    -4.397077  -1.334729  3.136021
O    1.322186  0.726051  2.947851
H    0.203258  -1.776529  -0.187869
