20
Energy: -14473.7921647 eV PBE+vdW (tier 2 basis)
N    0.851258  -1.014517  0.129026
C    0.404565  -0.065245  1.144211
C    1.520125  0.075177  2.168503
O    2.308790  -0.799991  2.458980
H    0.065934  -1.382142  -0.405245
H    1.323997  -1.797735  0.584463
H    0.258616  0.922003  0.675297
C    -0.895178  -0.422937  1.912114
C    -2.126628  -0.475785  1.008057
C    -3.417334  -0.617936  1.817263
O    -3.591092  -0.050715  2.888759
N    -4.376700  -1.408807  1.247524
H    -1.081137  0.324226  2.696148
H    -0.755631  -1.392523  2.415191
H    -2.050349  -1.285884  0.266463
H    -2.213683  0.466974  0.441581
H    -4.245081  -1.863780  0.354840
H    -5.274016  -1.488057  1.710694
O    1.508103  1.293671  2.769613
H    2.210441  1.268003  3.448517
