20
Energy: -14473.8632813 eV PBE+vdW (tier 2 basis)
N    0.033438  0.795899  0.286458
C    0.595994  -0.285837  1.091177
C    -0.386525  -1.363782  1.557251
O    -0.107544  -2.541647  1.681038
H    -0.674268  1.300565  0.822530
H    -0.438579  0.423727  -0.537851
H    1.330200  -0.823784  0.472302
C    1.338289  0.324253  2.299644
C    2.086469  -0.673196  3.186137
C    1.188506  -1.361613  4.217004
O    0.229215  -0.796482  4.732460
N    1.582507  -2.619221  4.585380
H    0.619987  0.874318  2.926453
H    2.039376  1.057886  1.880481
H    2.846701  -0.129950  3.769238
H    2.630698  -1.415327  2.583154
H    2.169057  -3.163729  3.965716
H    0.949529  -3.133610  5.187927
O    -1.617247  -0.864725  1.841606
H    -2.130804  -1.606743  2.214896
