20
Energy: -14473.8724766 eV PBE+vdW (tier 2 basis)
N    0.573162  -1.856353  0.167054
C    -0.096258  -0.894246  1.038892
C    0.891592  -0.070546  1.854380
O    0.615334  1.001905  2.369026
H    1.178767  -1.390320  -0.508225
H    2.626976  -0.022647  2.546557
H    -0.701874  -0.140303  0.501308
C    -1.042185  -1.674575  1.985911
C    -1.881755  -0.827890  2.952582
C    -2.828635  0.121857  2.218000
O    -3.868824  -0.271344  1.696546
N    -2.429351  1.429040  2.194841
H    -0.439417  -2.403684  2.545531
H    -1.724528  -2.250057  1.341508
H    -1.237812  -0.278480  3.651976
H    -2.513547  -1.504320  3.542147
H    -1.461097  1.661078  2.405304
H    -2.968204  2.067886  1.620889
O    2.111363  -0.637855  1.987801
H    -0.125707  -2.376145  -0.364025
