20
Energy: -14473.7964152 eV PBE+vdW (tier 2 basis)
N    0.521342  -1.271339  3.821979
C    0.249016  -0.645044  2.530369
C    1.015082  0.673908  2.315027
O    1.136275  1.090156  1.020051
H    0.724860  0.441055  0.421578
H    1.527664  -1.410331  3.927328
H    0.570803  -1.355245  1.748103
C    -1.263678  -0.381237  2.353855
C    -2.142615  -1.617348  2.608806
C    -1.738674  -2.790963  1.719874
O    -2.093944  -2.883557  0.548310
N    -0.943834  -3.718703  2.336700
H    -1.451338  -0.011088  1.335638
H    -1.566066  0.424583  3.040808
H    -3.182696  -1.368055  2.364863
H    -2.096792  -1.899341  3.667885
H    -0.468636  -3.460167  3.198030
H    -0.544944  -4.451310  1.760193
O    1.481070  1.336891  3.210099
H    0.266105  -0.619864  4.568505
