20
Energy: -14473.9564383 eV PBE+vdW (tier 2 basis)
N    1.142802  0.210358  0.207570
C    0.300135  -0.043274  1.394055
C    1.224913  -0.032339  2.639453
O    2.417568  0.527509  2.402354
H    2.387615  0.719524  1.418294
H    0.637302  0.733514  -0.505197
H    -0.352466  0.837520  1.516017
C    -0.578581  -1.302903  1.313104
C    -1.745861  -1.344400  2.335194
C    -1.816392  -2.678892  3.077235
O    -2.587509  -3.576152  2.747035
N    -0.940134  -2.784033  4.115845
H    0.063860  -2.188755  1.434093
H    -0.989235  -1.357331  0.295721
H    -2.704469  -1.214769  1.821921
H    -1.637097  -0.530838  3.064333
H    -0.249434  -2.054983  4.284014
H    -0.864618  -3.674634  4.591496
O    0.909784  -0.460325  3.733311
H    1.443820  -0.667796  -0.218849
