20
Energy: -14473.8083079 eV PBE+vdW (tier 2 basis)
N    1.181094  0.444907  2.850536
C    0.398816  0.321957  1.622319
C    -1.095907  0.283541  1.903404
O    -1.955013  0.619451  1.116758
H    2.165314  0.260728  2.654109
H    0.883003  -0.238600  3.545545
H    0.539738  1.239669  1.030623
C    0.761291  -0.858989  0.674520
C    0.637681  -2.256088  1.289021
C    1.786830  -2.597421  2.237408
O    2.950985  -2.284869  2.006692
N    1.434032  -3.308773  3.350080
H    1.801870  -0.717112  0.348281
H    0.127013  -0.787524  -0.220328
H    0.686590  -3.002047  0.480401
H    -0.336177  -2.396276  1.781507
H    0.476469  -3.567747  3.543751
H    2.164374  -3.616867  3.980673
O    -1.396884  -0.234223  3.132632
H    -2.372117  -0.217716  3.190069
