20
Energy: -14473.8232587 eV PBE+vdW (tier 2 basis)
N    1.296939  0.541412  3.689410
C    1.295235  -0.538531  2.684577
C    1.039485  0.080522  1.311836
O    -0.051964  0.407488  0.877465
H    0.412749  1.053659  3.654631
H    2.039407  1.214359  3.493628
H    2.299102  -0.985228  2.683856
C    0.259679  -1.600842  3.070329
C    0.454421  -2.988187  2.444431
C    0.120028  -3.260219  0.974730
O    0.626366  -4.214661  0.392172
N    -0.833092  -2.471331  0.390812
H    -0.753996  -1.211481  2.883672
H    0.343687  -1.706095  4.161220
H    -0.165484  -3.706960  3.003830
H    1.489688  -3.329970  2.579658
H    -1.031693  -1.537425  0.737121
H    -0.994297  -2.635224  -0.596917
O    2.194250  0.325634  0.641141
H    1.943490  0.782080  -0.186604
