20
Energy: -14473.6984824 eV PBE+vdW (tier 2 basis)
N    0.725675  -0.445568  4.215570
C    0.718185  -0.321265  2.762590
C    0.901068  1.133522  2.279324
O    1.263475  1.296527  0.972104
H    1.345468  0.427604  0.540621
H    1.655641  -0.229421  4.576460
H    1.561920  -0.918408  2.372762
C    -0.587176  -0.891406  2.172734
C    -0.782872  -2.374005  2.489145
C    -1.926135  -2.970733  1.671747
O    -2.104769  -2.696063  0.489476
N    -2.723390  -3.854398  2.342575
H    -0.611255  -0.765184  1.080577
H    -1.434799  -0.307680  2.565921
H    -0.921131  -2.525160  3.567156
H    0.125216  -2.934707  2.210033
H    -2.582867  -4.073675  3.318993
H    -3.472329  -4.312476  1.837337
O    0.728411  2.100918  2.981049
H    0.114664  0.277578  4.604824
