20
Energy: -14473.8388623 eV PBE+vdW (tier 2 basis)
N    1.225839  0.548470  0.295668
C    0.505399  -0.486579  1.036784
C    -0.927726  -0.066436  1.377296
O    -1.243881  0.986396  1.893333
H    1.185961  1.429136  0.813584
H    0.777835  0.720992  -0.605065
H    0.455348  -1.386606  0.407195
C    1.271465  -0.819135  2.326703
C    0.624509  -1.914508  3.175234
C    1.556316  -2.387221  4.290604
O    2.762510  -2.529681  4.129847
N    0.941941  -2.670279  5.479345
H    1.370402  0.101557  2.923100
H    2.285221  -1.128709  2.043626
H    0.409715  -2.797852  2.550787
H    -0.339638  -1.583612  3.589857
H    -0.047940  -2.528897  5.624884
H    1.506833  -3.018456  6.244478
O    -1.843598  -1.017291  1.029963
H    -2.716509  -0.658289  1.286775
