20
Energy: -14473.8262548 eV PBE+vdW (tier 2 basis)
N    0.131615  0.387025  0.179345
C    -0.026301  0.026662  1.590551
C    0.972502  0.676879  2.550618
O    0.694339  1.170808  3.622769
H    0.002788  1.390293  0.047826
H    1.079415  0.169691  -0.133100
H    -1.011326  0.385523  1.923344
C    0.029984  -1.501645  1.770047
C    -1.123490  -2.207269  1.062183
C    -1.069136  -3.723469  1.231968
O    -0.479438  -4.277001  2.153155
N    -1.754318  -4.430478  0.280662
H    0.013708  -1.751206  2.839253
H    0.991526  -1.873297  1.383332
H    -1.141547  -1.933777  -0.002228
H    -2.085083  -1.868236  1.484259
H    -2.246643  -3.979277  -0.478056
H    -1.810099  -5.437218  0.373430
O    2.251646  0.631389  2.071645
H    2.809669  1.039315  2.761519
