20
Energy: -14473.9099823 eV PBE+vdW (tier 2 basis)
N    -0.405683  -0.060142  -0.278298
C    -0.232527  -0.018085  1.174511
C    1.265082  0.260160  1.452932
O    1.882414  1.001989  0.711595
H    0.277909  0.577907  -0.692964
H    -1.335405  0.263615  -0.542540
H    -0.716839  0.868779  1.637927
C    -0.892458  -1.245551  1.824466
C    -0.347955  -2.602916  1.354055
C    0.534615  -3.278846  2.386637
O    1.094630  -2.658089  3.300691
N    0.687742  -4.620394  2.262881
H    -1.962545  -1.189674  1.579003
H    -0.832685  -1.170654  2.919404
H    0.237465  -2.456425  0.429874
H    -1.163824  -3.285006  1.076837
H    0.259853  -5.139924  1.508761
H    1.327836  -5.097448  2.886492
O    1.828497  -0.232099  2.559976
H    1.371879  -1.050195  2.920762
