20
Energy: -14473.7256489 eV PBE+vdW (tier 2 basis)
N    0.631291  1.683690  1.634210
C    0.409358  0.231151  1.535401
C    -1.106222  0.047880  1.415060
O    -1.701321  0.011602  0.357651
H    0.382521  2.139017  0.755420
H    1.622411  1.865352  1.797196
H    0.818917  -0.210322  0.606449
C    1.045641  -0.469414  2.735439
C    0.891036  -1.989901  2.713433
C    1.831062  -2.669710  3.708530
O    2.961576  -2.256989  3.941042
N    1.331455  -3.795210  4.302252
H    0.630003  -0.053625  3.663370
H    2.122207  -0.240804  2.737354
H    1.159484  -2.381140  1.717103
H    -0.151790  -2.286180  2.898089
H    0.395919  -4.132058  4.122012
H    1.928002  -4.314362  4.934907
O    -1.739876  -0.031733  2.615745
H    -2.693674  -0.076244  2.408336
