20
Energy: -14473.7352738 eV PBE+vdW (tier 2 basis)
N    -0.477953  0.873271  0.456909
C    -0.811773  -0.058214  1.523385
C    0.210770  -0.046123  2.660543
O    0.029994  -0.593730  3.731470
H    -1.261769  0.941356  -0.192256
H    0.320261  0.530040  -0.084980
H    -1.738772  0.299722  2.000004
C    -1.082792  -1.544503  1.143229
C    0.125658  -2.357922  0.627709
C    0.485272  -2.094392  -0.830064
O    1.117697  -1.108924  -1.203974
N    0.030108  -3.029188  -1.717200
H    -1.891752  -1.559692  0.396949
H    -1.467648  -2.046209  2.042206
H    -0.087452  -3.426861  0.771200
H    1.019980  -2.132864  1.225568
H    -0.447586  -3.869264  -1.422314
H    0.236695  -2.902421  -2.700800
O    1.362735  0.597350  2.352898
H    1.927327  0.514565  3.146518
