20
Energy: -14473.8050989 eV PBE+vdW (tier 2 basis)
N    -0.077286  -0.563899  2.735642
C    0.227461  -1.252433  1.489250
C    1.480729  -0.701837  0.820756
O    2.247141  -1.355016  0.143358
H    -0.407199  0.387549  2.574421
H    -0.796557  -1.081580  3.242856
H    0.474761  -2.292044  1.745540
C    -0.886988  -1.277073  0.400214
C    -2.246223  -1.794472  0.909721
C    -2.135786  -3.136294  1.623494
O    -1.980999  -3.219596  2.840217
N    -2.182863  -4.241266  0.822086
H    -0.534232  -1.894671  -0.439885
H    -1.031878  -0.257971  0.008666
H    -2.946141  -1.853691  0.063313
H    -2.669842  -1.090736  1.636545
H    -2.268285  -4.176780  -0.183071
H    -2.034201  -5.151045  1.241957
O    1.621191  0.640437  1.002191
H    2.427199  0.891418  0.510730
