20
Energy: -14473.7580871 eV PBE+vdW (tier 2 basis)
N    0.303647  -0.254926  3.637518
C    0.388204  -0.493360  2.197965
C    1.505892  0.335119  1.576015
O    2.212154  -0.030899  0.660905
H    0.002214  0.701313  3.829358
H    -0.375218  -0.882701  4.066660
H    0.695850  -1.538897  2.048954
C    -0.901070  -0.233273  1.371859
C    -2.037873  -1.194955  1.723393
C    -3.350901  -0.764473  1.073300
O    -3.785852  0.377114  1.171285
N    -4.015805  -1.742204  0.386742
H    -0.663856  -0.323227  0.300548
H    -1.242089  0.798009  1.543838
H    -2.220828  -1.181904  2.810437
H    -1.770720  -2.227515  1.451601
H    -3.647870  -2.677270  0.281202
H    -4.895515  -1.507398  -0.057211
O    1.588070  1.579708  2.121298
H    2.299566  2.039739  1.635334
