20
Energy: -14474.046803 eV PBE+vdW (tier 2 basis)
N    -1.229872  -0.530932  0.252259
C    -0.363839  -0.518418  1.429431
C    1.141093  -0.526286  1.062747
O    1.541147  -0.975052  0.006806
H    -0.808018  -1.157005  -0.440365
H    -1.220778  0.391847  -0.183803
H    -0.578130  0.397315  1.999548
C    -0.725946  -1.743146  2.302351
C    0.069545  -1.942176  3.610228
C    0.013771  -0.731043  4.522792
O    0.622353  0.320039  4.267950
N    -0.760097  -0.833847  5.630293
H    -0.596391  -2.647386  1.688740
H    -1.800083  -1.665251  2.521114
H    1.129673  -2.129430  3.388201
H    -0.313062  -2.834683  4.124480
H    -1.259345  -1.682098  5.858929
H    -0.836471  -0.035477  6.250023
O    1.987628  -0.021111  1.977036
H    1.495222  0.224223  2.817636
