20
Energy: -14473.8825666 eV PBE+vdW (tier 2 basis)
N    1.483051  0.636464  3.428237
C    0.397882  0.287010  2.515823
C    -0.967536  0.801835  2.979780
O    -1.272376  1.028696  4.132340
H    1.649313  1.642997  3.406614
H    1.190272  0.425506  4.385621
H    0.607745  0.739234  1.534263
C    0.304113  -1.242046  2.335519
C    1.568757  -1.831479  1.714224
C    1.440462  -3.334133  1.479937
O    0.387913  -3.871711  1.153141
N    2.600096  -4.043251  1.635654
H    -0.560374  -1.495898  1.708777
H    0.122478  -1.700915  3.320642
H    2.444332  -1.591565  2.332151
H    1.746061  -1.371402  0.727157
H    3.465658  -3.606435  1.920645
H    2.588053  -5.038546  1.448814
O    -1.832512  0.959482  1.940142
H    -2.683389  1.239158  2.331520
