20
Energy: -14473.8182157 eV PBE+vdW (tier 2 basis)
N    -1.031206  0.650737  0.435754
C    -0.992360  -0.192018  1.624617
C    0.191097  0.003506  2.589928
O    0.555701  -0.801795  3.424137
H    -0.187468  0.502074  -0.124335
H    -1.044560  1.634289  0.701852
H    -1.867920  0.084212  2.240869
C    -1.178997  -1.687342  1.293050
C    0.015546  -2.431148  0.658518
C    0.398670  -1.955237  -0.735492
O    1.090674  -0.956017  -0.931746
N    -0.077217  -2.709601  -1.768477
H    -2.058581  -1.756532  0.637755
H    -1.420600  -2.212559  2.226148
H    -0.225263  -3.504194  0.638157
H    0.902563  -2.314680  1.294495
H    -0.679473  -3.507511  -1.620922
H    0.096115  -2.395826  -2.715945
O    0.775459  1.225138  2.455139
H    1.481819  1.253504  3.129497
