20
Energy: -14474.1008489 eV PBE+vdW (tier 2 basis)
N    0.010161  0.105860  -0.264937
C    0.248915  0.060261  1.189698
C    1.430663  -0.907895  1.468794
O    1.962695  -1.399555  0.342869
H    -0.899717  -0.319826  -0.490544
H    1.384100  -0.955276  -0.364460
H    0.600572  1.046899  1.528160
C    -0.963109  -0.312517  2.065533
C    -1.457211  -1.764430  1.974215
C    -2.366204  -2.084374  0.793604
O    -2.449760  -1.388671  -0.221284
N    -3.103747  -3.221712  0.928619
H    -1.787462  0.380432  1.844598
H    -0.662340  -0.137246  3.106439
H    -1.991593  -2.020516  2.901377
H    -0.599867  -2.457174  1.935325
H    -3.016752  -3.828604  1.732436
H    -3.667228  -3.527727  0.144710
O    1.818931  -1.186000  2.585504
H    0.015956  1.060070  -0.616656
