20
Energy: -14473.7951669 eV PBE+vdW (tier 2 basis)
N    0.772522  0.755818  0.465385
C    0.645297  -0.621207  0.965642
C    -0.785518  -0.792144  1.479376
O    -1.125156  -1.107563  2.602778
H    1.714422  0.899723  0.100653
H    0.121560  0.921086  -0.302271
H    0.771274  -1.389864  0.172231
C    1.667196  -0.882008  2.071738
C    1.764009  -2.367364  2.491910
C    1.955622  -2.539550  3.998006
O    3.022891  -2.879179  4.499394
N    0.832861  -2.283146  4.733506
H    1.411994  -0.245245  2.929265
H    2.649849  -0.539644  1.717997
H    2.610689  -2.858482  2.000836
H    0.851761  -2.906247  2.195764
H    0.000329  -1.899249  4.294506
H    0.913916  -2.277362  5.742595
O    -1.687908  -0.546721  0.493950
H    -2.572607  -0.650654  0.895739
