20
Energy: -14473.8298444 eV PBE+vdW (tier 2 basis)
N    -1.438776  0.617468  0.483964
C    -1.237744  -0.235739  1.666366
C    -0.082620  0.244407  2.540982
O    0.395716  -0.393744  3.452163
H    -2.398282  0.513372  0.152291
H    -1.305264  1.599577  0.723287
H    -2.106050  -0.190627  2.355786
C    -1.046490  -1.720743  1.299109
C    0.238171  -2.082281  0.519217
C    0.110446  -2.187517  -1.004205
O    0.337322  -3.241275  -1.595548
N    -0.237195  -1.035966  -1.643204
H    -1.935782  -2.052655  0.742013
H    -1.049719  -2.278011  2.244278
H    0.590482  -3.066650  0.843724
H    1.042065  -1.367305  0.756814
H    -0.544773  -0.222060  -1.100790
H    -0.382321  -1.078877  -2.644594
O    0.334477  1.504033  2.226030
H    1.040335  1.719594  2.866315
