20
Energy: -14473.9422582 eV PBE+vdW (tier 2 basis)
N    1.006028  0.046556  -0.040084
C    0.295203  -0.017142  1.255836
C    1.182381  0.659201  2.333797
O    2.244902  1.298289  1.816621
H    2.160527  1.116599  0.833841
H    0.367882  0.246983  -0.807819
H    -0.597469  0.625157  1.176670
C    -0.147503  -1.435955  1.645408
C    -1.132983  -1.511559  2.812030
C    -1.708564  -2.918395  2.960927
O    -1.919933  -3.658255  2.004784
N    -2.001541  -3.285012  4.243847
H    0.744357  -2.041151  1.876864
H    -0.623693  -1.902543  0.770888
H    -1.987203  -0.839853  2.620179
H    -0.667528  -1.159985  3.740733
H    -1.790384  -2.690885  5.033917
H    -2.417081  -4.194067  4.406785
O    0.936338  0.637250  3.521353
H    1.455262  -0.846234  -0.249579
