20
Energy: -14473.7367294 eV PBE+vdW (tier 2 basis)
N    1.429248  0.511537  0.494840
C    0.745657  -0.440663  1.369016
C    -0.740907  -0.365084  1.041519
O    -1.356464  0.670473  0.892263
H    0.950981  1.413910  0.538493
H    2.390660  0.655006  0.803912
H    1.094357  -1.455754  1.130993
C    0.945619  -0.175648  2.886260
C    0.267590  -1.163341  3.846332
C    0.656603  -2.639176  3.752967
O    -0.160824  -3.535844  3.916735
N    1.978230  -2.902784  3.502241
H    0.576069  0.838598  3.102276
H    2.033739  -0.139426  3.065305
H    -0.823310  -1.139226  3.734206
H    0.472685  -0.847960  4.882271
H    2.680193  -2.176639  3.458096
H    2.280639  -3.868970  3.522855
O    -1.311299  -1.591679  0.973156
H    -2.265468  -1.448330  0.814264
