20
Energy: -14473.8060048 eV PBE+vdW (tier 2 basis)
N    1.016136  1.218087  1.694105
C    0.060936  0.142252  1.416056
C    -0.924019  -0.006135  2.573522
O    -1.366558  -1.052505  3.008222
H    1.594117  1.386123  0.870689
H    0.533696  2.088682  1.913244
H    -0.599986  0.357606  0.545178
C    0.777793  -1.178853  1.124150
C    1.714561  -1.663907  2.255575
C    1.628463  -3.170637  2.488309
O    2.547850  -3.940075  2.223771
N    0.441512  -3.590670  3.021498
H    1.350139  -1.058853  0.193066
H    0.010816  -1.934520  0.908994
H    1.469807  -1.143913  3.193387
H    2.759449  -1.432424  2.029957
H    -0.335586  -2.948759  3.152010
H    0.292288  -4.585824  3.130598
O    -1.324069  1.199662  3.052494
H    -1.968345  1.013663  3.763174
