20
Energy: -14473.8346708 eV PBE+vdW (tier 2 basis)
N    1.399145  -0.067025  0.175538
C    0.681131  -0.660738  1.317966
C    -0.801824  -0.294275  1.248415
O    -1.320209  0.681879  1.756783
H    1.230343  0.940547  0.137797
H    1.058196  -0.460743  -0.701924
H    0.763852  -1.751786  1.236940
C    1.322051  -0.176280  2.619689
C    0.748294  -0.788730  3.911658
C    0.961030  -2.294182  3.989150
O    0.325632  -3.086929  3.298795
N    1.932594  -2.710424  4.858231
H    1.204188  0.916201  2.681509
H    2.399281  -0.382076  2.544026
H    -0.333696  -0.607185  3.963370
H    1.201761  -0.280700  4.774778
H    2.449956  -2.068142  5.441748
H    2.124510  -3.702390  4.930025
O    -1.492018  -1.159334  0.454615
H    -2.406219  -0.816688  0.411891
