25
Energy: -172739.9788258  eV PBE+vdW (tier 2 basis)
C    0.411313  -0.613083  0.839437
C    -0.317098  0.450424  1.632241
O    0.182551  1.532631  1.877307
H    -0.034364  -1.613374  0.868083
H    0.477936  -0.283605  -0.206336
H    1.439540  -0.665365  1.215908
N    -1.595189  0.171801  2.156260
C    -2.554559  -0.853121  1.783009
C    -2.276614  -2.215270  2.503920
O    -3.005231  -3.252972  2.418111
H    -1.985448  1.002684  2.597730
H    -3.516237  -0.551014  2.226720
C    -2.799674  -0.852681  0.229661
C    -3.684299  -2.035076  -0.082152
O    -3.118565  -3.084207  -0.538055
O    -4.875017  -2.018577  0.382095
H    -1.863904  -0.937574  -0.325544
H    -3.296459  0.091739  -0.016877
N    -1.270300  -2.210073  3.368813
C    -0.932880  -3.340634  4.225538
H    -0.779195  -1.326439  3.480795
H    -1.762188  -3.573200  4.905517
H    -0.716349  -4.227762  3.618678
H    -0.047442  -3.079227  4.810553
Cd    -4.421833  -4.131836  0.945344
