25
Energy: -172740.3041398  eV PBE+vdW (tier 2 basis)
C    0.182651  0.465775  0.098512
C    -0.534253  0.506360  1.419735
O    -0.684955  1.551441  2.066149
H    -0.415638  1.024614  -0.633939
H    1.143555  0.984032  0.194615
H    0.346961  -0.548352  -0.282569
N    -1.024718  -0.685353  1.890355
C    -1.935519  -0.779563  3.025488
C    -1.157337  -0.727525  4.398123
O    -1.140597  -1.602654  5.326228
H    -0.806746  -1.536791  1.383502
H    -2.520465  0.152944  3.034350
C    -2.909611  -1.954765  2.744601
C    -3.516169  -2.405607  4.057481
O    -3.243470  -3.583839  4.463322
O    -4.030980  -1.503880  4.800442
H    -2.392877  -2.810494  2.296957
H    -3.680738  -1.599730  2.050353
N    -0.444442  0.379879  4.517727
C    0.362075  0.702510  5.686378
H    -0.480472  1.038068  3.706817
H    1.136890  -0.057870  5.845679
H    0.835316  1.673581  5.519500
H    -0.262704  0.756549  6.587949
Cd    -2.832757  -2.549330  6.397244
