25
Energy: -172740.4720577  eV PBE+vdW (tier 2 basis)
C    0.276992  -0.438382  0.445582
C    -0.291021  -0.005330  1.757317
O    0.515866  0.307661  2.710732
H    0.567660  -1.496691  0.507605
H    1.188825  0.141444  0.260745
H    -0.419357  -0.304911  -0.388153
N    -1.609839  0.074842  1.950801
C    -2.683980  -0.714830  1.349817
C    -3.955897  0.135688  1.595592
O    -3.959509  0.923913  2.540152
H    -1.969726  0.577941  2.776708
H    -2.487884  -0.871380  0.283058
C    -2.838570  -2.125528  2.073006
C    -1.763025  -2.202548  3.146106
O    -0.616203  -2.645955  2.826055
O    -1.983795  -1.603398  4.257773
H    -2.701785  -2.939313  1.355283
H    -3.827092  -2.198396  2.537449
N    -4.991614  -0.101070  0.767535
C    -6.287951  0.554648  0.906540
H    -4.861540  -0.746711  -0.003915
H    -6.240265  1.220326  1.772854
H    -7.079635  -0.188557  1.062777
H    -6.517464  1.144542  0.010693
Cd    0.183805  -1.118005  4.335884
