25
Energy: -172740.6793475  eV PBE+vdW (tier 2 basis)
C    0.152863  -0.242830  0.215229
C    0.052336  -0.012125  1.693050
O    1.124851  -0.039832  2.391679
H    -0.820753  -0.284737  -0.282831
H    0.690816  -1.184437  0.044670
H    0.753583  0.558725  -0.234847
N    -1.167339  0.171139  2.194288
C    -1.635291  0.247066  3.578212
C    -3.074422  -0.341243  3.511009
O    -3.630983  -0.397240  2.412112
H    -1.984448  0.061159  1.571490
H    -0.976400  -0.357572  4.214506
C    -1.696355  1.704642  4.136673
C    -0.256451  2.163974  4.187192
O    0.491500  1.635827  5.085029
O    0.205899  2.825457  3.201937
H    -2.126432  1.692641  5.143356
H    -2.293502  2.343828  3.478918
N    -3.657562  -0.741348  4.657762
C    -3.120483  -0.759064  6.011963
H    -4.615240  -1.060974  4.529905
H    -3.441615  0.118847  6.591021
H    -2.026115  -0.794563  6.002110
H    -3.474223  -1.659897  6.525618
Cd    2.045210  1.567553  3.500183
