25
Energy: -172740.0402521  eV PBE+vdW (tier 2 basis)
C    -0.200981  0.415962  0.060698
C    -0.707818  -0.114020  1.376513
O    -1.882359  -0.407932  1.589652
H    0.888904  0.361777  -0.042694
H    -0.508636  1.466590  -0.033264
H    -0.678247  -0.136869  -0.755539
N    0.220263  -0.274599  2.381412
C    -0.211075  -0.649609  3.715475
C    -1.237023  -1.825704  3.645509
O    -2.374218  -1.851819  4.211138
H    1.187526  -0.006750  2.234634
H    0.659292  -1.075168  4.238573
C    -0.638214  0.635190  4.490230
C    -1.409306  0.233395  5.730609
O    -2.611073  0.646972  5.842799
O    -0.914633  -0.703320  6.445490
H    -1.276786  1.267031  3.867188
H    0.274257  1.184735  4.753347
N    -0.837980  -2.945142  3.028808
C    0.380678  -3.245729  2.287284
H    -1.564607  -3.657825  3.013512
H    0.315552  -2.906801  1.244928
H    0.520112  -4.331630  2.295657
H    1.254900  -2.788770  2.761692
Cd    -3.032529  -1.488963  6.302350
