25
Energy: -172740.2797753  eV PBE+vdW (tier 2 basis)
C    -0.119029  -0.853238  0.227260
C    -0.263623  0.131620  1.335659
O    0.733263  0.869534  1.666644
H    -0.737326  -0.546921  -0.630041
H    0.928810  -0.890832  -0.080344
H    -0.461468  -1.849623  0.531277
N    -1.414012  0.251673  2.034039
C    -2.822911  0.137499  1.567759
C    -3.100579  -1.175643  0.775312
O    -3.266344  -1.160214  -0.438114
H    -1.325421  0.907044  2.811453
H    -3.410717  0.110355  2.493511
C    -3.263946  1.387184  0.727506
C    -2.118130  2.382114  0.724321
O    -1.298816  2.356189  -0.249831
O    -1.880520  3.046949  1.796239
H    -4.153652  1.838895  1.176826
H    -3.470380  1.057690  -0.296517
N    -3.124352  -2.287481  1.547177
C    -3.378849  -3.619343  1.010433
H    -3.021479  -2.187517  2.551466
H    -4.327033  -4.017355  1.393771
H    -2.566871  -4.305528  1.281888
H    -3.440623  -3.539565  -0.078733
Cd    0.287520  2.980091  1.220470
