25
Energy: -172740.1568863  eV PBE+vdW (tier 2 basis)
C    0.351402  -1.049301  0.816863
C    0.196254  -0.010707  1.902216
O    1.130191  0.456613  2.528290
H    1.419027  -1.196525  0.636623
H    -0.084256  -2.008936  1.131484
H    -0.134883  -0.748737  -0.121581
N    -1.100234  0.446140  2.180568
C    -2.342756  -0.078809  1.655964
C    -2.782530  0.652649  0.346176
O    -3.613664  0.175989  -0.492071
H    -1.139311  1.027002  3.015847
H    -2.217808  -1.129726  1.358258
C    -3.407262  -0.058211  2.800523
C    -4.709895  -0.466901  2.144952
O    -5.506237  0.460639  1.787958
O    -4.792695  -1.671671  1.724804
H    -3.500578  0.944474  3.232869
H    -3.098835  -0.778831  3.565584
N    -2.163206  1.794264  0.088539
C    -2.395821  2.607613  -1.098941
H    -1.427730  2.054194  0.744839
H    -3.471447  2.741651  -1.257277
H    -1.925695  3.583272  -0.950361
H    -1.965183  2.129817  -1.988589
Cd    -5.618120  -0.730032  -0.125261
