25
Energy: -172740.5539163  eV PBE+vdW (tier 2 basis)
C    -1.892671  2.507121  0.274621
C    -1.289676  1.972435  1.544791
O    -0.070543  2.008864  1.761471
H    -2.987069  2.557640  0.289096
H    -1.580577  1.858022  -0.555170
H    -1.481367  3.503574  0.077343
N    -2.165683  1.442107  2.457255
C    -1.827145  0.658799  3.639787
C    -1.060217  1.404387  4.764067
O    -1.388177  1.208249  5.991429
H    -3.149370  1.452461  2.210090
H    -2.782149  0.388422  4.104939
C    -1.121874  -0.701036  3.240514
C    -0.839267  -1.355519  4.575828
O    0.300274  -1.135810  5.106846
O    -1.840151  -1.807265  5.232766
H    -0.196967  -0.510850  2.688608
H    -1.826111  -1.286037  2.640119
N    -0.095428  2.229152  4.424013
C    0.726687  2.953217  5.382417
H    0.117922  2.263404  3.397597
H    1.495403  2.291671  5.808063
H    0.105930  3.345914  6.194347
H    1.221451  3.778593  4.863192
Cd    -0.920226  -0.709515  6.956975
