25
Energy: -172740.6792603  eV PBE+vdW (tier 2 basis)
C    1.350537  -1.298544  1.852128
C    0.747643  -0.048585  2.418760
O    1.524492  0.823325  2.943485
H    2.024702  -1.032523  1.027188
H    0.604342  -2.012913  1.490678
H    1.963262  -1.773699  2.629504
N    -0.578855  0.056814  2.374120
C    -1.484402  1.034903  2.976336
C    -2.776780  0.214720  3.256147
O    -2.932267  -0.851772  2.657246
H    -1.132312  -0.748242  2.037689
H    -1.036268  1.417819  3.902120
C    -1.824097  2.233604  2.033828
C    -0.516878  2.972698  1.854525
O    0.201160  2.699680  0.838496
O    -0.076275  3.629631  2.863501
H    -2.562511  2.880991  2.517701
H    -2.209443  1.872108  1.075407
N    -3.678872  0.716332  4.122285
C    -3.620139  1.937413  4.914757
H    -4.515807  0.143416  4.205506
H    -4.062309  1.747385  5.899028
H    -2.584282  2.254013  5.075368
H    -4.172772  2.760762  4.439492
Cd    1.917130  2.840665  2.282704
