25
Energy: -172740.3034866  eV PBE+vdW (tier 2 basis)
C    -0.051469  0.360319  -0.036451
C    -0.105601  -0.030189  1.414604
O    0.909818  -0.162861  2.110245
H    -1.005230  0.231882  -0.560719
H    0.241626  1.417591  -0.098149
H    0.728060  -0.223787  -0.537561
N    -1.352359  -0.234141  1.949859
C    -1.589339  -0.381722  3.381367
C    -1.307823  -1.858878  3.861864
O    -2.114707  -2.673219  4.421551
H    -2.158306  -0.205805  1.334256
H    -0.804246  0.199626  3.888612
C    -2.957071  0.280105  3.699141
C    -3.473091  -0.279545  5.008784
O    -4.544501  -0.971412  4.976586
O    -2.675287  -0.258597  6.005121
H    -3.699500  0.068797  2.922202
H    -2.804118  1.364193  3.762206
N    -0.066305  -2.231450  3.598527
C    0.480194  -3.536235  3.942282
H    0.529253  -1.526298  3.108446
H    0.374646  -3.730450  5.017536
H    -0.037472  -4.333295  3.393467
H    1.540599  -3.544754  3.677317
Cd    -3.365898  -2.392554  6.228143
