25
Energy: -172740.3893526  eV PBE+vdW (tier 2 basis)
C    0.656815  0.594938  0.917346
C    -0.041500  0.923181  2.211896
O    0.267691  1.847133  2.949593
H    1.730145  0.776084  1.033951
H    0.290252  1.279941  0.139779
H    0.488521  -0.434795  0.580546
N    -1.102081  0.083823  2.566098
C    -1.997971  0.528651  3.618709
C    -1.302471  0.462222  5.007266
O    -1.611301  1.223093  5.983912
H    -1.474869  -0.544005  1.860020
H    -2.235587  1.594983  3.484476
C    -3.332264  -0.278062  3.538020
C    -4.125316  0.214378  4.733300
O    -4.071758  -0.468958  5.804217
O    -4.526787  1.430247  4.689535
H    -3.157643  -1.357188  3.610527
H    -3.837663  -0.026860  2.598373
N    -0.323205  -0.416174  5.136585
C    0.494936  -0.569041  6.332253
H    -0.051781  -0.898167  4.281271
H    1.218982  0.252918  6.411215
H    1.030754  -1.520214  6.270668
H    -0.141721  -0.567441  7.222819
Cd    -3.651177  1.565315  6.730625
