25
Energy: -172740.7617075  eV PBE+vdW (tier 2 basis)
C    0.469681  -0.468260  0.866420
C    -0.074734  -0.215378  2.240203
O    0.268856  -1.002441  3.189075
H    0.235382  -1.503031  0.583808
H    1.563849  -0.379770  0.889701
H    0.069350  0.213912  0.110006
N    -0.923118  0.802132  2.375851
C    -1.761902  1.215640  3.500366
C    -3.007150  1.855444  2.814705
O    -2.916835  2.215917  1.640706
H    -1.225488  1.310902  1.529428
H    -2.042559  0.332348  4.090347
C    -1.083720  2.265813  4.436890
C    0.086098  1.538406  5.061708
O    -0.185942  0.644027  5.939302
O    1.231016  1.646139  4.514202
H    -1.797076  2.574527  5.208543
H    -0.748493  3.136083  3.863897
N    -4.097646  1.991959  3.590325
C    -5.334891  2.610978  3.125193
H    -4.080075  1.605983  4.528401
H    -5.614275  3.443472  3.782172
H    -6.149740  1.876561  3.105342
H    -5.167515  2.988358  2.112734
Cd    1.410926  -0.549719  4.964675
