25
Energy: -172740.3891250  eV PBE+vdW (tier 2 basis)
C    0.610986  0.672039  0.925230
C    -0.072928  0.930907  2.243096
O    0.217182  1.837112  3.009622
H    0.120002  1.276137  0.148482
H    0.569317  -0.380268  0.618633
H    1.652960  0.999201  0.991673
N    -1.100465  0.044324  2.581421
C    -1.998215  0.424217  3.657710
C    -1.285614  0.332437  5.035724
O    -1.606853  1.048003  6.042217
H    -1.463491  -0.567845  1.856580
H    -2.272528  1.485951  3.562712
C    -3.306459  -0.423197  3.563796
C    -4.101143  0.002357  4.783460
O    -4.013273  -0.714300  5.829887
O    -4.542069  1.205369  4.785252
H    -3.095575  -1.497696  3.597706
H    -3.830752  -0.157389  2.638624
N    -0.277561  -0.517653  5.125706
C    0.551879  -0.686253  6.312171
H    0.000419  -0.962449  4.252684
H    1.183849  -1.567423  6.173338
H    -0.080077  -0.829033  7.195328
H    1.185977  0.196621  6.466884
Cd    -3.647568  1.300833  6.820068
