25
Energy: -172740.7392728  eV PBE+vdW (tier 2 basis)
C    -1.858142  0.927377  1.015706
C    -1.633251  -0.031958  2.144227
O    -2.589238  -0.702881  2.605628
H    -2.513319  0.459872  0.272126
H    -0.933093  1.264377  0.536089
H    -2.387030  1.804222  1.416525
N    -0.368406  -0.139418  2.617372
C    0.072661  -0.905892  3.792085
C    -0.493256  -2.347924  3.771529
O    -1.451868  -2.735871  4.502968
H    0.305222  0.526990  2.251466
H    1.153597  -1.027261  3.645478
C    -0.098533  -0.170856  5.161563
C    -1.134798  0.983508  5.193413
O    -0.774601  2.116548  4.933653
O    -2.392259  0.707480  5.531846
H    0.860830  0.301738  5.398278
H    -0.293494  -0.909808  5.950625
N    0.111291  -3.236884  2.986569
C    1.275536  -3.047121  2.121670
H    -0.298072  -4.169116  3.027044
H    1.105389  -2.241341  1.398358
H    1.436661  -3.975305  1.566727
H    2.181513  -2.839797  2.706762
Cd    -2.945338  -1.149680  4.796297
