25
Energy: -172740.6967447  eV PBE+vdW (tier 2 basis)
C    -2.723095  1.228799  1.438974
C    -2.294809  0.303230  2.549088
O    -3.193872  -0.109575  3.320072
H    -3.612881  0.810209  0.955525
H    -1.950378  1.409342  0.683916
H    -3.014815  2.187929  1.888349
N    -0.962893  0.028034  2.575873
C    -0.025858  -0.761123  3.409999
C    -0.511725  -2.203590  3.667088
O    -1.710195  -2.495444  3.896169
H    -0.470671  0.518282  1.837072
H    0.865580  -0.839054  2.774994
C    0.464694  -0.036097  4.716686
C    -0.714765  -0.050047  5.672793
O    -1.578640  0.862215  5.561477
O    -0.916171  -1.162292  6.289365
H    0.770384  0.984075  4.461634
H    1.316500  -0.591313  5.125185
N    0.410602  -3.172621  3.618298
C    1.839207  -3.074107  3.331380
H    0.039577  -4.092365  3.847846
H    2.024668  -2.609520  2.354071
H    2.247198  -4.088074  3.297215
H    2.376087  -2.519835  4.112333
Cd    -2.911730  -1.074060  5.272597
