25
Energy: -172740.1853275  eV PBE+vdW (tier 2 basis)
C    0.537235  0.385594  0.067120
C    0.274358  -0.104469  1.467529
O    1.128702  -0.614094  2.188314
H    -0.373094  0.482245  -0.536027
H    1.238451  -0.295717  -0.425623
H    1.022236  1.369993  0.127118
N    -1.013990  0.035381  1.942841
C    -1.248533  -0.194206  3.353058
C    -0.716888  -1.564226  3.843701
O    -0.124506  -1.639211  4.980243
H    -1.693900  0.570961  1.413323
H    -0.665875  0.524104  3.950389
C    -2.755593  0.037614  3.704887
C    -2.801026  -0.267881  5.192940
O    -3.100127  -1.452754  5.544544
O    -2.224256  0.573702  5.966292
H    -3.419755  -0.632394  3.149237
H    -3.007770  1.085780  3.505814
N    -0.902554  -2.692023  3.167062
C    -1.499650  -2.924343  1.856545
H    -0.460697  -3.495162  3.611137
H    -1.849402  -3.961243  1.827864
H    -0.764522  -2.775916  1.054188
H    -2.355171  -2.266665  1.689327
Cd    -1.225673  -1.227069  6.832177
