25
Energy: -172740.4007271  eV PBE+vdW (tier 2 basis)
C    0.731584  -1.509123  1.509898
C    0.298734  -0.091990  1.663516
O    0.958160  0.843154  1.120428
H    -0.041083  -2.217804  1.828055
H    1.052172  -1.708396  0.482902
H    1.601867  -1.657529  2.169224
N    -0.761759  0.212034  2.484580
C    -2.141576  -0.236781  2.240191
C    -2.301478  -0.605558  0.742141
O    -1.554071  -0.102963  -0.133476
H    -0.750666  1.213058  2.732249
H    -2.412287  -1.093857  2.874709
C    -3.120974  0.956288  2.592445
C    -2.619106  2.120158  1.742644
O    -1.600358  2.754415  2.198418
O    -2.976043  2.174341  0.526106
H    -3.051209  1.177574  3.663037
H    -4.144871  0.670058  2.332211
N    -3.261210  -1.476107  0.436915
C    -3.610435  -1.835510  -0.936696
H    -3.807143  -1.877345  1.192769
H    -4.237831  -2.730515  -0.915439
H    -2.699888  -2.041706  -1.508780
H    -4.157308  -1.017246  -1.422454
Cd    -0.676221  2.112353  0.178407
