25
Energy: -172740.2802747  eV PBE+vdW (tier 2 basis)
C    -0.150377  0.359227  0.214618
C    -0.191090  0.528903  1.694252
O    0.623186  1.339875  2.265672
H    0.713315  0.899189  -0.180972
H    -1.068438  0.765607  -0.235925
H    -0.096407  -0.699861  -0.064474
N    -1.046416  -0.176343  2.466902
C    -2.445218  -0.600684  2.186063
C    -2.592426  -1.359920  0.832723
O    -3.139201  -0.837942  -0.130798
H    -0.893547  -0.008456  3.461901
H    -2.681877  -1.299228  2.998039
C    -3.447332  0.604501  2.251275
C    -2.674346  1.838724  2.677590
O    -2.300586  1.935076  3.901783
O    -2.228528  2.615059  1.772489
H    -4.238565  0.387767  2.975505
H    -3.867937  0.757495  1.251551
N    -2.056106  -2.602743  0.841101
C    -2.091141  -3.489490  -0.316228
H    -1.672377  -2.963067  1.708247
H    -1.086418  -3.871620  -0.534251
H    -2.459070  -2.916850  -1.172436
H    -2.765954  -4.336807  -0.138749
Cd    -0.491145  3.024589  3.145126
