25
Energy: -172740.8261091  eV PBE+vdW (tier 2 basis)
C    1.195871  -1.861591  1.925085
C    -0.067840  -1.065017  2.046651
O    -0.712870  -1.071912  3.125188
H    1.781783  -1.622815  1.031371
H    0.925818  -2.926826  1.897921
H    1.806372  -1.701091  2.821171
N    -0.447572  -0.349654  0.962735
C    -1.679990  0.434897  0.772399
C    -1.979950  1.360659  1.980931
O    -2.783911  1.076196  2.913682
H    0.101100  -0.497204  0.120906
H    -1.432409  1.117483  -0.051143
C    -2.920904  -0.388935  0.292308
C    -2.869195  -1.918742  0.546774
O    -2.422270  -2.652673  -0.314277
O    -3.345699  -2.393333  1.695413
H    -2.982610  -0.282219  -0.795930
H    -3.836219  0.053463  0.709036
N    -1.373621  2.543756  1.969193
C    -1.533673  3.544300  3.023416
H    -0.792032  2.779389  1.171587
H    -1.516643  3.053737  4.001891
H    -2.486899  4.076543  2.910813
H    -0.708908  4.258813  2.954298
Cd    -2.957730  -1.091225  3.260582
