25
Energy: -172740.2172644  eV PBE+vdW (tier 2 basis)
C    0.746785  -0.647126  0.569176
C    0.413847  0.139953  1.801456
O    1.345746  0.455756  2.603920
H    -0.125874  -0.892632  -0.045061
H    1.240800  -1.578444  0.877278
H    1.467505  -0.083714  -0.037105
N    -0.880142  0.436086  2.007343
C    -1.507548  1.002590  3.217257
C    -2.839507  0.253301  3.510591
O    -2.910474  -0.406715  4.536338
H    -1.517878  0.070088  1.306321
H    -0.871957  0.725367  4.065639
C    -1.655439  2.555822  3.228516
C    -0.233627  3.071860  3.282594
O    0.358388  3.325384  2.182717
O    0.384479  2.968178  4.400022
H    -2.198572  2.832412  4.139499
H    -2.168123  2.944518  2.345796
N    -3.851779  0.298350  2.594482
C    -4.087136  1.212124  1.480891
H    -4.657052  -0.241644  2.905279
H    -4.771631  0.730560  0.774260
H    -4.539290  2.160739  1.806775
H    -3.166342  1.442114  0.931731
Cd    2.146821  2.394071  3.199283
