23
Energy: -32039.4530527 eV PBE+vdW (tier 2 basis)
C    -1.944419  1.426587  0.243810
C    -1.332196  0.118143  0.610846
O    -0.408993  -0.387532  -0.109333
H    -1.160062  2.197356  0.282044
H    -2.765752  1.723344  0.903956
H    -2.303098  1.390913  -0.793114
N    -1.754925  -0.509624  1.713762
C    -1.141857  -1.697557  2.342772
C    -1.523571  -2.980827  1.571334
O    -0.967668  -3.214598  0.445689
H    -2.493789  -0.053729  2.245994
H    -0.051913  -1.603282  2.212746
C    -1.463378  -1.702340  3.834744
H    -1.065242  -0.794464  4.304140
H    -0.990501  -2.556991  4.333232
H    -2.545407  -1.727959  4.034332
N    -2.399308  -3.817377  2.085780
C    -2.829883  -5.072443  1.459298
H    -2.778468  -3.596929  3.003964
H    -3.042426  -4.907900  0.398351
H    -3.735547  -5.417376  1.964908
H    -2.046500  -5.834381  1.560354
Ca    0.228902  -2.193035  -0.992610
