23
Energy: -32037.8102785 eV PBE+vdW (tier 2 basis)
C    0.170250  0.305216  0.308205
C    -0.264382  -0.556361  1.441134
O    0.357878  -1.711214  1.615681
H    -0.243544  1.315753  0.366008
H    -0.153636  -0.147734  -0.640951
H    1.265717  0.365169  0.285640
N    -1.216122  -0.254472  2.268663
C    -2.080695  0.928281  2.372561
C    -2.683233  0.714128  3.801933
O    -2.455183  -0.375086  4.360349
H    -1.477042  -0.845592  3.120846
H    -1.464186  1.839508  2.359237
C    -3.159061  0.968477  1.283748
H    -3.803057  1.845391  1.420225
H    -3.791010  0.072990  1.326089
H    -2.716121  1.044517  0.283395
N    -3.409176  1.705525  4.313592
C    -4.067453  1.646592  5.619780
H    -3.524177  2.554836  3.768637
H    -3.798185  0.704762  6.103804
H    -5.155931  1.695156  5.495768
H    -3.735988  2.486731  6.240690
Ca    1.286338  -3.433574  1.904965
