23
Energy: -32037.6696815 eV PBE+vdW (tier 2 basis)
C    0.446805  0.415313  1.878110
C    -0.601144  -0.632414  1.729169
O    -0.216194  -1.887981  1.777205
H    0.049518  1.431956  1.841746
H    1.162497  0.295603  1.049417
H    0.982663  0.286677  2.824893
N    -1.837275  -0.380708  1.317942
C    -2.575574  0.795574  1.777744
C    -2.457410  0.747676  3.351082
O    -1.588838  0.023102  3.860609
H    -2.412352  -1.204866  1.139110
H    -2.044164  1.700036  1.446628
C    -3.989242  0.798001  1.204740
H    -4.519172  1.719049  1.474201
H    -4.581152  -0.050308  1.573809
H    -3.960044  0.769277  0.108753
N    -3.290962  1.528226  4.039233
C    -3.253262  1.650822  5.498054
H    -3.959221  2.098986  3.533109
H    -4.207530  2.061386  5.839294
H    -2.439548  2.316424  5.813324
H    -3.100674  0.664310  5.946947
Ca    0.579272  -3.575140  2.451880
