23
Energy: -32037.6724882 eV PBE+vdW (tier 2 basis)
C    -0.040782  -0.050244  -0.111611
C    0.026532  0.318924  1.340147
O    1.273566  0.435493  1.827823
H    0.299241  -1.087263  -0.245760
H    0.631425  0.592498  -0.693804
H    -1.048935  0.031555  -0.528489
N    -0.951816  0.518858  2.146797
C    -2.353053  0.402188  1.755652
C    -3.079486  1.190760  2.848851
O    -2.352728  1.511677  3.874335
H    -1.419466  1.178841  3.561931
H    -2.562382  0.876564  0.782560
C    -2.832836  -1.063889  1.752545
H    -2.629275  -1.535490  2.721439
H    -2.303395  -1.624306  0.973898
H    -3.906317  -1.140313  1.546455
N    -4.343455  1.528188  2.834093
C    -5.330728  1.289644  1.778576
H    -4.672959  2.014850  3.669927
H    -4.836501  1.078380  0.826746
H    -5.939917  2.192283  1.663776
H    -5.982775  0.450349  2.050613
Ca    3.090041  0.559453  2.524501
