23
Energy: -32037.7401828 eV PBE+vdW (tier 2 basis)
C    0.196401  0.242013  0.418074
C    -0.394699  -0.704123  1.419973
O    0.127005  -1.942280  1.393571
H    1.291224  0.174648  0.438887
H    -0.092221  1.283103  0.591048
H    -0.130719  -0.037536  -0.593915
N    -1.327413  -0.465459  2.269428
C    -1.993087  0.826632  2.393344
C    -2.628133  0.748399  3.788778
O    -2.549778  -0.403398  4.372895
H    -1.994991  -0.933497  3.665839
H    -1.278808  1.667787  2.394228
C    -3.073816  1.049368  1.318493
H    -3.800444  0.228002  1.323386
H    -2.611432  1.102086  0.326571
H    -3.611778  1.991913  1.479730
N    -3.228630  1.759114  4.359314
C    -3.880616  1.740880  5.674896
H    -3.253775  2.635035  3.840884
H    -4.956843  1.908857  5.549880
H    -3.457672  2.539177  6.294912
H    -3.711180  0.772900  6.150963
Ca    0.875404  -3.739623  1.291821
