23
Energy: -32039.3944936 eV PBE+vdW (tier 2 basis)
C    0.391638  1.471274  0.064776
C    -0.464882  0.507929  0.815386
O    -0.119560  -0.715057  0.903153
H    1.417678  1.430705  0.453543
H    0.028590  2.503305  0.102856
H    0.437360  1.148024  -0.985837
N    -1.590792  0.960023  1.381266
C    -2.693211  0.201563  2.021767
C    -2.271825  -0.451066  3.351911
O    -1.480792  -1.450159  3.368815
H    -1.770382  1.953257  1.255637
H    -3.438765  0.971926  2.258648
C    -3.360143  -0.809796  1.082215
H    -3.743113  -0.293037  0.194515
H    -4.207100  -1.291055  1.586740
H    -2.673690  -1.592127  0.736427
N    -2.804280  0.029109  4.460352
C    -2.590320  -0.490876  5.812740
H    -3.427555  0.829499  4.374547
H    -3.562634  -0.630436  6.298585
H    -1.998570  0.226211  6.395483
H    -2.064839  -1.446224  5.756562
Ca    -0.077813  -2.433995  2.111915
