23
Energy: -32039.2431931 eV PBE+vdW (tier 2 basis)
C    0.510822  -0.946724  0.059860
C    0.114746  -0.529071  1.433870
O    0.930286  0.108061  2.178070
H    0.735774  -0.044035  -0.527310
H    -0.261015  -1.524991  -0.458050
H    1.437825  -1.533581  0.106179
N    -1.115452  -0.819545  1.876472
C    -1.707321  -0.325182  3.133663
C    -1.103924  -1.072860  4.348511
O    -0.046783  -0.565537  4.867585
H    -1.738576  -1.308056  1.236332
H    -1.337028  0.702196  3.269227
C    -3.228490  -0.253513  3.019143
H    -3.674708  0.014633  3.984272
H    -3.681904  -1.191623  2.681151
H    -3.496755  0.531961  2.302196
N    -1.601382  -2.177563  4.870766
C    -2.743670  -3.007364  4.465379
H    -1.089789  -2.501140  5.693758
H    -3.688060  -2.578243  4.820269
H    -2.613345  -3.991697  4.924210
H    -2.770067  -3.138458  3.379983
Ca    1.650816  0.487332  4.131465
