23
Energy: -32037.7269469 eV PBE+vdW (tier 2 basis)
C    0.109552  -0.148966  -0.042837
C    0.000976  0.395774  1.337779
O    1.121208  0.704846  1.971394
H    0.787736  0.477125  -0.636853
H    -0.857864  -0.209702  -0.548686
H    0.545125  -1.158636  -0.003900
N    -1.116806  0.584859  1.966605
C    -2.513495  0.360999  1.566809
C    -3.256140  1.169431  2.679208
O    -2.575255  1.534990  3.657865
H    -1.193138  1.023806  2.939678
H    -2.692606  0.803794  0.576779
C    -2.885952  -1.127093  1.594270
H    -2.291068  -1.698330  0.871424
H    -3.940475  -1.262616  1.331034
H    -2.727451  -1.547512  2.594861
N    -4.560503  1.417247  2.560132
C    -5.471471  1.075086  1.470254
H    -4.959928  1.902394  3.362326
H    -6.190624  1.891341  1.344779
H    -6.024654  0.151250  1.685884
H    -4.930785  0.961602  0.525208
Ca    2.773619  1.192313  2.942988
