23
Energy: -32039.4587611 eV PBE+vdW (tier 2 basis)
C    -1.454337  1.444301  -0.026485
C    -1.037518  0.128068  0.535054
O    0.000017  -0.464519  0.089349
H    -2.389196  1.823002  0.399016
H    -1.553398  1.367752  -1.117169
H    -0.652754  2.172307  0.168872
N    -1.759204  -0.414564  1.522081
C    -1.398804  -1.596508  2.331858
C    -1.664605  -2.900069  1.543756
O    -0.859188  -3.223977  0.606713
H    -2.574453  0.109449  1.834755
H    -0.306209  -1.569821  2.470473
C    -2.072148  -1.497404  3.697910
H    -1.794778  -2.347513  4.332607
H    -3.169512  -1.448944  3.627506
H    -1.737749  -0.588033  4.212061
N    -2.697044  -3.650125  1.865917
C    -3.076412  -4.916565  1.235645
H    -3.277982  -3.331131  2.639322
H    -3.151385  -5.692627  2.006343
H    -2.321152  -5.197762  0.499405
H    -4.051480  -4.804104  0.745692
Ca    0.717291  -2.349213  -0.527681
