23
Energy: -32037.5350541 eV PBE+vdW (tier 2 basis)
C    0.383602  1.374208  0.555751
C    -0.226510  0.522916  1.618511
O    0.373609  0.464444  2.795201
H    0.433820  2.418084  0.896914
H    -0.190286  1.339358  -0.375518
H    1.408923  1.036227  0.348774
N    -1.314615  -0.138592  1.379918
C    -2.120018  -1.040938  2.207932
C    -3.039632  -1.681057  1.112352
O    -3.026060  -1.141057  -0.006465
H    -1.798904  -0.152284  0.423401
H    -1.471348  -1.799254  2.669992
C    -2.935135  -0.275997  3.259132
H    -3.551664  -0.964681  3.846729
H    -3.599524  0.451612  2.777555
H    -2.279243  0.261798  3.955634
N    -3.800243  -2.736883  1.410543
C    -3.901942  -3.481196  2.661500
H    -4.396416  -3.038485  0.640797
H    -4.747103  -3.133174  3.270883
H    -2.977369  -3.401331  3.243049
H    -4.054507  -4.540509  2.429274
Ca    1.602565  0.707791  4.333140
