23
Energy: -32038.6090726 eV PBE+vdW (tier 2 basis)
C    -1.845261  0.984194  0.167460
C    -0.455738  0.756092  0.654195
O    0.535846  1.223574  -0.001216
H    -2.189796  0.124758  -0.430717
H    -1.844235  1.859926  -0.490605
H    -2.553901  1.131445  0.987954
N    -0.188893  0.059447  1.786148
C    -0.740182  -1.261970  2.123540
C    -0.246665  -2.262683  1.030320
O    0.552758  -1.873127  0.109596
H    0.776310  0.180480  2.094657
H    -0.221792  -1.546341  3.052450
C    -2.246931  -1.320347  2.401307
H    -2.500701  -2.252333  2.922337
H    -2.858428  -1.263067  1.495409
H    -2.524040  -0.505107  3.079448
N    -0.656556  -3.511052  1.104067
C    -0.257683  -4.601923  0.207994
H    -1.285636  -3.752311  1.867545
H    -0.066318  -4.207691  -0.793333
H    -1.072805  -5.330258  0.163599
H    0.645039  -5.095733  0.590385
Ca    1.683605  -0.349974  -0.907538
