27
Energy: -240738.139838 eV PBE+vdW (tier 2 basis)
C    -0.404936  -0.421092  -0.100715
C    -0.207498  -0.332323  1.381098
O    0.938522  -0.552190  1.891342
H    -0.103347  0.517695  -0.591670
H    -1.438842  -0.641349  -0.385298
H    0.253307  -1.209470  -0.484296
N    -1.234533  0.010329  2.181889
C    -2.241518  0.998703  1.784519
C    -1.516532  2.323152  1.445950
O    -0.297688  2.496085  1.761521
H    -2.814877  0.657449  0.911351
C    -3.148515  1.150128  3.046375
C    -2.717277  0.000952  3.971373
C    -1.236403  -0.178048  3.645099
H    -4.209578  1.107047  2.781113
H    -2.968460  2.122217  3.525354
H    -3.259547  -0.922290  3.729870
H    -2.890749  0.225962  5.028894
H    -0.822160  -1.159967  3.895219
H    -0.639428  0.599672  4.163845
N    -2.225462  3.267850  0.852212
C    -1.725741  4.608274  0.530295
H    -3.194733  3.060410  0.623296
H    -2.522224  5.161248  0.026184
H    -1.441533  5.141072  1.445488
H    -0.858858  4.541367  -0.137164
Ba    1.901611  1.607114  2.554857
