27
Energy: -240738.14121 eV PBE+vdW (tier 2 basis)
C    -1.133404  0.758092  -0.234550
C    -0.475482  0.133148  0.956834
O    0.776213  -0.101293  0.951340
H    -2.198561  0.517464  -0.313415
H    -0.613676  0.406449  -1.133410
H    -1.027691  1.854250  -0.208582
N    -1.198545  -0.156543  2.055541
C    -2.296132  0.697140  2.518895
C    -1.743816  2.125551  2.747756
O    -0.490263  2.333305  2.783090
H    -3.113788  0.730006  1.785241
C    -2.751496  0.040399  3.859962
C    -2.035601  -1.319107  3.885644
C    -0.733140  -1.045213  3.137398
H    -3.841128  -0.051581  3.908575
H    -2.435443  0.661171  4.709487
H    -2.615348  -2.078898  3.345796
H    -1.866848  -1.685384  4.903711
H    -0.248387  -1.929374  2.711241
H    -0.012316  -0.537415  3.810530
N    -2.636368  3.083556  2.934287
C    -2.350715  4.483645  3.250506
H    -3.618770  2.820493  2.878901
H    -1.270011  4.637400  3.261852
H    -2.767333  4.732898  4.233929
H    -2.808367  5.131692  2.493889
Ba    1.858417  1.574150  2.385553
