27
Energy: -240738.063441 eV PBE+vdW (tier 2 basis)
C    0.330665  0.242969  0.128011
C    0.089796  -0.063715  1.576688
O    1.050215  -0.470198  2.307578
H    0.635434  1.293130  -0.007442
H    -0.549940  0.062480  -0.497868
H    1.157250  -0.385052  -0.221682
N    -1.131115  0.129024  2.111360
C    -1.987403  1.238331  1.680030
C    -1.249100  2.565838  2.000829
O    -0.166494  2.550665  2.674572
H    -2.194375  1.191596  0.603057
C    -3.265349  1.040445  2.522299
C    -2.731029  0.487083  3.849838
C    -1.549074  -0.396079  3.438389
H    -3.903801  0.307065  2.012562
H    -3.848864  1.958196  2.645905
H    -3.489889  -0.078338  4.400197
H    -2.399705  1.306323  4.503016
H    -1.830866  -1.449862  3.307721
H    -0.726072  -0.385270  4.166351
N    -1.754021  3.712449  1.573925
C    -2.966350  3.953507  0.786137
H    -1.231288  4.540941  1.859781
H    -2.753293  4.734664  0.048662
H    -3.784084  4.292991  1.434787
H    -3.278050  3.050526  0.255218
Ba    1.809108  1.420232  3.683377
