27
Energy: -240738.648359 eV PBE+vdW (tier 2 basis)
C    -0.286073  -0.765075  0.119722
C    -0.196506  -0.264481  1.528002
O    0.930709  0.103021  2.002287
H    -0.754803  -0.005506  -0.524718
H    -0.886548  -1.679592  0.042086
H    0.720976  -0.955547  -0.260035
N    -1.297070  -0.193281  2.284024
C    -1.295747  0.395471  3.653919
C    -0.504156  -0.461592  4.661534
O    0.696167  -0.153674  4.935547
H    -0.761049  1.356026  3.607980
C    -2.790062  0.628243  3.964931
C    -3.464583  0.663699  2.588274
C    -2.687036  -0.383300  1.795829
H    -2.931900  1.544877  4.546876
H    -3.214725  -0.189504  4.564629
H    -3.352626  1.651682  2.121560
H    -4.534789  0.437469  2.638625
H    -2.737138  -0.237188  0.713441
H    -3.019449  -1.407996  2.022422
N    -1.093872  -1.505717  5.221711
C    -0.465491  -2.401923  6.193544
H    -2.061962  -1.691065  4.974501
H    0.266520  -1.843969  6.784084
H    0.032077  -3.237919  5.684562
H    -1.240102  -2.799802  6.855788
Ba    2.639241  0.545643  3.626872
