27
Energy: -240737.215166 eV PBE+vdW (tier 2 basis)
C    -0.511464  -0.184814  -0.370244
C    -0.299749  -0.534134  1.072108
O    0.756670  -1.074037  1.466412
H    -0.777115  0.873086  -0.499218
H    -1.327607  -0.782473  -0.801570
H    0.408711  -0.400470  -0.918780
N    -1.304011  -0.262771  1.960058
C    -1.058626  -0.253814  3.418609
C    -0.942903  -1.670753  4.016220
O    -1.658632  -2.033948  5.044197
H    -0.079747  0.218290  3.609385
C    -2.213901  0.594448  3.964718
C    -3.345561  0.380893  2.951381
C    -2.601076  0.360279  1.617001
H    -1.904822  1.647506  3.981176
H    -2.481404  0.329997  4.996784
H    -4.108780  1.165240  2.987126
H    -3.846475  -0.585862  3.115305
H    -2.446593  1.381155  1.234956
H    -3.120349  -0.220942  0.846629
N    -0.059099  -2.459236  3.476566
C    0.236450  -3.821892  3.895469
H    0.457713  -1.986903  2.642726
H    0.938029  -4.258223  3.179307
H    -0.674700  -4.434498  3.911467
H    0.705788  -3.832354  4.889253
Ba    -2.825744  -2.485772  6.941954
