27
Energy: -240738.107866 eV PBE+vdW (tier 2 basis)
C    1.033383  -0.113485  0.358450
C    0.552457  -0.033256  1.774791
O    1.316402  0.417656  2.688277
H    0.528323  -0.891562  -0.223263
H    2.110679  -0.314705  0.375340
H    0.891080  0.849503  -0.157081
N    -0.701814  -0.411040  2.085858
C    -1.836641  -0.169605  1.191124
C    -1.941900  1.352329  0.943281
O    -1.233142  2.163918  1.624341
H    -1.704324  -0.692171  0.234402
C    -3.071925  -0.711332  1.978168
C    -2.470047  -1.421353  3.202867
C    -1.171660  -0.659230  3.460772
H    -3.675948  -1.379930  1.357302
H    -3.717907  0.120907  2.288977
H    -2.238367  -2.468877  2.971725
H    -3.142845  -1.409171  4.066685
H    -0.413230  -1.216094  4.020119
H    -1.387307  0.285427  4.000204
N    -2.793407  1.799085  0.034146
C    -3.710253  1.024924  -0.808831
H    -2.851512  2.814733  -0.040191
H    -4.672285  0.875710  -0.302285
H    -3.879688  1.581956  -1.735181
H    -3.279794  0.052611  -1.066974
Ba    0.576673  2.690052  3.255977
