27
Energy: -240737.221003 eV PBE+vdW (tier 2 basis)
C    -0.322604  -0.126570  -0.144858
C    -0.159431  -0.499479  1.298852
O    0.940513  -0.798485  1.792539
H    0.659043  -0.151348  -0.624337
H    -0.753085  0.878796  -0.253893
H    -0.990669  -0.828324  -0.664354
N    -1.284416  -0.513533  2.093384
C    -1.138611  -0.577757  3.558539
C    -0.863591  -2.019397  4.030171
O    -1.750889  -2.665540  4.725003
H    -0.269302  0.025502  3.862007
C    -2.457024  0.020252  4.060975
C    -3.471524  -0.336133  2.964592
C    -2.651464  -0.142687  1.682886
H    -2.351381  1.111431  4.123971
H    -2.710646  -0.299413  5.084889
H    -4.373007  0.286053  2.978450
H    -3.792509  -1.397056  3.019650
H    -2.692817  0.909646  1.360674
H    -3.001791  -0.766918  0.852614
N    0.288090  -2.526606  3.688242
C    0.789544  -3.860463  3.987789
H    0.826961  -1.887801  3.032178
H    0.115753  -4.381076  4.672732
H    1.782344  -3.772001  4.444932
H    0.888725  -4.432908  3.056632
Ba    -3.806213  -3.040180  5.657740
