28
Energy: -573088.2620403  eV PBE+vdW (tier 2 basis)
C    -0.36860  1.95275  -0.67297
C    0.36361  0.87936  0.09053
O    1.39624  0.37319  -0.33980
H    0.30261  2.34739  -1.44035
H    -0.72663  2.76962  -0.03645
H    -1.24297  1.50916  -1.17062
N    -0.15446  0.38754  1.27614
C    -1.12954  0.98306  2.18896
C    -2.53002  1.04982  1.50179
O    -3.02727  2.14624  1.15410
H    0.45004  -0.32779  1.67666
H    -1.23996  0.24492  2.99852
C    -0.66494  2.30538  2.83864
C    -1.33990  2.69507  4.16959
C    -2.83327  2.94429  3.89632
O    -3.59521  1.93945  3.97068
O    -3.15103  4.08841  3.45646
H    -0.73676  3.13888  2.12958
H    0.40146  2.16646  3.06982
H    -0.89377  3.61865  4.55141
H    -1.24675  1.90266  4.92088
N    -3.16962  -0.11011  1.31076
C    -2.75171  -1.45568  1.69796
H    -4.07770  -0.01558  0.86185
H    -1.81493  -1.73813  1.20395
H    -3.53178  -2.15483  1.38438
H    -2.63952  -1.54070  2.78750
Hg    -4.99685  3.14832  2.38793
