28
Energy: -573088.6589350  eV PBE+vdW (tier 2 basis)
C    -0.12436  0.00180  -0.15180
C    -0.60659  0.47538  1.19373
O    -0.73059  1.67005  1.47410
H    0.10229  -1.06929  -0.19291
H    0.76837  0.57556  -0.42630
H    -0.89681  0.23038  -0.89878
N    -0.91775  -0.51167  2.10770
C    -1.31871  -0.30671  3.47791
C    -2.79081  0.28595  3.62685
O    -3.59846  -0.41400  4.23041
H    -0.85475  -1.47380  1.79090
H    -1.40599  -1.29934  3.93265
C    -0.37167  0.57228  4.34359
C    0.90676  -0.18396  4.64668
C    1.86268  0.65857  5.56756
O    3.07174  0.59392  5.19418
O    1.39864  1.26126  6.55089
H    -0.88544  0.82372  5.28060
H    -0.16908  1.50936  3.81128
H    1.46386  -0.46131  3.74602
H    0.72540  -1.09564  5.23801
N    -3.00666  1.49933  3.11351
C    -4.32635  2.12251  3.12357
H    -2.24826  1.89714  2.54534
H    -4.93620  1.78599  2.27401
H    -4.19929  3.20801  3.06478
H    -4.84486  1.86078  4.05211
Hg    3.79181  1.96129  6.98901
