28
Energy: -573088.5896921  eV PBE+vdW (tier 2 basis)
C    -0.59038  -0.25819  0.57219
C    -0.51305  -0.44360  2.06435
O    0.45434  -0.92364  2.65187
H    -0.18566  -1.14864  0.07905
H    0.05025  0.58915  0.29134
H    -1.60556  -0.06326  0.20699
N    -1.60753  -0.04395  2.80278
C    -1.48788  -0.02876  4.24432
C    -1.08409  -1.41164  4.81112
O    -0.17746  -1.55508  5.70024
H    -2.39446  0.41946  2.36193
H    -0.60862  0.59397  4.48264
C    -2.74381  0.57277  4.93966
C    -2.52341  1.97390  5.59021
C    -1.31539  1.77278  6.49854
O    -1.43229  1.00452  7.48635
O    -0.19041  2.16871  6.01290
H    -3.09065  -0.10312  5.73138
H    -3.56394  0.66120  4.21325
H    -2.31529  2.74901  4.84603
H    -3.40935  2.24487  6.17486
N    -1.72361  -2.51865  4.44530
C    -2.82520  -2.69082  3.50233
H    -1.34261  -3.36595  4.86230
H    -3.35906  -3.60532  3.78010
H    -3.53217  -1.85905  3.55803
H    -2.45875  -2.79146  2.47283
Hg    0.73419  0.21035  6.74615
