28
Energy: -573088.7156138  eV PBE+vdW (tier 2 basis)
C    -0.19397  1.08498  0.11494
C    -0.37489  0.38973  1.42374
O    0.49992  -0.48051  1.76364
H    0.82626  0.92454  -0.24096
H    -0.89954  0.66909  -0.61940
H    -0.41537  2.15866  0.18676
N    -1.44237  0.61411  2.20935
C    -2.35950  1.77799  2.28482
C    -2.97243  2.13479  0.90168
O    -2.57992  3.11637  0.27756
H    -1.49002  0.01041  3.02924
H    -3.17346  1.43097  2.93773
C    -1.70785  3.01692  2.92214
C    -1.30720  2.86968  4.40920
C    -0.25813  1.76706  4.56946
O    -0.64497  0.63356  5.00564
O    0.90938  1.99362  4.13140
H    -2.43059  3.84227  2.85858
H    -0.84213  3.33168  2.32603
H    -2.16731  2.62377  5.04166
H    -0.87058  3.81550  4.75158
N    -3.94082  1.30721  0.43449
C    -4.57169  0.17616  1.10538
H    -4.33330  1.61096  -0.45338
H    -5.14067  0.48433  1.99474
H    -5.27505  -0.28513  0.40589
H    -3.83856  -0.59003  1.38803
Hg    1.23896  -0.31321  3.93030
