28
Energy: -573088.9654063  eV PBE+vdW (tier 2 basis)
C    0.04508  -0.51839  3.46654
C    -1.03967  0.50389  3.43548
O    -0.70172  1.71630  3.71828
H    0.48769  -0.50421  4.47342
H    0.83125  -0.24731  2.75358
H    -0.32291  -1.52812  3.26133
N    -2.33169  0.16358  3.26766
C    -2.84212  -0.78890  2.27305
C    -1.99758  -0.61173  0.97353
O    -1.22654  0.34815  0.87218
H    -3.00864  0.89747  3.50853
H    -2.72783  -1.81764  2.64677
C    -4.36124  -0.53620  2.04152
C    -4.78278  0.68200  1.17683
C    -4.17036  1.95643  1.75509
O    -3.38034  2.61517  0.95867
O    -4.28168  2.19704  2.97617
H    -4.83934  -0.46249  3.02784
H    -4.78148  -1.42989  1.56560
H    -5.87679  0.76715  1.21303
H    -4.47852  0.57185  0.13075
N    -2.14453  -1.52258  -0.00957
C    -2.95967  -2.73141  -0.04472
H    -1.59766  -1.30499  -0.83961
H    -3.05021  -3.17814  0.95160
H    -2.46629  -3.46629  -0.68934
H    -3.96465  -2.54095  -0.44710
Hg    -1.90240  3.06214  2.48227
