28
Energy: -573089.0977690  eV PBE+vdW (tier 2 basis)
C    -1.57948  0.57668  -1.59359
C    -1.23165  -0.05138  -0.28240
O    -0.37312  -1.01130  -0.30241
H    -0.69812  0.54921  -2.24331
H    -1.93843  1.60595  -1.49386
H    -2.35938  -0.03161  -2.07551
N    -1.78879  0.34737  0.85504
C    -2.95472  1.19648  1.10232
C    -2.80203  1.56447  2.60640
O    -2.01990  0.91101  3.30237
H    -1.40913  0.03795  1.77158
H    -2.89990  2.10802  0.48932
C    -4.29972  0.47944  0.81017
C    -4.59504  -0.79157  1.64007
C    -3.56041  -1.87291  1.31873
O    -3.40731  -2.24511  0.13242
O    -2.80024  -2.23823  2.29587
H    -4.34334  0.22856  -0.25819
H    -5.11375  1.19520  0.99421
H    -5.58317  -1.17577  1.35524
H    -4.59104  -0.59602  2.71723
N    -3.58101  2.56449  3.05508
C    -3.58713  3.00985  4.44533
H    -4.14810  3.07710  2.38828
H    -4.61257  3.02455  4.83304
H    -3.15345  4.01403  4.53279
H    -2.98633  2.30879  5.03101
Hg    -1.12523  -2.75258  0.89977
