28
Energy: -573089.2167206  eV PBE+vdW (tier 2 basis)
C    0.09393  0.22965  0.35276
C    -0.06605  0.59070  1.79495
O    1.00431  1.03543  2.37193
H    0.89195  -0.51844  0.25916
H    0.41437  1.11768  -0.20743
H    -0.82966  -0.16648  -0.08044
N    -1.25201  0.42714  2.35863
C    -1.71431  0.62039  3.73648
C    -3.03190  -0.21168  3.77932
O    -3.62678  -0.37895  2.71129
H    -2.04392  0.07050  1.79279
H    -0.98226  0.18517  4.43555
C    -2.00247  2.12532  4.03147
C    -2.06725  2.56806  5.49946
C    -0.91101  2.39845  6.49821
O    -1.14044  2.33361  7.68223
O    0.40838  2.43024  6.13741
H    -2.96723  2.36909  3.56213
H    -1.28075  2.74607  3.47234
H    -2.93769  2.12668  5.99772
H    -2.26335  3.65275  5.49990
N    -3.48109  -0.67578  4.95922
C    -2.84926  -0.69421  6.27485
H    -4.37694  -1.15353  4.87579
H    -3.31579  0.02303  6.96229
H    -1.78244  -0.46170  6.20694
H    -2.94054  -1.69906  6.70319
Hg    0.91421  1.84187  4.28586
