28
Energy: -573088.5502686  eV PBE+vdW (tier 2 basis)
 C    0.10103   -0.17313    0.10548
 C   -0.13104    0.35628    1.49530
 O    0.65394    1.14142    2.04465
 H    0.14072    0.66793   -0.59781
 H   -0.66676   -0.88531   -0.21627
 H    1.08214   -0.66348    0.08124
 N   -1.26115   -0.06531    2.13608
 C   -1.61118    0.28715    3.48292
 C   -2.69334   -0.74353    3.91960
 O   -3.43428   -1.23158    3.07060
 H   -1.97408   -0.60102    1.63757
 H   -0.71070    0.22945    4.10916
 C   -2.25502    1.71370    3.62363
 C   -1.18348    2.78584    3.61303
 C   -1.82379    4.23214    3.49753
 O   -1.37112    5.02570    4.36940
 O   -2.65449    4.45972    2.60426
 H   -2.82336    1.74936    4.56338
 H   -2.97025    1.84951    2.80274
 H   -0.51725    2.73889    2.73580
 H   -0.55788    2.76676    4.51019
 N   -2.77754   -1.02475    5.23835
 C   -1.87783   -0.60487    6.30697
 H   -3.48738   -1.71848    5.46030
 H   -2.28904   -0.96271    7.25538
 H   -1.80405    0.48880    6.37033
 H   -0.87072   -1.02962    6.19250
Hg   -2.63301    6.83556    3.49320
