28
Energy: -573088.7122656  eV PBE+vdW (tier 2 basis)
C    1.06578  0.54407  1.07784
C    0.13394  0.64764  2.23364
O    0.63635  0.82863  3.39986
H    0.58368  0.14482  0.18162
H    1.88098  -0.13147  1.36864
H    1.51590  1.53162  0.90052
N    -1.20507  0.56483  2.12447
C    -2.12601  0.69875  0.98426
C    -2.12428  -0.55753  0.06365
O    -1.08951  -1.17512  -0.16692
H    -1.67085  0.55971  3.02945
H    -3.11401  0.76576  1.45954
C    -1.91320  1.98314  0.15709
C    -2.31904  3.29082  0.88140
C    -1.49967  3.46756  2.16221
O    -2.07897  3.20494  3.26862
O    -0.27322  3.74914  2.05035
H    -2.52538  1.91474  -0.75372
H    -0.87220  2.04800  -0.18256
H    -3.38237  3.28805  1.14500
H    -2.11771  4.14175  0.21882
N    -3.31540  -0.89034  -0.48821
C    -4.63264  -0.31399  -0.24125
H    -3.25956  -1.69775  -1.10374
H    -4.68207  0.74664  -0.52322
H    -5.35763  -0.85016  -0.86059
H    -4.94501  -0.42837  0.80654
Hg    0.02348  2.87294  4.24964
