28
Energy: -573088.6422019  eV PBE+vdW (tier 2 basis)
C    0.56228  0.09531  0.19164
C    -0.19240  0.96639  1.15358
O    -0.17931  2.22496  1.06198
H    0.22603  -0.94744  0.19133
H    1.62519  0.10340  0.47926
H    0.47622  0.50594  -0.81984
N    -0.87246  0.34076  2.13587
C    -1.66933  0.87055  3.24348
C    -3.12135  1.28388  2.78484
O    -4.07685  0.85690  3.42182
H    -0.92581  -0.66942  2.04191
H    -1.84172  0.00722  3.89595
C    -1.09934  2.01929  4.09206
C    0.30658  1.80467  4.71278
C    1.34174  2.31865  3.69835
O    2.01699  1.48958  3.03782
O    1.31853  3.57855  3.49877
H    -1.81355  2.14293  4.91860
H    -1.10413  2.96331  3.53667
H    0.52291  0.75798  4.94950
H    0.38718  2.40299  5.62793
N    -3.19224  2.10930  1.72299
C    -4.45954  2.66517  1.26025
H    -2.32589  2.47326  1.33223
H    -4.41996  2.79832  0.17405
H    -4.67146  3.63270  1.73579
H    -5.26244  1.96695  1.51793
Hg    2.07496  3.27810  1.34724
