28
Energy: -573088.9731844  eV PBE+vdW (tier 2 basis)
C    -0.10464  -0.21245  -0.43874
C    -0.39069  0.27746  0.95564
O    0.22346  -0.15071  1.94180
H    -0.37365  -1.27583  -0.49395
H    0.97354  -0.14259  -0.62432
H    -0.64666  0.33084  -1.22052
N    -1.37666  1.22235  1.07871
C    -1.94966  1.69526  2.33713
C    -0.96456  2.59345  3.13653
O    -1.36529  3.75577  3.44561
H    -1.82271  1.55031  0.22921
H    -2.77011  2.36898  2.05820
C    -2.53719  0.52776  3.20195
C    -3.63882  0.87874  4.21365
C    -3.16865  2.02396  5.13242
O    -3.81349  3.11088  5.04071
O    -2.09547  1.85540  5.77437
H    -1.72247  -0.00412  3.70522
H    -2.99392  -0.16425  2.47994
H    -4.56916  1.18659  3.72618
H    -3.83840  0.00674  4.84932
N    0.21664  2.09416  3.45774
C    1.20662  2.80699  4.24390
H    0.40110  1.13160  3.10488
H    2.17643  2.31864  4.11100
H    1.27442  3.85200  3.92063
H    0.95524  2.77511  5.31713
Hg    -1.87224  4.24998  5.70767
