28
Energy: -573088.5687606  eV PBE+vdW (tier 2 basis)
C    -0.72252  0.13939  0.03431
C    -0.38576  -0.03335  1.48727
O    0.74516  -0.57568  1.73423
H    -0.61664  -0.83009  -0.46915
H    0.00426  0.82347  -0.42267
H    -1.73639  0.52072  -0.13006
N    -1.30274  0.37122  2.37770
C    -1.36011  0.19690  3.83634
C    -2.34017  -0.93791  4.27233
O    -1.89237  -1.81834  4.99506
H    -2.12174  0.79603  1.95154
H    -0.40970  -0.25023  4.14360
C    -1.60134  1.53456  4.60307
C    -0.53167  1.88594  5.67957
C    0.80926  1.63855  5.00405
O    1.45463  0.59492  5.44628
O    1.09286  2.23283  3.94542
H    -1.63589  2.35583  3.87613
H    -2.57150  1.49985  5.11622
H    -0.62640  1.25712  6.56945
H    -0.63492  2.94009  5.96278
N    -3.64175  -0.89140  3.88365
C    -4.33199  0.07987  3.04941
H    -4.18269  -1.68149  4.22621
H    -5.39826  0.06281  3.29816
H    -4.24096  -0.14502  1.97428
H    -3.98632  1.10352  3.24475
Hg    2.01691  -0.02490  3.42844
