28
Energy: -573088.5497703  eV PBE+vdW (tier 2 basis)
C    0.52583  0.13123  0.38249
C    0.29490  -0.20565  1.83760
O    1.16724  -0.72542  2.53330
H    1.51304  0.59459  0.28083
H    -0.23736  0.79487  -0.04005
H    0.54149  -0.80412  -0.19310
N    -0.95627  0.09443  2.32244
C    -1.53375  -0.26982  3.61184
C    -1.71515  0.96442  4.54801
O    -2.89784  1.17452  4.93517
H    -1.61534  0.47272  1.64987
H    -2.57216  -0.56559  3.40503
C    -0.84024  -1.46542  4.33124
C    -1.73567  -2.32861  5.22558
C    -2.43382  -1.43633  6.28573
O    -3.69687  -1.40705  6.22443
O    -1.70364  -0.71004  7.00786
H    -0.46707  -2.12583  3.53402
H    0.03146  -1.13064  4.90055
H    -1.11879  -3.05535  5.76950
H    -2.50712  -2.86242  4.66204
N    -0.70362  1.74566  4.91981
C    0.72214  1.66197  4.61919
H    -0.99228  2.51752  5.51900
H    1.00791  2.45684  3.91736
H    0.98234  0.69672  4.17662
H    1.28854  1.78900  5.54887
Hg    -3.65503  0.72809  7.22134
