28
Energy: -573088.3473662  eV PBE+vdW (tier 2 basis)
C    0.50653  0.24325  1.85048
C    0.07865  -0.20582  0.47504
O    0.84199  -0.74627  -0.31674
H    -0.14926  -0.15599  2.63594
H    0.49031  1.34038  1.92287
H    1.52945  -0.10133  2.02040
N    -1.23432  0.00733  0.09021
C    -2.24297  0.76709  0.79765
C    -2.96712  -0.07767  1.89802
O    -3.02457  0.45229  3.03904
H    -1.41782  -0.27210  -0.87150
H    -1.75761  1.56459  1.37558
C    -3.23639  1.41119  -0.21067
C    -4.08527  2.59307  0.27839
C    -4.85194  2.22135  1.56587
O    -5.52412  1.15673  1.55713
O    -4.61805  2.94872  2.57765
H    -3.88598  0.64080  -0.64505
H    -2.60981  1.80919  -1.02319
H    -3.47546  3.47761  0.48564
H    -4.82908  2.84944  -0.48727
N    -3.47542  -1.28711  1.65662
C    -3.65417  -1.99663  0.39216
H    -3.91532  -1.70732  2.47315
H    -3.86042  -3.04638  0.62129
H    -4.50363  -1.59134  -0.17415
H    -2.74419  -1.95967  -0.21166
Hg    -5.18295  1.17532  3.98951
