28
Energy: -573088.2750761  eV PBE+vdW (tier 2 basis)
C    -0.22135  -1.64293  -0.67609
C    0.26514  -0.81396  0.48433
O    1.45429  -0.53977  0.62085
H    0.55850  -2.36933  -0.92571
H    -0.34863  -0.98692  -1.54875
H    -1.16804  -2.16037  -0.48204
N    -0.62291  -0.33615  1.43120
C    -2.08329  -0.27014  1.40531
C    -2.67148  -1.70201  1.63001
O    -3.19507  -2.33769  0.68418
H    -0.15641  0.25578  2.11577
H    -2.35310  0.30223  2.30524
C    -2.67272  0.48087  0.19272
C    -4.10461  1.03089  0.35519
C    -5.06064  -0.16368  0.51937
O    -5.44777  -0.73687  -0.54135
O    -5.24401  -0.57996  1.69775
H    -2.61481  -0.13157  -0.71470
H    -2.02614  1.35756  0.03987
H    -4.19615  1.67989  1.23347
H    -4.38822  1.58650  -0.54408
N    -2.58806  -2.21083  2.86358
C    -2.04087  -1.59476  4.06971
H    -2.96826  -3.15038  2.95274
H    -2.20793  -2.28042  4.90487
H    -0.96189  -1.42260  3.97615
H    -2.55188  -0.65124  4.30272
Hg    -5.69937  -2.73245  0.63902
