28
Energy: -573088.7073349  eV PBE+vdW (tier 2 basis)
C    -0.22380  -1.55426  -0.78053
C    -0.68671  -0.38930  0.05496
O    -1.70178  0.25583  -0.20331
H    0.15695  -1.17114  -1.73675
H    -1.08380  -2.19525  -1.00296
H    0.56013  -2.14488  -0.29297
N    0.09005  -0.06463  1.14508
C    -0.21226  1.12051  1.90827
C    0.98620  2.09618  1.92096
O    2.13758  1.62612  1.73270
H    1.00786  -0.48849  1.25056
H    -1.05033  1.59465  1.37231
C    -0.71464  0.79664  3.35115
C    0.06295  -0.21933  4.19638
C    1.54779  0.20646  4.27119
O    1.80189  1.33360  4.77618
O    2.37079  -0.54670  3.67621
H    -1.71843  0.36849  3.20743
H    -0.82754  1.73089  3.91487
H    0.01800  -1.22879  3.77769
H    -0.33896  -0.23171  5.21693
N    0.77334  3.39328  2.15264
C    -0.48814  4.09330  2.37821
H    1.62270  3.95290  2.19925
H    -1.31361  3.58073  1.87557
H    -0.40780  5.10017  1.95549
H    -0.71162  4.17809  3.45027
Hg    3.83619  1.31965  3.49518
