28
Energy: -573088.5609272  eV PBE+vdW (tier 2 basis)
C    -0.50150  -0.39976  -0.00227
C    -0.59300  0.16954  1.38115
O    0.10274  1.16464  1.73160
H    0.55357  -0.49610  -0.28298
H    -0.96777  0.30895  -0.70220
H    -0.99997  -1.36961  -0.11093
N    -1.45870  -0.41528  2.23866
C    -1.70645  0.04586  3.59602
C    -1.07899  -0.84522  4.72057
O    -0.48834  -0.25956  5.62124
H    -1.96222  -1.22621  1.89154
H    -1.13762  0.97409  3.69896
C    -3.18532  0.33216  3.91332
C    -3.94100  1.22441  2.88971
C    -3.01726  2.29282  2.29821
O    -2.87485  2.30780  1.03882
O    -2.34335  3.00396  3.10740
H    -3.19021  0.80896  4.90166
H    -3.76666  -0.59700  4.01240
H    -4.78043  1.71952  3.39612
H    -4.34706  0.64429  2.05606
N    -1.23099  -2.19144  4.70627
C    -1.93527  -3.04663  3.76266
H    -0.77190  -2.64680  5.49124
H    -2.15472  -3.99757  4.25871
H    -1.33523  -3.27062  2.86757
H    -2.90291  -2.61966  3.46727
Hg    -0.76200  3.33128  1.40872
