28
Energy: -573088.9102992  eV PBE+vdW (tier 2 basis)
C    -0.89080  0.21574  0.10435
C    -0.32212  -0.58553  1.22741
O    0.94457  -0.59685  1.39156
H    -0.98410  -0.43085  -0.78301
H    -0.18984  1.01796  -0.14771
H    -1.86921  0.63318  0.37190
N    -1.11828  -1.29422  2.04337
C    -2.52534  -1.67067  1.86443
C    -3.42845  -0.58252  2.54341
O    -3.37797  0.56287  2.10378
H    -0.64772  -1.75059  2.82579
H    -2.76306  -1.58869  0.79469
C    -2.72967  -3.12361  2.31910
C    -1.98168  -4.19499  1.49209
C    -0.46392  -3.98021  1.54208
O    0.08938  -3.89399  2.68526
O    0.13658  -3.79062  0.44363
H    -3.80084  -3.35979  2.24210
H    -2.44182  -3.23598  3.37643
H    -2.19968  -5.18623  1.91250
H    -2.29223  -4.19042  0.44200
N    -4.21226  -0.96925  3.56904
C    -5.08816  -0.03945  4.27650
H    -4.15677  -1.92318  3.90488
H    -5.99810  -0.56406  4.58599
H    -4.59129  0.37834  5.16251
H    -5.34785  0.78072  3.60059
Hg    1.85861  -2.69910  1.63431
