28
Energy: -573088.2946602  eV PBE+vdW (tier 2 basis)
C    -0.30881  1.81423  1.56641
C    0.74786  0.77397  1.28623
O    1.83128  1.04252  0.78594
H    -1.17621  1.68415  0.90433
H    0.12629  2.79877  1.37748
H    -0.66240  1.76948  2.60514
N    0.47996  -0.55283  1.60865
C    -0.80972  -1.13619  1.88646
C    -0.57080  -2.27655  2.92116
O    -0.32328  -3.42054  2.52619
H    1.24033  -1.18134  1.34844
H    -1.43245  -0.35552  2.33966
C    -1.59760  -1.67942  0.66178
C    -0.88426  -2.75509  -0.13316
C    -1.72299  -3.18878  -1.39008
O    -1.02983  -3.27349  -2.44496
O    -2.94006  -3.41837  -1.25781
H    -1.80698  -0.80570  0.02560
H    -2.56906  -2.05411  1.01286
H    -0.78417  -3.69184  0.43702
H    0.10591  -2.45047  -0.48660
N    -0.61392  -1.95049  4.22554
C    -0.79251  -0.62698  4.81517
H    -0.40884  -2.72514  4.85175
H    -0.74472  -0.73393  5.90261
H    -1.77298  -0.19965  4.56650
H    0.00423  0.06339  4.50777
Hg    -2.88479  -4.06632  -3.68532
