28
Energy: -573088.3593103  eV PBE+vdW (tier 2 basis)
C    -0.14336  -0.27007  -0.01895
C    -0.22391  -0.12488  1.48202
O    0.77101  -0.00541  2.19254
H    0.61019  0.42655  -0.40188
H    -1.09710  -0.10011  -0.53220
H    0.20318  -1.28609  -0.25329
N    -1.49638  -0.14055  2.01134
C    -1.86317  -0.22973  3.41575
C    -2.31065  1.11397  4.07010
O    -3.11872  0.98602  5.03563
H    -2.25789  -0.27502  1.35473
H    -2.81432  -0.77904  3.41910
C    -0.92234  -1.10028  4.32215
C    0.21285  -0.49637  5.16924
C    -0.42449  0.39861  6.24952
O    -1.15292  -0.16471  7.11820
O    -0.32303  1.64623  6.07011
H    -1.57258  -1.67383  4.99303
H    -0.44147  -1.81180  3.63714
H    0.91825  0.08400  4.57115
H    0.73640  -1.31488  5.67753
N    -1.93927  2.31458  3.63192
C    -0.84070  2.71763  2.75303
H    -2.40137  3.06990  4.13472
H    -1.16159  2.75260  1.70489
H    0.01316  2.04252  2.86021
H    -0.52677  3.72043  3.05797
Hg    -2.43098  1.79615  7.22671
