28
Energy: -573088.6570063  eV PBE+vdW (tier 2 basis)
C    -0.35795  0.43672  0.08835
C    -0.72619  -0.69968  1.00082
O    -0.59894  -1.88495  0.69380
H    0.61532  0.21995  -0.36618
H    -0.31942  1.40787  0.59476
H    -1.09191  0.49004  -0.72750
N    -1.25028  -0.36035  2.23651
C    -1.64953  -1.35741  3.18790
C    -3.11861  -1.90240  2.87629
O    -4.07175  -1.52934  3.54809
H    -1.49578  0.60918  2.42032
H    -1.00459  -2.23652  3.00571
C    -1.55697  -0.86084  4.63034
C    -0.12439  -0.97781  5.13097
C    0.05712  -0.32726  6.54446
O    0.77040  -0.99988  7.34174
O    -0.47488  0.78407  6.75935
H    -2.23961  -1.46060  5.24634
H    -1.91200  0.17595  4.70838
H    0.58754  -0.42728  4.49686
H    0.21301  -2.01662  5.20133
N    -3.15014  -2.76348  1.84816
C    -4.40152  -3.25571  1.28314
H    -2.27982  -2.89384  1.32701
H    -4.22834  -4.24911  0.85670
H    -4.77930  -2.58838  0.49609
H    -5.14994  -3.31883  2.07989
Hg    0.51786  0.65203  9.03405
