28
Energy: -573088.7923725  eV PBE+vdW (tier 2 basis)
C    0.08558  0.83300  0.86162
C    0.70252  -0.42662  1.39025
O    1.93537  -0.63353  1.16001
H    0.88091  1.55443  0.65347
H    -0.63987  1.27107  1.55633
H    -0.42824  0.61495  -0.08666
N    -0.03393  -1.30677  2.08916
C    -1.49862  -1.43602  2.13458
C    -1.87622  -1.93660  3.55519
O    -2.08458  -3.13266  3.75314
H    0.47161  -2.12455  2.43752
H    -1.92624  -0.43763  1.97940
C    -2.05184  -2.35333  1.01915
C    -1.48094  -3.78460  0.89429
C    0.02540  -3.73412  0.59993
O    0.39109  -3.26015  -0.51570
O    0.82799  -4.04086  1.54059
H    -1.92228  -1.82872  0.06221
H    -3.13486  -2.45216  1.17960
H    -1.97657  -4.28120  0.05110
H    -1.63251  -4.35621  1.81319
N    -1.93846  -1.00991  4.53963
C    -1.73249  0.42979  4.44415
H    -2.17511  -1.39806  5.44913
H    -1.89430  0.86269  5.43564
H    -2.44863  0.90440  3.75863
H    -0.70711  0.67872  4.13738
Hg    2.49713  -2.79069  0.44483
