28
Energy: -573088.9377977  eV PBE+vdW (tier 2 basis)
C    -1.24017  0.08935  -0.04761
C    -0.43739  -0.56949  1.02943
O    0.83653  -0.49668  0.96879
H    -2.16733  0.53072  0.33500
H    -1.48675  -0.65431  -0.82127
H    -0.62776  0.86454  -0.51825
N    -1.03923  -1.23376  2.02078
C    -2.43221  -1.66821  2.12686
C    -3.17583  -0.73314  3.12684
O    -2.61244  -0.40200  4.16316
H    -0.44428  -1.51432  2.80063
H    -2.88106  -1.62329  1.12500
C    -2.48971  -3.10901  2.67497
C    -1.86847  -4.20877  1.78831
C    -0.38859  -3.92077  1.50134
O    0.39587  -3.82465  2.50444
O    -0.04785  -3.68408  0.30905
H    -3.54702  -3.36730  2.83019
H    -2.02000  -3.11917  3.66901
H    -1.93492  -5.16810  2.31837
H    -2.38220  -4.30465  0.82599
N    -4.43502  -0.39077  2.77216
C    -5.30356  0.41726  3.62184
H    -4.79339  -0.70215  1.87633
H    -6.26905  -0.08364  3.75984
H    -4.81293  0.53627  4.59227
H    -5.47077  1.40874  3.18182
Hg    1.85251  -2.54963  1.21171
