28
Energy: -573088.5888142  eV PBE+vdW (tier 2 basis)
C    -0.41143  1.16277  0.02975
C    -0.77775  0.93947  1.47293
O    -0.85975  1.83370  2.31259
H    -0.07866  0.25147  -0.48114
H    0.37163  1.92603  -0.02760
H    -1.29130  1.55525  -0.49909
N    -1.03577  -0.35951  1.85884
C    -1.58152  -0.58226  3.18020
C    -0.68558  0.02116  4.28900
O    -1.15558  0.70695  5.25984
H    -1.05002  -1.11265  1.17994
H    -2.49829  0.02766  3.25300
C    -1.94025  -2.07634  3.43108
C    -3.46918  -2.38007  3.50321
C    -3.99177  -1.40233  4.54985
O    -4.54290  -0.33719  4.08143
O    -3.60978  -1.54085  5.73939
H    -1.49613  -2.41199  4.37651
H    -1.50811  -2.70010  2.63598
H    -3.61744  -3.41527  3.82982
H    -3.97076  -2.21543  2.54441
N    0.62276  -0.21506  4.32159
C    1.45499  -0.98487  3.40119
H    1.10405  0.26411  5.08030
H    0.92924  -1.86918  3.03214
H    1.78279  -0.37286  2.55112
H    2.33619  -1.32374  3.95562
Hg    -3.36381  0.86572  5.62891
