28
Energy: -573088.5792917  eV PBE+vdW (tier 2 basis)
C    -0.38145  -0.22683  -0.24304
C    -0.19050  0.11532  1.21088
O    0.93008  0.32334  1.69388
H    0.01666  -1.23523  -0.42068
H    0.21011  0.46788  -0.84973
H    -1.42778  -0.19748  -0.56645
N    -1.32564  0.16832  1.97863
C    -1.42555  0.32610  3.41885
C    -1.02239  1.71671  3.98682
O    -1.76066  2.17956  4.86065
H    -2.19838  -0.03282  1.50022
H    -2.50135  0.27622  3.63110
C    -0.81320  -0.83249  4.28270
C    0.69882  -0.85366  4.41346
C    1.15499  -2.09687  5.27383
O    1.83043  -1.79361  6.29592
O    0.83118  -3.23656  4.88460
H    -1.17890  -1.77776  3.86122
H    -1.27240  -0.71550  5.27504
H    1.09282  0.03756  4.90897
H    1.21724  -0.99151  3.45504
N    0.08710  2.31293  3.52661
C    0.54214  3.60305  4.02914
H    0.66659  1.77756  2.87211
H    1.11520  4.10561  3.24348
H    1.17851  3.48803  4.91771
H    -0.32662  4.21116  4.30311
Hg    2.09528  -4.09183  6.86247
