28
Energy: -573088.7896629  eV PBE+vdW (tier 2 basis)
C    0.36766  0.21314  0.50895
C    0.03230  -0.01943  1.95400
O    0.97012  -0.03120  2.79896
H    0.84104  -0.70237  0.12661
H    1.10520  1.02064  0.43984
H    -0.50015  0.45388  -0.11486
N    -1.27626  -0.18435  2.24309
C    -1.99200  -0.39305  3.51675
C    -1.18187  0.12299  4.73526
O    -0.35533  -0.55594  5.38034
H    -1.88679  -0.15531  1.43218
H    -2.85592  0.28247  3.43580
C    -2.60827  -1.82024  3.75867
C    -2.17209  -3.01774  2.87676
C    -0.66863  -3.21420  3.04386
O    -0.29903  -3.45678  4.26519
O    0.10529  -2.91920  2.11186
H    -3.69631  -1.72513  3.64733
H    -2.41847  -2.08781  4.80522
H    -2.39610  -2.87362  1.81473
H    -2.71844  -3.90034  3.23181
N    -1.48077  1.37344  5.11274
C    -0.83957  2.03666  6.24281
H    -2.22428  1.86564  4.62951
H    -0.92854  3.11926  6.11368
H    0.21678  1.75248  6.27680
H    -1.31138  1.74376  7.19002
Hg    1.25080  -1.87864  4.14607
