28
Energy: -573088.5558232  eV PBE+vdW (tier 2 basis)
C    -0.40562  1.11890  0.64318
C    0.04651  0.02573  1.57661
O    1.21312  -0.19187  1.85567
H    -0.73513  0.69645  -0.31733
H    -1.23397  1.70761  1.05970
H    0.44693  1.77543  0.45100
N    -0.93746  -0.78168  2.17359
C    -2.29579  -0.95245  1.75201
C    -3.33416  -0.52469  2.84848
O    -4.53001  -0.75489  2.65503
H    -0.52077  -1.53174  2.72854
H    -2.49388  -0.26577  0.91588
C    -2.58205  -2.41152  1.30687
C    -3.92412  -2.56488  0.61167
C    -4.16053  -4.05638  0.16645
O    -3.86748  -4.97012  0.96138
O    -4.65758  -4.16023  -0.98913
H    -1.76705  -2.69104  0.62401
H    -2.52941  -3.09291  2.16898
H    -4.02344  -1.92670  -0.27230
H    -4.77258  -2.36528  1.28453
N    -2.84043  0.09410  3.92569
C    -3.67427  0.61805  5.00295
H    -1.83943  0.27330  3.92745
H    -4.56246  -0.01248  5.11005
H    -3.99442  1.64688  4.79135
H    -3.09937  0.60397  5.93420
Hg    -4.79338  -6.53217  -0.78151
