28
Energy: -573088.5687949  eV PBE+vdW (tier 2 basis)
 C    0.46449   -0.02411   -0.17581
 C    0.37790   -0.15862    1.31702
 O    1.40460   -0.66052    1.88992
 H    0.74638   -0.99557   -0.60138
 H    1.26532    0.68429   -0.42504
 H   -0.47354    0.31017   -0.63260
 N   -0.76405    0.23503    1.89869
 C   -1.22920    0.09203    3.28561
 C   -2.26524   -1.06364    3.45889
 O   -2.01891   -1.91588    4.30221
 H   -1.43787    0.62532    1.24556
 H   -0.39515   -0.31774    3.86370
 C   -1.71099    1.43846    3.91012
 C   -0.99633    1.85319    5.23035
 C    0.48650    1.63435    4.96732
 O    1.00664    0.62479    5.60915
 O    1.04213    2.21056    4.01171
 H   -2.78480    1.38232    4.13280
 H   -1.56289    2.24022    3.17558
 H   -1.32155    1.24406    6.07858
 H   -1.20196    2.91001    5.43758
 N   -3.40420   -1.06495    2.71723
 C   -3.85435   -0.13012    1.69800
 H   -4.00109   -1.86442    2.91425
 H   -3.60131    0.90674    1.95555
 H   -4.94690   -0.17387    1.63797
 H   -3.45977   -0.37186    0.69762
Hg    2.13197   -0.02901    3.85542
