28
Energy: -573088.2738951  eV PBE+vdW (tier 2 basis)
 C    0.38402   -0.55618    0.02110
 C    0.36551   -0.04525    1.43976
 O    1.36793    0.38861    1.99109
 H   -0.57502   -0.52772   -0.50218
 H    1.13340    0.01080   -0.53937
 H    0.71518   -1.60433    0.05258
 N   -0.79815   -0.13411    2.21132
 C   -2.18964   -0.11547    1.80645
 C   -2.54052   -1.28228    0.83981
 O   -3.16606   -1.09690   -0.20415
 H   -0.61343    0.18441    3.16338
 H   -2.74654   -0.31395    2.73723
 C   -2.77342    1.24371    1.31271
 C   -2.32148    1.69343   -0.06188
 C   -3.00710    3.04694   -0.46914
 O   -4.23749    3.17778   -0.32749
 O   -2.19032    3.89381   -0.93765
 H   -2.50596    1.98844    2.07605
 H   -3.86663    1.14750    1.32290
 H   -2.66468    0.99571   -0.84218
 H   -1.24076    1.84141   -0.14312
 N   -2.13414   -2.49879    1.26067
 C   -2.44550   -3.72741    0.54480
 H   -1.67048   -2.55930    2.16225
 H   -2.53082   -3.50219   -0.52338
 H   -3.39637   -4.16032    0.88574
 H   -1.64315   -4.45363    0.71281
Hg   -3.93280    5.43790   -1.35727
