28
Energy: -573088.5979251  eV PBE+vdW (tier 2 basis)
C    0.00651  -2.10420  0.16713
C    0.04070  -1.18691  1.36054
O    0.88207  -0.33221  1.56072
H    1.02191  -2.45566  -0.04606
H    -0.32421  -1.52399  -0.70588
H    -0.66764  -2.96022  0.28960
N    -1.00576  -1.36940  2.29805
C    -1.21541  -0.31715  3.28972
C    -0.18058  -0.45886  4.44297
O    0.50588  -1.49306  4.66495
H    -1.84789  -1.84964  1.98034
H    -0.91599  0.62490  2.80150
C    -2.71858  -0.14189  3.68299
C    -3.42316  -1.07392  4.71534
C    -2.77038  -2.45119  4.66998
O    -2.01997  -2.75608  5.64252
O    -2.81138  -3.07796  3.55994
H    -3.26750  -0.17770  2.73184
H    -2.84356  0.88543  4.05066
H    -3.32942  -0.68573  5.73291
H    -4.48616  -1.14385  4.45821
N    -0.00834  0.62176  5.19771
C    0.94056  0.68800  6.30860
H    -0.48291  1.47572  4.92168
H    0.85297  -0.21541  6.92080
H    1.96993  0.76927  5.93651
H    0.70296  1.56542  6.91619
Hg    -0.48665  -3.47046  3.98853
