28
Energy: -573088.8911491  eV PBE+vdW (tier 2 basis)
C    -2.50025  -1.53095  -0.04047
C    -1.37311  -0.75959  0.59102
O    -0.19825  -0.87298  0.21619
H    -2.61370  -1.19155  -1.07868
H    -3.45790  -1.40966  0.47798
H    -2.23224  -2.59319  -0.07346
N    -1.70469  0.10081  1.60372
C    -0.72546  1.03085  2.15964
C    0.17497  0.27448  3.18971
O    0.05928  0.44445  4.43306
H    -2.66328  0.14027  1.93431
H    -0.05924  1.30981  1.32876
C    -1.41515  2.28490  2.71317
C    -0.53650  3.55131  2.85490
C    0.57750  3.24329  3.86574
O    1.62446  2.70524  3.40285
O    0.29928  3.37667  5.09547
H    -1.90526  2.06524  3.67140
H    -2.20045  2.55730  1.99151
H    -1.14444  4.37901  3.23315
H    -0.08138  3.83262  1.89891
N    1.06148  -0.55298  2.64276
C    2.01724  -1.31087  3.42032
H    0.97775  -0.67942  1.61717
H    1.51697  -1.88933  4.20700
H    2.56746  -1.97961  2.75303
H    2.75204  -0.63824  3.90412
Hg    1.80288  1.65915  5.56273
