28
Energy: -573089.3225341  eV PBE+vdW (tier 2 basis)
C    0.08640  -1.05390  -0.26559
C    0.02195  -0.20970  0.96691
O    1.06305  0.52968  1.17992
H    0.96169  -1.71349  -0.19900
H    -0.81566  -1.65849  -0.40134
H    0.23338  -0.40640  -1.13947
N    -1.05823  -0.28492  1.72719
C    -1.40522  0.32816  3.01084
C    -2.57067  -0.57764  3.52217
O    -3.17731  -1.26471  2.69859
H    -1.82531  -0.93330  1.46269
H    -0.55906  0.23290  3.71395
C    -1.87530  1.80605  2.85042
C    -1.83052  2.69254  4.10320
C    -0.54673  3.00734  4.89207
O    -0.62045  3.32465  6.05484
O    0.69403  3.06992  4.32044
H    -2.91411  1.78443  2.48871
H    -1.32245  2.27919  2.02059
H    -2.54365  2.33435  4.85624
H    -2.21203  3.68478  3.81234
N    -2.84627  -0.50423  4.83396
C    -3.94185  -1.24007  5.46162
H    -2.23171  0.03481  5.43530
H    -4.56995  -1.66228  4.67275
H    -3.55318  -2.05412  6.08632
H    -4.53886  -0.56170  6.08170
Hg    1.06503  1.92716  2.71463
