28
Energy: -573089.0048721  eV PBE+vdW (tier 2 basis)
C    -1.22061  0.94071  -1.91018
C    -0.87374  -0.18535  -0.98967
O    -0.32653  -1.22445  -1.51859
H    -2.21629  0.74877  -2.33726
H    -0.50645  0.95213  -2.74021
H    -1.22825  1.91451  -1.40996
N    -1.12869  -0.12969  0.31200
C    -1.96663  0.79245  1.08099
C    -1.48062  0.56351  2.53812
O    -0.82379  -0.45439  2.78293
H    -0.71982  -0.82366  0.96924
H    -1.77311  1.82831  0.77007
C    -3.48365  0.50059  0.92038
C    -3.96659  -0.90026  1.36334
C    -3.32953  -1.97281  0.47632
O    -2.55000  -2.81192  1.07239
O    -3.47446  -1.90937  -0.76615
H    -3.76146  0.65730  -0.13047
H    -4.04061  1.24689  1.50269
H    -5.05465  -0.95462  1.22761
H    -3.73229  -1.11207  2.41157
N    -1.81823  1.45981  3.48517
C    -2.54407  2.71667  3.35385
H    -1.49660  1.19969  4.41484
H    -2.14034  3.43566  4.07478
H    -3.61859  2.59493  3.55160
H    -2.41212  3.14631  2.35494
Hg    -1.31726  -3.09565  -0.77435
