28
Energy: -573088.7783062  eV PBE+vdW (tier 2 basis)
 C   -1.65840   -0.22133   -0.89738
 C   -0.86685    0.00485    0.36289
 O    0.35463   -0.05041    0.43541
 H   -1.16846   -0.99724   -1.49425
 H   -1.64844    0.70487   -1.48966
 H   -2.70221   -0.50064   -0.71055
 N   -1.59915    0.28727    1.51476
 C   -0.86905    0.78219    2.66668
 C    0.05364   -0.32183    3.23344
 O    1.18619   -0.10976    3.77561
 H   -2.58469    0.51842    1.43420
 H   -0.17167    1.56271    2.31707
 C   -1.82385    1.36460    3.74895
 C   -1.72823    2.90766    3.95294
 C   -0.25669    3.13749    4.27442
 O    0.48185    3.47769    3.28251
 O    0.18192    2.71075    5.37724
 H   -1.62517    0.89215    4.71907
 H   -2.86355    1.11979    3.48928
 H   -2.36172    3.20220    4.79653
 H   -2.01377    3.46527    3.05536
 N   -0.41139   -1.55965    3.19439
 C    0.32638   -2.73123    3.65712
 H   -1.28265   -1.68399    2.68267
 H    1.21545   -2.89441    3.03436
 H    0.64096   -2.59431    4.69752
 H   -0.32978   -3.60278    3.58956
Hg    2.03869    1.96961    4.06681
