28
Energy: -573088.5242888  eV PBE+vdW (tier 2 basis)
C    0.30566  -0.11169  -0.11098
C    0.40642  -0.36540  1.37155
O    1.39923  -0.87544  1.89473
H    1.26084  0.28303  -0.47335
H    0.13334  -1.07131  -0.61713
H    -0.50422  0.57777  -0.37673
N    -0.66592  0.00283  2.13861
C    -0.76302  -0.33672  3.55559
C    0.63060  -0.17210  4.22198
O    1.23483  -1.15909  4.73498
H    -1.49132  0.37642  1.68306
H    -1.40385  0.43279  4.01585
C    -1.41883  -1.72046  3.76679
C    -2.19243  -1.92718  5.09000
C    -1.18178  -1.83021  6.23860
O    -0.53612  -2.88565  6.52311
O    -0.92856  -0.67229  6.67884
H    -0.66850  -2.50942  3.63118
H    -2.16002  -1.84353  2.96370
H    -2.65107  -2.92083  5.09586
H    -2.96599  -1.16362  5.23068
N    1.12921  1.06350  4.33339
C    0.59655  2.31629  3.81196
H    2.06713  1.09108  4.72658
H    -0.48672  2.37495  3.96492
H    0.81677  2.43407  2.74259
H    1.05807  3.14154  4.36254
Hg    1.28406  -1.55226  7.06623
