28
Energy: -573088.4583227  eV PBE+vdW (tier 2 basis)
C    -0.19384  -0.23468  0.18981
C    -0.22119  -0.47426  1.67663
O    0.74763  -0.85731  2.32260
H    0.72754  0.29700  -0.07096
H    -1.06196  0.32277  -0.18027
H    -0.16245  -1.20904  -0.31731
N    -1.43926  -0.24974  2.30801
C    -1.61408  -0.44968  3.71801
C    -2.97075  -1.21812  3.94574
O    -3.94518  -0.63546  4.41131
H    -2.17538  0.22549  1.79148
H    -0.78529  -1.09718  4.03825
C    -1.60854  0.84023  4.56725
C    -0.19469  1.38964  4.66369
C    -0.20037  2.68842  5.55900
O    -0.01233  2.52518  6.78814
O    -0.40559  3.77002  4.95395
H    -1.99902  0.58235  5.56031
H    -2.30141  1.57061  4.12841
H    0.21558  1.69133  3.69465
H    0.49201  0.68710  5.14812
N    -2.97807  -2.52259  3.60118
C    -1.91767  -3.31885  2.99401
H    -3.88052  -2.97095  3.73928
H    -2.11524  -4.37307  3.21215
H    -0.93584  -3.07062  3.41202
H    -1.88151  -3.18763  1.90367
Hg    -0.27057  4.92095  7.08542
