28
Energy: -573088.6519486  eV PBE+vdW (tier 2 basis)
C    -1.02647  -0.05375  -0.02037
C    -0.31419  0.50320  1.18930
O    0.67360  1.24227  0.96693
H    -1.18481  0.75951  -0.73760
H    -1.98761  -0.52922  0.20460
H    -0.36223  -0.78705  -0.49736
N    -0.84496  0.12307  2.38121
C    -0.68000  0.40018  3.82839
C    -0.03030  1.73792  4.22761
O    0.87774  2.34600  3.62017
H    -1.63615  -0.49699  2.23920
H    -1.72193  0.52254  4.15597
C    -0.15394  -0.81897  4.68391
C    0.85897  -1.80570  4.06451
C    1.99071  -1.02597  3.41013
O    2.55662  -0.13710  4.14105
O    2.15144  -1.13688  2.16648
H    0.28343  -0.40423  5.60094
H    -1.03020  -1.40785  4.98788
H    1.24911  -2.44233  4.86898
H    0.40029  -2.44909  3.30740
N    -0.51908  2.29098  5.35488
C    -1.65028  1.88827  6.18707
H    -0.02949  3.14406  5.61518
H    -1.48124  0.92042  6.67567
H    -2.58567  1.85130  5.61189
H    -1.77356  2.64144  6.97052
Hg    2.52921  1.25095  2.31248
