28
Energy: -573088.8299358  eV PBE+vdW (tier 2 basis)
C    -0.80310  0.32093  1.50774
C    -2.15876  0.55222  2.07585
O    -2.34806  1.59470  2.79379
H    -0.56484  1.14624  0.82274
H    -0.08009  0.37526  2.33349
H    -0.70485  -0.65247  1.01295
N    -3.19014  -0.29444  1.88661
C    -3.43843  -1.35243  0.87981
C    -2.54869  -2.60736  1.11966
O    -1.36137  -2.60806  0.79971
H    -4.01655  -0.03488  2.42162
H    -4.48517  -1.63545  1.06067
C    -3.31890  -0.86957  -0.57475
C    -4.42714  0.11187  -1.02464
C    -4.40759  1.37605  -0.16112
O    -5.29625  1.48270  0.74667
O    -3.44827  2.18553  -0.31655
H    -3.38036  -1.75140  -1.22882
H    -2.32808  -0.43307  -0.74975
H    -5.42128  -0.34240  -0.95053
H    -4.24419  0.39973  -2.06708
N    -3.18639  -3.65665  1.67973
C    -2.52832  -4.93028  1.95038
H    -4.17839  -3.57980  1.87347
H    -2.78657  -5.27391  2.95848
H    -1.44724  -4.78014  1.87979
H    -2.83099  -5.69221  1.22018
Hg    -3.90294  3.02107  1.85734
