28
Energy: -573088.7423582  eV PBE+vdW (tier 2 basis)
C    -0.25968  0.65254  0.69234
C    -0.92610  -0.68565  0.70735
O    -0.22566  -1.73509  0.53582
H    0.79205  0.52825  0.96837
H    -0.74264  1.37652  1.35813
H    -0.28658  1.05350  -0.33345
N    -2.25488  -0.78045  0.88601
C    -3.24851  0.28149  0.72661
C    -3.55287  1.10545  2.02059
O    -3.61675  2.32489  1.89809
H    -2.61938  -1.73320  0.92664
H    -2.83233  1.03801  0.05035
C    -4.53971  -0.28229  0.10819
C    -4.41525  -0.74410  -1.36296
C    -3.31806  -1.80647  -1.51114
O    -2.31979  -1.51366  -2.23629
O    -3.40789  -2.86532  -0.81352
H    -4.92481  -1.11205  0.71790
H    -5.29678  0.51309  0.14000
H    -4.17638  0.09027  -2.03032
H    -5.36821  -1.18685  -1.68211
N    -3.75730  0.47618  3.20217
C    -3.74144  -0.94323  3.53364
H    -3.94304  1.12671  3.96153
H    -2.72119  -1.34321  3.61486
H    -4.31380  -1.54082  2.81314
H    -4.23042  -1.06758  4.50493
Hg    -1.05061  -3.15194  -1.12788
