28
Energy: -573088.8405663  eV PBE+vdW (tier 2 basis)
C    -0.42011  1.09594  0.92870
C    -0.64634  -0.33442  0.55347
O    0.34624  -1.01029  0.11477
H    0.64460  1.24092  1.13563
H    -1.01159  1.39611  1.80087
H    -0.68320  1.73926  0.07488
N    -1.85901  -0.88457  0.65553
C    -3.14761  -0.22840  0.86475
C    -3.59273  -0.46555  2.33887
O    -3.30394  -1.52631  2.88036
H    -1.90319  -1.89922  0.56081
H    -3.02542  0.83922  0.64348
C    -4.20976  -0.84844  -0.06787
C    -3.98991  -0.66001  -1.58448
C    -2.64029  -1.24214  -2.02343
O    -1.75878  -0.44852  -2.45374
O    -2.44566  -2.48846  -1.81852
H    -4.29197  -1.91979  0.16645
H    -5.18395  -0.40446  0.18171
H    -4.00997  0.39500  -1.87731
H    -4.78567  -1.18990  -2.12453
N    -4.31760  0.51408  2.92983
C    -4.70043  1.80972  2.38156
H    -4.61794  0.28644  3.87411
H    -5.26884  2.34839  3.14538
H    -5.34595  1.71541  1.49699
H    -3.82644  2.42678  2.12805
Hg    -0.15487  -2.11459  -1.83519
