28
Energy: -573088.8978361  eV PBE+vdW (tier 2 basis)
C    -0.11123  -0.75687  0.20447
C    -0.37559  -0.10273  1.53318
O    0.11946  -0.52895  2.58774
H    0.96981  -0.88949  0.08102
H    -0.51315  -0.20297  -0.65115
H    -0.56015  -1.75937  0.21799
N    -1.20183  0.98708  1.52487
C    -1.74055  1.65125  2.71809
C    -0.65006  2.45885  3.47413
O    -0.70137  3.73177  3.63662
H    -1.53787  1.32252  0.62940
H    -2.42895  2.40640  2.31944
C    -2.54132  0.67801  3.64883
C    -4.00943  1.09998  3.93396
C    -3.93500  2.55671  4.37721
O    -4.19345  3.43127  3.48345
O    -3.39365  2.81209  5.49212
H    -2.02454  0.55837  4.60790
H    -2.56892  -0.30942  3.17273
H    -4.64229  1.02027  3.04447
H    -4.42030  0.48091  4.73901
N    0.39781  1.78227  3.90700
C    1.52061  2.37244  4.61958
H    0.43077  0.78082  3.59251
H    2.25296  2.79063  3.91496
H    1.17102  3.17634  5.27529
H    2.00523  1.58942  5.21051
Hg    -2.55201  4.75742  4.45166
