28
Energy: -573088.4824135  eV PBE+vdW (tier 2 basis)
 C   -0.56970   -0.13903   -0.08525
 C    0.17272    0.27013    1.14452
 O    1.44379    0.09714    1.16377
 H   -0.84213   -1.19985    0.02521
 H    0.06900   -0.04347   -0.96767
 H   -1.49611    0.43208   -0.21510
 N   -0.45737    0.75846    2.21521
 C   -1.80904    1.28295    2.46254
 C   -2.48394    2.25873    1.44949
 O   -3.70932    2.27911    1.51963
 H    0.10611    0.74029    3.07128
 H   -2.52125    0.44630    2.47817
 C   -1.82666    1.90470    3.88697
 C   -0.86524    3.07723    4.19722
 C    0.60259    2.65713    4.01551
 O    1.31218    3.32468    3.19379
 O    0.98667    1.56953    4.54339
 H   -1.64597    1.09892    4.61214
 H   -2.85303    2.25998    4.04750
 H   -1.06026    3.96002    3.57926
 H   -0.99943    3.36181    5.24986
 N   -1.81568    3.04545    0.56554
 C   -0.40269    3.34113    0.36945
 H   -2.47037    3.58596    0.00417
 H   -0.32889    4.32460   -0.10616
 H    0.08886    2.61685   -0.29705
 H    0.14302    3.40198    1.31527
Hg    2.54447    1.41620    2.67708
