28
Energy: -573088.9400196  eV PBE+vdW (tier 2 basis)
C    0.36177  -0.55498  0.42624
C    -0.00172  -0.26249  1.84849
O    0.85902  -0.30013  2.78351
H    0.94507  0.29155  0.03404
H    0.99864  -1.44600  0.38953
H    -0.51091  -0.69628  -0.22016
N    -1.27335  0.06123  2.12074
C    -1.79118  0.37301  3.44815
C    -2.98789  -0.59247  3.67990
O    -3.68741  -0.90155  2.71566
H    -1.99463  -0.11586  1.41792
H    -0.97688  0.18872  4.15942
C    -2.31657  1.82378  3.59313
C    -1.49809  2.94362  2.91062
C    0.01073  2.74661  3.08502
O    0.44877  2.40697  4.22135
O    0.71731  2.81611  2.02828
H    -2.40246  2.02345  4.66870
H    -3.33192  1.89124  3.17465
H    -1.77128  3.91214  3.35279
H    -1.70031  3.00246  1.83734
N    -3.19959  -0.97247  4.95283
C    -4.31176  -1.82805  5.35376
H    -2.51781  -0.70705  5.65524
H    -3.96649  -2.84790  5.56769
H    -4.79394  -1.41510  6.24712
H    -5.03255  -1.86219  4.53177
Hg    2.32642  1.48964  3.07528
