28
Energy: -573088.1443639  eV PBE+vdW (tier 2 basis)
C    -0.22231  -1.27956  -0.17008
C    -0.07095  -0.06859  0.71408
O    0.88386  0.69809  0.58663
H    0.51824  -1.20366  -0.97037
H    -1.22251  -1.37936  -0.60716
H    -0.01849  -2.18771  0.41448
N    -0.95579  0.18379  1.74503
C    -2.31017  -0.29341  2.01589
C    -2.43708  -1.83514  1.88970
O    -3.13578  -2.33585  1.00300
H    -0.66155  0.99612  2.28670
H    -2.47494  -0.07647  3.08349
C    -3.42333  0.47946  1.27641
C    -3.43428  0.49893  -0.24860
C    -4.06599  -0.77055  -0.89622
O    -3.35540  -1.37840  -1.74507
O    -5.24881  -1.04833  -0.57232
H    -3.30588  1.52787  1.59378
H    -4.39850  0.14541  1.65491
H    -4.08465  1.31304  -0.59731
H    -2.44285  0.64951  -0.68614
N    -1.77572  -2.58286  2.79837
C    -1.00769  -2.13532  3.95701
H    -1.93760  -3.58159  2.69839
H    -0.20683  -1.44653  3.66527
H    -1.64686  -1.65659  4.71280
H    -0.54611  -3.01436  4.41623
Hg    -5.05946  -3.03481  -1.87183
