28
Energy: -573088.7789645  eV PBE+vdW (tier 2 basis)
C    -0.56785  1.40227  0.71990
C    -0.48148  0.56973  1.97110
O    -0.13989  0.99644  3.06713
H    -0.55200  0.80716  -0.20107
H    0.25784  2.12132  0.70983
H    -1.50395  1.97812  0.74539
N    -0.81031  -0.77896  1.84409
C    -1.00799  -1.53718  3.06473
C    0.33027  -1.69862  3.82243
O    0.44103  -1.74743  5.09014
H    -1.26878  -1.10197  0.99757
H    -1.62893  -0.92865  3.74449
C    -1.69952  -2.90391  2.79016
C    -3.15299  -3.03076  3.34093
C    -3.00101  -2.73303  4.82749
O    -3.24200  -1.52310  5.17869
O    -2.38842  -3.57418  5.54002
H    -1.10987  -3.71906  3.22811
H    -1.72980  -3.08714  1.70665
H    -3.83907  -2.31507  2.87692
H    -3.51273  -4.05325  3.18325
N    1.41621  -1.85078  3.08283
C    2.76605  -1.98867  3.62194
H    1.28430  -1.73215  2.08041
H    3.45805  -2.13651  2.78900
H    3.04968  -1.08487  4.17616
H    2.82079  -2.85108  4.29571
Hg    -1.34461  -1.64070  6.48202
