28
Energy: -573088.8298183  eV PBE+vdW (tier 2 basis)
C    0.33136  1.35428  0.98541
C    0.01695  0.06628  1.66114
O    0.98860  -0.68230  2.02652
H    0.88047  1.99426  1.69015
H    1.01718  1.13782  0.15467
H    -0.55716  1.86181  0.59200
N    -1.24203  -0.35723  1.88880
C    -2.54063  0.35446  1.93030
C    -3.01991  0.77877  0.51091
O    -2.52631  1.75193  -0.05596
H    -1.27756  -1.29847  2.27547
H    -3.23587  -0.40627  2.31301
C    -2.56514  1.55215  2.89333
C    -2.47696  1.18071  4.39272
C    -1.17309  0.43382  4.68669
O    -1.24027  -0.83084  4.83477
O    -0.09262  1.09006  4.65288
H    -3.51656  2.08358  2.74584
H    -1.77663  2.26740  2.62954
H    -3.31570  0.54655  4.70011
H    -2.49090  2.10226  4.98740
N    -3.99955  0.01155  -0.01133
C    -4.60039  0.27582  -1.31431
H    -4.37786  -0.74656  0.54519
H    -4.72813  -0.66636  -1.85882
H    -5.57699  0.76618  -1.20653
H    -3.93257  0.93634  -1.87483
Hg    1.05119  -0.96388  4.31759
