28
Energy: -573088.5462033  eV PBE+vdW (tier 2 basis)
C    -0.17198  0.00898  -0.24866
C    -0.10267  0.39026  1.19219
O    1.00470  0.84810  1.65155
H    -1.06718  0.42113  -0.73141
H    -0.22747  -1.08377  -0.34374
H    0.72118  0.38822  -0.74979
N    -1.13664  0.26987  2.04228
C    -2.58141  -0.01258  1.89754
C    -2.88634  -0.88048  0.65313
O    -2.25351  -1.92090  0.49833
H    -0.88229  0.53399  2.99474
H    -2.80637  -0.72137  2.71211
C    -3.41843  1.25259  2.19559
C    -3.12842  2.51993  1.36756
C    -1.72070  3.06032  1.64967
O    -0.96064  3.27080  0.66223
O    -1.36737  3.18041  2.86846
H    -3.27599  1.50879  3.25538
H    -4.48378  0.99133  2.10748
H    -3.21136  2.36888  0.28560
H    -3.84170  3.30483  1.65632
N    -3.87473  -0.46476  -0.17359
C    -4.34993  -1.27986  -1.28670
H    -4.41402  0.35564  0.07515
H    -4.58361  -0.63435  -2.14046
H    -5.24707  -1.84941  -1.00837
H    -3.55941  -1.98435  -1.56101
Hg    0.86509  3.07310  2.17911
