28
Energy: -573088.5565698  eV PBE+vdW (tier 2 basis)
C    -0.19819  0.71062  2.04991
C    -0.18271  -0.77764  1.80318
O    0.74935  -1.50099  2.12430
H    -0.09736  1.25693  1.10075
H    -1.12727  1.04348  2.53183
H    0.65349  0.96301  2.68628
N    -1.28622  -1.35035  1.17797
C    -2.36783  -0.64830  0.50946
C    -3.45709  -0.21158  1.54009
O    -4.07574  0.85825  1.33419
H    -1.14149  -2.33358  0.95012
H    -2.00898  0.28909  0.06203
C    -2.93912  -1.57374  -0.59888
C    -3.91419  -0.98754  -1.62868
C    -5.17344  -0.41847  -0.94592
O    -5.47880  0.77444  -1.24690
O    -5.71931  -1.12003  -0.05237
H    -2.06564  -1.91045  -1.17836
H    -3.39007  -2.45940  -0.12911
H    -4.24273  -1.78836  -2.30516
H    -3.45887  -0.19413  -2.22962
N    -3.65634  -1.01073  2.58499
C    -4.67852  -0.79046  3.59545
H    -3.05219  -1.82557  2.65723
H    -5.66985  -1.09880  3.22885
H    -4.70663  0.26868  3.87491
H    -4.43750  -1.38849  4.47911
Hg    -6.50419  1.00131  0.84090
