28
Energy: -573088.3570183  eV PBE+vdW (tier 2 basis)
C    -1.04612  -0.28339  -0.14837
C    -0.60822  0.45344  1.09582
O    0.56745  0.71378  1.32122
H    -0.17782  -0.39335  -0.80291
H    -1.83670  0.25430  -0.68886
H    -1.42206  -1.28540  0.10205
N    -1.57109  0.85266  2.00749
C    -2.95226  0.40223  2.06882
C    -3.77655  1.63425  2.55988
O    -4.06308  1.74559  3.77338
H    -1.17260  1.24768  2.85901
H    -3.27998  0.18396  1.04313
C    -3.13566  -0.86308  2.93160
C    -4.49432  -1.58995  2.85022
C    -5.57329  -0.65468  3.42353
O    -6.13259  0.12833  2.60624
O    -5.69197  -0.62422  4.68439
H    -2.88748  -0.64308  3.97802
H    -2.38714  -1.58393  2.56867
H    -4.45907  -2.50026  3.45699
H    -4.76169  -1.84539  1.81861
N    -4.12101  2.55115  1.65070
C    -3.84490  2.55020  0.21679
H    -4.62939  3.34722  2.02866
H    -4.26751  3.46411  -0.20952
H    -4.32068  1.69487  -0.28121
H    -2.76561  2.54739  0.02123
Hg    -6.45819  1.56960  4.55379
