28
Energy: -573088.7564043  eV PBE+vdW (tier 2 basis)
C    -1.27385  -1.28204  0.38588
C    -1.75335  -1.12319  1.81043
O    -2.37322  -2.12998  2.25754
H    -0.65291  -0.45198  0.03155
H    -0.70232  -2.21486  0.31274
H    -2.15112  -1.38291  -0.26588
N    -1.44315  0.06535  2.37726
C    -1.54041  0.82529  3.65947
C    -1.32835  -0.04071  4.90836
O    -1.46161  -1.27811  4.89501
H    -0.96004  0.64030  1.69471
H    -0.63104  1.44251  3.60515
C    -2.71699  1.87870  3.68666
C    -3.94284  1.67238  4.60675
C    -4.48430  0.27878  4.33444
O    -4.76121  -0.05045  3.16821
O    -4.38036  -0.55401  5.33647
H    -3.07475  1.96267  2.65320
H    -2.27537  2.84911  3.94719
H    -4.69548  2.42571  4.34172
H    -3.69730  1.78171  5.66769
N    -0.94391  0.59428  6.03091
C    -0.62302  2.00018  6.24598
H    -0.85580  -0.03391  6.82681
H    -0.05781  2.41571  5.40241
H    -1.52217  2.60923  6.41250
H    0.01066  2.07662  7.13465
Hg    -3.62799  -2.14136  4.04322
