28
Energy: -573088.7898507  eV PBE+vdW (tier 2 basis)
C    0.29367  -0.25504  1.07210
C    -0.08355  -0.31456  2.52427
O    0.82712  -0.49244  3.38002
H    -0.49481  0.14445  0.42489
H    0.53753  -1.27755  0.75040
H    1.20017  0.35096  0.96385
N    -1.39406  -0.15244  2.80664
C    -2.13507  -0.11291  4.08218
C    -1.22348  0.27498  5.27592
O    -0.57653  -0.53552  5.97237
H    -1.98275  -0.03002  1.98833
H    -2.81950  0.73787  3.95192
C    -3.06408  -1.34147  4.40194
C    -2.91863  -2.65924  3.59905
C    -1.50186  -3.18808  3.79895
O    -1.19801  -3.43500  5.03701
O    -0.68073  -3.13659  2.86165
H    -4.10092  -1.00483  4.27213
H    -2.93888  -1.58111  5.46487
H    -3.10302  -2.53234  2.52724
H    -3.65499  -3.36756  3.99852
N    -1.21949  1.58143  5.57285
C    -0.43404  2.14072  6.66787
H    -1.82634  2.20498  5.05191
H    -0.33437  3.21892  6.51403
H    0.55711  1.67535  6.68069
H    -0.91994  1.95439  7.63466
Hg    0.67643  -2.26835  4.84171
