28
Energy: -573088.2952052  eV PBE+vdW (tier 2 basis)
C    -0.27558  1.74391  1.93997
C    -0.08570  0.31545  2.38886
O    0.81103  -0.02831  3.14872
H    -1.27051  2.12362  2.21023
H    -0.16572  1.82714  0.84928
H    0.48729  2.36038  2.42128
N    -0.97150  -0.64301  1.91920
C    -2.01092  -0.47504  0.91893
C    -3.24384  0.26908  1.51532
O    -3.83180  1.22282  0.94549
H    -0.71138  -1.59085  2.18695
H    -1.65358  0.17353  0.10726
C    -2.27859  -1.88427  0.32183
C    -3.46447  -2.09770  -0.64659
C    -3.81262  -0.80437  -1.39021
O    -5.01181  -0.40894  -1.31845
O    -2.84534  -0.13218  -1.86440
H    -2.42657  -2.59431  1.15066
H    -1.34152  -2.16426  -0.17645
H    -4.36935  -2.42076  -0.12492
H    -3.20209  -2.86816  -1.38305
N    -3.64032  -0.13963  2.72158
C    -4.75165  0.45599  3.45747
H    -3.04143  -0.80865  3.19811
H    -4.48061  1.44657  3.84700
H    -5.00827  -0.20148  4.29291
H    -5.61938  0.56247  2.79786
Hg    -4.16356  1.78632  -1.44684
