28
Energy: -573088.8702362  eV PBE+vdW (tier 2 basis)
 C   -3.02757   -1.27873    1.54079
 C   -1.66484   -0.70607    1.27363
 O   -0.87778   -1.19327    0.45338
 H   -3.65297   -1.10374    0.65440
 H   -3.52327   -0.83190    2.40986
 H   -2.94844   -2.36376    1.67206
 N   -1.31694    0.42015    1.98294
 C   -0.06646    1.11522    1.74698
 C    1.12320    0.40901    2.49698
 O    1.72909    0.97962    3.43559
 H   -1.80926    0.62117    2.85130
 H    0.16432    0.96049    0.67964
 C   -0.16866    2.62920    1.99438
 C   -0.98721    3.15707    3.19596
 C   -0.42997    2.52078    4.48221
 O    0.52173    3.12155    5.05737
 O   -0.86334    1.36885    4.77189
 H   -0.65718    3.05710    1.10554
 H    0.84641    3.04258    2.03894
 H   -2.05121    2.90601    3.11399
 H   -0.88183    4.24469    3.25317
 N    1.41949   -0.80157    2.03198
 C    2.39974   -1.67989    2.65022
 H    0.82467   -1.14894    1.26288
 H    2.73035   -2.41356    1.90920
 H    3.25638   -1.08892    2.99216
 H    1.97227   -2.21770    3.51016
Hg    1.31529    1.06858    5.83740
