28
Energy: -573088.7106026  eV PBE+vdW (tier 2 basis)
C    -0.13126  -0.63830  0.27262
C    -0.31098  -0.69778  1.76425
O    0.30512  -1.48222  2.48794
H    0.93175  -0.46899  0.05973
H    -0.72425  0.14571  -0.21114
H    -0.39477  -1.61243  -0.15851
N    -1.22743  0.17580  2.31504
C    -1.44353  0.28110  3.73568
C    -2.39936  -0.83793  4.30005
O    -3.50497  -0.53766  4.76011
H    -1.83197  0.70823  1.69529
H    -0.47034  0.07031  4.21570
C    -1.95022  1.68914  4.07265
C    -2.22585  1.88825  5.55628
C    -2.61676  3.36655  5.87095
O    -2.08956  3.82109  6.92773
O    -3.40270  3.95960  5.10146
H    -2.86752  1.91431  3.50903
H    -1.17624  2.39119  3.72951
H    -1.37682  1.61582  6.19279
H    -3.11304  1.31920  5.87817
N    -1.88314  -2.07297  4.26163
C    -2.64559  -3.25680  4.63252
H    -0.96868  -2.17538  3.80818
H    -1.96127  -4.00276  5.04986
H    -3.16104  -3.69176  3.76482
H    -3.39540  -2.97692  5.38030
Hg    -3.26743  5.86523  6.69528
