28
Energy: -573088.9376597  eV PBE+vdW (tier 2 basis)
C    -1.38053  -0.11425  -0.39247
C    -0.41340  -0.83206  0.49488
O    0.82249  -0.83248  0.17121
H    -2.18480  0.36946  0.17304
H    -1.81957  -0.83093  -1.10364
H    -0.83436  0.63474  -0.97403
N    -0.83544  -1.47231  1.58924
C    -2.19935  -1.82607  1.98220
C    -2.66616  -0.85625  3.10871
O    -1.87881  -0.55109  3.99632
H    -0.10960  -1.79506  2.22948
H    -2.84158  -1.74885  1.09404
C    -2.22558  -3.26515  2.53771
C    -1.86306  -4.39262  1.54807
C    -0.45921  -4.18746  0.96265
O    0.51815  -4.14077  1.78320
O    -0.35694  -3.96413  -0.27571
H    -3.24162  -3.46381  2.90763
H    -1.56332  -3.30905  3.41427
H    -1.87436  -5.35026  2.08519
H    -2.56757  -4.45234  0.71183
N    -3.95570  -0.45667  3.03042
C    -4.58262  0.39133  4.03890
H    -4.51173  -0.74816  2.23431
H    -3.90129  0.46504  4.89155
H    -4.77083  1.39818  3.64443
H    -5.53096  -0.05094  4.36587
Hg    1.74675  -2.94104  0.21071
