28
Energy: -573088.6582576  eV PBE+vdW (tier 2 basis)
 C   -0.70842   -0.19054    0.00738
 C   -0.94229   -0.90072    1.31520
 O   -0.81930   -2.11959    1.44183
 H   -1.26857   -0.70304   -0.78294
 H    0.35756   -0.26983   -0.24374
 H   -0.99006    0.86835    0.03062
 N   -1.28285   -0.11094    2.38859
 C   -1.51059   -0.68098    3.70410
 C   -3.04544   -0.73451    3.93483
 O   -3.64961    0.33398    4.23859
 H   -1.46891    0.87655    2.24299
 H   -1.13883   -1.71276    3.63114
 C   -0.70991    0.09492    4.77044
 C   -0.74769   -0.40396    6.22791
 C   -2.18098   -0.20810    6.75493
 O   -2.52840    0.97648    7.04295
 O   -2.95194   -1.20467    6.67334
 H   -0.97603    1.16029    4.74107
 H    0.33978    0.01824    4.44791
 H   -0.06391    0.19976    6.83356
 H   -0.47926   -1.46208    6.31280
 N   -3.68642   -1.88426    3.73903
 C   -3.12184   -3.21819    3.52356
 H   -4.69398   -1.82857    3.87631
 H   -2.69295   -3.61215    4.45571
 H   -3.93498   -3.87853    3.20881
 H   -2.35886   -3.19756    2.73651
Hg   -4.71491    0.45950    6.42133
