28
Energy: -573088.6453824  eV PBE+vdW (tier 2 basis)
C    -0.42595  0.01228  -0.21276
C    -0.08381  0.12744  1.24854
O    1.06454  0.29211  1.66161
H    0.32183  0.55470  -0.79828
H    -1.42847  0.38952  -0.44927
H    -0.38392  -1.04660  -0.50701
N    -1.15129  0.02236  2.12323
C    -1.09344  -0.14247  3.55384
C    -0.55949  1.06093  4.41189
O    -1.12972  1.23862  5.49489
H    -2.07553  -0.04478  1.70801
H    -2.13293  -0.24428  3.88535
C    -0.29409  -1.41102  4.02138
C    -0.71926  -1.80521  5.42068
C    0.20237  -2.93934  6.00959
O    1.43858  -2.82061  5.90204
O    -0.44000  -3.87132  6.56902
H    0.78500  -1.22646  3.97209
H    -0.52767  -2.20966  3.30349
H    -0.60070  -0.98498  6.14778
H    -1.75419  -2.15757  5.46809
N    0.49073  1.74504  3.95943
C    1.04764  2.88879  4.66906
H    0.91356  1.40946  3.08260
H    0.60017  3.82939  4.31990
H    0.84735  2.78382  5.74108
H    2.12731  2.92284  4.49038
Hg    1.58311  -4.96076  7.19157
