28
Energy: -573088.1456374  eV PBE+vdW (tier 2 basis)
C    0.48957  0.22510  -0.02393
C    0.24346  -0.29014  1.37143
O    1.12140  -0.89361  1.98915
H    0.10258  1.23456  -0.20051
H    0.01061  -0.45227  -0.74551
H    1.56806  0.21111  -0.20147
N    -0.99260  -0.16862  1.97214
C    -2.15091  0.66859  1.67222
C    -2.54272  0.63844  0.17055
O    -2.53210  1.67729  -0.49761
H    -1.01114  -0.64149  2.87494
H    -2.99152  0.18192  2.19333
C    -2.08789  2.09055  2.26836
C    -0.96319  3.03193  1.84572
C    -1.22008  3.74505  0.48432
O    -2.25067  4.46160  0.40194
O    -0.33941  3.58967  -0.40728
H    -1.96954  1.94341  3.35365
H    -3.06010  2.57940  2.12241
H    0.01457  2.54316  1.79788
H    -0.89441  3.86035  2.56377
N    -2.92329  -0.54887  -0.34571
C    -3.02236  -1.84707  0.31349
H    -3.18641  -0.49930  -1.32642
H    -3.65342  -2.49447  -0.30278
H    -3.49950  -1.76150  1.29781
H    -2.04116  -2.32436  0.43360
Hg    -1.75970  4.78113  -1.90089
