28
Energy: -573088.9226316  eV PBE+vdW (tier 2 basis)
C    -0.58848  0.58484  0.99882
C    -0.19837  -0.51841  1.93032
O    1.01629  -0.65704  2.26767
H    0.19036  1.35286  1.00950
H    -1.55853  1.02633  1.25451
H    -0.64967  0.18480  -0.02586
N    -1.13910  -1.36505  2.40132
C    -2.46874  -1.61603  1.84261
C    -3.62147  -0.78045  2.48608
O    -4.71628  -0.80031  1.93665
H    -0.79006  -2.08148  3.04123
H    -2.46712  -1.31300  0.78618
C    -2.80047  -3.11499  1.94377
C    -1.98333  -4.04064  1.01415
C    -0.47976  -3.87267  1.26331
O    -0.04080  -4.11334  2.43418
O    0.22223  -3.39080  0.32587
H    -3.86018  -3.23251  1.68521
H    -2.68592  -3.44538  2.98755
H    -2.25060  -5.08483  1.22341
H    -2.18114  -3.83146  -0.04226
N    -3.32516  -0.08931  3.60564
C    -4.31963  0.69554  4.33004
H    -2.39640  -0.18646  4.00028
H    -5.12529  0.95969  3.63842
H    -4.74596  0.12410  5.16534
H    -3.85418  1.60817  4.71763
Hg    1.88078  -2.82117  1.91241
