28
Energy: -573088.3671423  eV PBE+vdW (tier 2 basis)
C    0.28276  -0.97570  2.48138
C    -0.43433  0.34328  2.36282
O    0.09534  1.41182  2.63039
H    0.89252  -1.13787  1.58127
H    0.97403  -0.90477  3.32791
H    -0.38171  -1.83524  2.61825
N    -1.77762  0.37630  1.95578
C    -2.53125  -0.58507  1.19211
C    -3.13925  -1.75905  2.07481
O    -3.58745  -2.75131  1.51199
H    -2.12156  1.33646  1.94880
H    -3.43074  -0.05781  0.83662
C    -1.83378  -1.22458  -0.02889
C    -1.59185  -0.21588  -1.13245
C    -0.88008  -0.88441  -2.35634
O    0.13632  -1.57971  -2.14472
O    -1.41159  -0.62117  -3.47303
H    -2.51781  -2.02410  -0.35361
H    -0.89562  -1.71719  0.25159
H    -0.89238  0.58128  -0.83688
H    -2.51621  0.24851  -1.49180
N    -3.15700  -1.53868  3.39600
C    -3.78748  -2.45055  4.34558
H    -2.80421  -0.64210  3.71751
H    -4.84686  -2.20156  4.49228
H    -3.26480  -2.38134  5.30502
H    -3.71575  -3.47297  3.96206
Hg    0.21197  -1.91709  -4.61846
