18
Energy: -565325.008391 eV PBE+vdW (tier 2 basis)
N    0.884954  -0.921312  0.214701
C    0.127528  -0.304232  1.368815
C    1.229029  0.047158  2.400695
O    2.377583  -0.272377  2.167576
H    1.882347  -0.962854  0.569375
H    0.857661  -0.336621  -0.632050
H    -0.361784  0.614885  1.022085
C    -0.989779  -1.314911  1.901187
O    -1.894277  -0.386897  2.463249
C    -0.469413  -2.384110  2.840880
H    -1.422293  -1.760148  0.984234
H    0.571392  -1.866775  -0.041844
H    -0.115295  -1.964419  3.789945
H    0.343837  -2.971681  2.390444
H    -1.276427  -3.107941  3.047425
O    0.755876  0.699022  3.444050
H    1.489951  0.943345  4.051058
Hg    -3.579892  -1.052132  3.441175
