18
Energy: -565325.177529 eV PBE+vdW (tier 2 basis)
N    -1.059598  -0.644962  0.097490
C    -0.271421  -0.232557  1.327383
C    1.232683  -0.321993  1.030214
O    1.798181  -1.376824  0.735627
H    -0.686373  -0.242054  -0.775443
H    -2.042750  -0.342242  0.177114
H    -0.535104  0.806419  1.557378
C    -0.665631  -1.173752  2.513891
O    -0.676913  -2.532381  2.150431
C    -2.123070  -0.941741  3.001868
H    0.005037  -0.951180  3.360586
H    -1.060515  -1.676941  0.016542
H    -2.308524  -1.553210  3.890503
H    -2.872096  -1.207013  2.244782
H    -2.220001  0.121662  3.274452
O    1.819911  0.847654  1.150751
H    2.792048  0.783475  1.004334
Hg    1.144933  -3.543639  1.883924
