18
Energy: -565324.94891 eV PBE+vdW (tier 2 basis)
N    -0.258003  0.136722  0.328072
C    0.227178  0.018510  1.693196
C    1.788153  0.002004  1.830574
O    2.553864  -0.158324  0.878277
H    -0.748687  1.013476  0.125224
H    -0.831842  -0.703490  0.107874
H    -0.101567  0.906444  2.256395
C    -0.353440  -1.313121  2.342382
O    -0.658079  -2.124226  1.217852
C    -1.568196  -0.984207  3.215081
H    0.423956  -1.805252  2.950632
H    -1.009256  -2.991599  1.493000
H    -1.289650  -0.352540  4.069697
H    -1.968791  -1.922063  3.625492
H    -2.356121  -0.483175  2.637390
O    2.299677  0.133148  3.021246
H    1.655489  0.305158  3.739609
Hg    1.503317  -0.037466  -1.199992
