18
Energy: -565325.063946 eV PBE+vdW (tier 2 basis)
N    -0.884518  1.029303  0.988777
C    -0.146203  -0.087949  1.714389
C    1.387948  0.057863  1.467299
O    2.185949  -0.242708  2.309991
H    -0.700031  1.944121  1.429776
H    -0.573862  1.097166  0.005686
H    -0.340632  0.028662  2.786663
C    -0.643991  -1.507927  1.242414
O    -2.025095  -1.357541  1.523303
C    0.046233  -2.612767  2.022722
H    -0.466509  -1.605906  0.156700
H    -1.901810  0.863916  1.010514
H    1.121019  -2.672208  1.812840
H    -0.379692  -3.576439  1.685263
H    -0.102645  -2.514338  3.104882
O    1.611415  0.540602  0.238339
H    2.576035  0.648939  0.079425
Hg    -3.247611  -3.049789  1.455018
