18
Energy: -565324.663006 eV PBE+vdW (tier 2 basis)
N    0.997382  -1.142582  0.823340
C    0.121015  -0.193860  1.378777
C    0.838029  0.600784  2.557278
O    0.508036  0.706721  3.733821
H    1.639866  -0.892349  0.073404
H    1.107795  -2.068745  1.233289
H    -0.040400  0.609410  0.637692
C    -1.280394  -0.758382  1.764562
O    -1.090726  -1.678580  2.890234
C    -1.991319  -1.452546  0.624524
H    -1.868785  0.107285  2.106537
H    -1.727598  -2.418500  2.798035
H    -3.015049  -1.723913  0.918692
H    -1.453771  -2.344741  0.275009
H    -2.090172  -0.769551  -0.233059
O    1.891379  1.204230  2.060334
H    2.379959  1.727703  2.737932
Hg    -1.076247  -0.607386  5.091598
