18
Energy: -565324.979441 eV PBE+vdW (tier 2 basis)
N    0.023624  0.700017  0.037565
C    0.311041  0.107139  1.403311
C    1.695433  -0.569506  1.250249
O    2.290506  -1.241457  2.212678
H    -0.683859  0.170758  -0.493889
H    0.920336  0.643021  -0.503642
H    0.416141  0.947661  2.105165
C    -0.868547  -0.786580  1.875237
O    -0.730274  -0.859160  3.326512
C    -0.973037  -2.147662  1.210517
H    -1.793280  -0.203431  1.706894
H    -1.537526  -1.259731  3.707404
H    -0.080952  -2.766545  1.382718
H    -1.108423  -2.060432  0.121750
H    -1.854020  -2.688482  1.579772
O    2.309618  -0.457566  0.202006
H    -0.282250  1.682735  0.083770
Hg    1.444469  -1.724779  4.099983
