18
Energy: -565325.372107 eV PBE+vdW (tier 2 basis)
N    -0.047955  0.004721  -0.090208
C    -0.023561  -0.060073  1.419747
C    1.464256  0.025081  1.902686
O    2.303222  0.395176  1.063307
H    0.112554  -0.920544  -0.519424
H    0.714828  0.624504  -0.418406
H    -0.490133  0.865124  1.794862
C    -0.789117  -1.273626  1.985582
O    -0.893658  -0.971515  3.352741
C    -0.219379  -2.648781  1.664723
H    -1.813101  -1.194759  1.543969
H    -0.945907  -1.785015  3.891730
H    -0.873104  -3.425950  2.083067
H    0.786577  -2.776893  2.087272
H    -0.183445  -2.848086  0.583436
O    1.659358  -0.239158  3.132035
H    -0.947350  0.366942  -0.442900
Hg    3.890583  0.248451  3.082078
