18
Energy: -565325.237166 eV PBE+vdW (tier 2 basis)
N    0.853636  -0.901599  0.463457
C    -0.000064  -0.073052  1.412646
C    0.875113  0.429158  2.576549
O    0.518779  0.438199  3.743541
H    1.765245  -0.442272  0.300342
H    1.033248  -1.844856  0.843908
H    -0.296789  0.824509  0.845229
C    -1.287605  -0.815546  1.852064
O    -1.051724  -1.947846  2.658873
C    -2.097037  -1.388686  0.661700
H    -1.926129  -0.061101  2.340981
H    0.391166  -1.020357  -0.450899
H    -2.253935  -0.585420  -0.077521
H    -3.076623  -1.726074  1.013986
H    -1.599246  -2.245818  0.189138
O    2.038011  0.883738  2.126933
H    2.591997  1.250815  2.852674
Hg    -0.755042  -1.615793  4.696400
