18
Energy: -565325.153443 eV PBE+vdW (tier 2 basis)
N    0.972792  -0.888601  0.358272
C    0.002605  -0.443507  1.434448
C    0.908555  -0.092593  2.632913
O    2.110823  -0.149774  2.552629
H    0.918097  -1.894997  0.144508
H    1.931288  -0.696388  0.744987
H    -0.484395  0.477792  1.085593
C    -1.116280  -1.505131  1.706565
O    -2.297864  -0.928401  2.147980
C    -0.679857  -2.774866  2.428358
H    -1.492844  -1.812996  0.690818
H    0.853911  -0.371398  -0.524223
H    -0.407850  -2.533873  3.471887
H    0.194545  -3.256509  1.968259
H    -1.496161  -3.505624  2.433705
O    0.212228  0.289591  3.717598
H    0.848759  0.559057  4.419248
Hg    -2.589351  -0.469779  4.163458
