18
Energy: -565325.140226 eV PBE+vdW (tier 2 basis)
N    0.102657  1.376611  1.577199
C    0.391523  0.219946  2.436994
C    1.927165  0.077698  2.616181
O    2.713831  0.356064  1.696135
H    0.388740  2.277297  1.978374
H    -0.884199  1.429331  1.301392
H    -0.076330  0.361625  3.425542
C    -0.186297  -1.101050  1.818223
O    0.486464  -1.278998  0.537550
C    -1.698356  -1.121371  1.715180
H    0.161198  -1.928338  2.460571
H    -0.051500  -1.846288  -0.048790
H    -2.156067  -1.017333  2.708784
H    -2.032146  -2.089330  1.316046
H    -2.103885  -0.335231  1.060261
O    2.420451  -0.399146  3.721431
H    1.774111  -0.541005  4.444541
Hg    1.494640  0.826519  -0.220616
