18
Energy: -565325.298705 eV PBE+vdW (tier 2 basis)
N    0.731379  1.142684  1.778112
C    -0.317940  0.072356  2.033767
C    0.260729  -1.327089  1.818534
O    -0.433655  -2.332196  1.855126
H    1.599941  0.943802  2.301605
H    0.996873  1.202959  0.782406
H    -0.590560  0.157647  3.096505
C    -1.626247  0.334225  1.191406
O    -2.740662  -0.211234  1.830268
C    -1.515400  0.061035  -0.304042
H    -1.868387  1.419891  1.315112
H    0.395295  2.073982  2.071384
H    -2.452491  0.343617  -0.797523
H    -1.320848  -1.007204  -0.499639
H    -0.713750  0.639412  -0.786501
O    1.570753  -1.316525  1.610298
H    1.927289  -2.228655  1.509563
Hg    -3.005320  -2.275708  1.703619
