18
Energy: -565325.473367 eV PBE+vdW (tier 2 basis)
N    -0.566334  -1.161945  0.135499
C    -0.180718  -0.357739  1.302471
C    1.356574  -0.332720  1.424366
O    2.074829  -1.298540  1.122174
H    -0.247973  -0.777459  -0.761651
H    -1.576650  -1.335202  0.088155
H    -0.525129  0.683775  1.192882
C    -0.800273  -0.935425  2.620171
O    -0.243451  -2.277423  2.777092
C    -2.313915  -0.899847  2.658210
H    -0.383247  -0.335823  3.446749
H    -0.840118  -2.824668  3.324662
H    -2.675763  0.134248  2.573236
H    -2.673244  -1.280008  3.624648
H    -2.788370  -1.501535  1.867680
O    1.801250  0.786749  1.918327
H    2.778688  0.784049  2.051795
Hg    0.629845  -3.099487  0.634534
