24
Energy: -614516.0316278  eV PBE+vdW (tier 2 basis)
C    0.481717  -0.467274  0.017279
C    0.105218  -0.261645  1.442215
O    0.797368  0.547399  2.158285
H    0.428651  0.503044  -0.498709
H    -0.163799  -1.184665  -0.499518
H    1.526415  -0.801246  -0.043347
N    -0.957301  -0.901932  1.932264
C    -1.612736  -0.669109  3.230516
C    -0.833939  -1.373219  4.362860
O    0.211455  -0.812752  4.851638
H    -1.514044  -1.430258  1.257951
H    -1.547744  0.410058  3.452644
C    -3.096239  -1.045807  3.130983
S    -3.845623  -0.044099  1.789641
H    -3.584369  -0.834921  4.091070
H    -3.222492  -2.113546  2.891671
H    -4.994790  -0.755070  1.717180
N    -1.251686  -2.531039  4.823522
C    -0.618911  -3.320746  5.884876
H    -2.101449  -2.915398  4.412778
H    -0.201311  -4.240534  5.456075
H    -1.379120  -3.585604  6.628678
H    0.173460  -2.734992  6.354501
Pb    1.523273  0.899361  4.222951
