24
Energy: -614515.8292191  eV PBE+vdW (tier 2 basis)
C    0.527343  -0.636021  0.264069
C    0.126445  -0.107194  1.600330
O    0.985071  -0.151713  2.564578
H    1.382021  -0.042293  -0.094397
H    -0.275863  -0.590371  -0.478244
H    0.883281  -1.670373  0.358527
N    -1.090955  0.399765  1.732395
C    -1.769259  1.200219  2.752779
C    -1.473916  0.874240  4.203291
O    -1.097706  -0.298848  4.582602
H    -1.689335  0.396420  0.881125
H    -1.510342  2.254718  2.567123
C    -3.319720  1.032413  2.528378
S    -3.831280  1.072748  0.785672
H    -3.858058  1.793868  3.101431
H    -3.635610  0.046572  2.894954
H    -3.650342  2.402384  0.587001
N    -1.711422  1.789816  5.128598
C    -2.190113  3.171183  5.001491
H    -1.603403  1.447334  6.085188
H    -1.692320  3.777968  5.765146
H    -3.274168  3.215315  5.168182
H    -1.950866  3.585621  4.018288
Pb    0.917515  -1.268770  4.462494
