24
Energy: -614516.1882278  eV PBE+vdW (tier 2 basis)
C    -0.844210  -0.018710  -0.211280
C    -0.341009  -0.140253  1.184518
O    0.780054  -0.723458  1.395339
H    -1.818684  0.475992  -0.278185
H    -0.904451  -1.015709  -0.668217
H    -0.109886  0.553599  -0.797570
N    -1.053771  0.383649  2.185624
C    -0.634394  0.469579  3.588847
C    -0.817331  -0.899974  4.280513
O    0.165327  -1.735369  4.267392
H    -1.955853  0.795264  1.948903
H    0.452610  0.649630  3.587342
C    -1.257894  1.696128  4.290157
S    -3.071256  1.741214  4.524376
H    -0.930495  2.604242  3.768592
H    -0.846018  1.753224  5.306467
H    -3.423839  2.104209  3.267103
N    -1.958117  -1.189800  4.853209
C    -2.292993  -2.437795  5.541179
H    -2.679290  -0.444196  4.804924
H    -3.062791  -2.973237  4.970838
H    -2.694233  -2.195352  6.532129
H    -1.401637  -3.059871  5.644000
Pb    1.875164  -2.014006  2.858803
