24
Energy: -614515.8158875  eV PBE+vdW (tier 2 basis)
C    -0.276521  0.427774  -0.085975
C    -0.339346  0.116093  1.369932
O    0.707782  0.119201  2.078932
H    -1.251411  0.386382  -0.582955
H    0.405262  -0.286062  -0.569861
H    0.161448  1.425927  -0.223844
N    -1.539904  -0.186127  1.920823
C    -1.587250  -0.467087  3.342535
C    -2.722355  -1.280952  3.921079
O    -2.587854  -1.599183  5.187570
H    -2.373463  -0.047962  1.359183
H    -0.715267  -1.115604  3.524798
C    -1.371229  0.818966  4.220703
S    -0.140645  0.521611  5.546083
H    -2.298118  1.145283  4.711141
H    -1.058433  1.636198  3.564039
H    -1.760905  -1.222457  5.592732
N    -3.815566  -1.720923  3.355938
C    -4.314631  -1.563928  1.980648
H    -4.411084  -2.261636  3.990932
H    -5.265568  -2.099611  1.915843
H    -3.622691  -2.012518  1.259101
H    -4.513628  -0.508612  1.755112
Pb    1.982934  0.321268  4.058039
