24
Energy: -614515.8914702  eV PBE+vdW (tier 2 basis)
C    -0.073187  0.881329  0.336374
C    -0.279090  0.252536  1.672086
O    0.605417  0.440245  2.578779
H    -0.889663  0.691323  -0.367825
H    0.864604  0.492586  -0.088226
H    0.062306  1.964453  0.458793
N    -1.368826  -0.496443  1.867713
C    -1.735994  -1.394126  2.992713
C    -2.139746  -0.608731  4.247611
O    -1.266175  0.023588  4.951850
H    -1.985549  -0.561619  1.060482
H    -2.631182  -1.913575  2.634627
C    -0.702229  -2.493285  3.303536
S    -1.378791  -3.724023  4.467578
H    0.260844  -2.108869  3.661782
H    -0.490547  -3.039716  2.375216
H    -1.090139  -3.051930  5.606964
N    -3.395071  -0.585510  4.640894
C    -4.552929  -1.294170  4.073302
H    -3.561017  -0.046014  5.493078
H    -5.422473  -1.055310  4.691324
H    -4.387012  -2.378282  4.100855
H    -4.758334  -0.957915  3.050041
Pb    0.845784  0.709459  4.766456
