24
Energy: -614516.0624192  eV PBE+vdW (tier 2 basis)
C    -0.157932  -0.117602  -0.011043
C    -0.076837  -0.102132  1.475378
O    1.078941  -0.046224  2.030970
H    -1.187129  -0.117306  -0.383839
H    0.365993  -1.005134  -0.393518
H    0.376262  0.758940  -0.404225
N    -1.205600  -0.132283  2.183257
C    -1.358222  0.071813  3.627620
C    -0.834612  -1.145783  4.425141
O    0.397834  -1.186808  4.782010
H    -2.075376  0.054383  1.663465
H    -0.717645  0.915660  3.934793
C    -2.830763  0.449899  3.939443
S    -3.588419  1.602599  2.751350
H    -2.895938  0.834088  4.963807
H    -3.496869  -0.423257  3.874856
H    -2.830094  2.683232  3.061608
N    -1.655929  -2.115816  4.761549
C    -1.304603  -3.324244  5.514696
H    -2.630854  -2.022646  4.483179
H    -2.052216  -3.476559  6.301066
H    -0.315924  -3.203543  5.961486
H    -1.310746  -4.191916  4.842462
Pb    2.274325  -0.379740  3.865096
