24
Energy: -614515.8369546  eV PBE+vdW (tier 2 basis)
C    -0.062069  1.460176  0.581005
C    -0.224859  0.702714  1.855903
O    0.786245  0.623385  2.656331
H    0.787239  1.060700  0.011070
H    0.191401  2.500989  0.833541
H    -0.960530  1.453974  -0.044221
N    -1.405649  0.160404  2.115868
C    -2.030925  -0.447688  3.290439
C    -1.135932  -1.187759  4.269108
O    -0.097997  -1.851240  3.904533
H    -2.147669  0.294537  1.400480
H    -2.540514  0.364735  3.836443
C    -3.133071  -1.451390  2.788059
S    -4.202304  -0.714793  1.502125
H    -3.763980  -1.722856  3.642250
H    -2.666904  -2.364164  2.401227
H    -3.803989  -1.519209  0.489275
N    -1.557419  -1.227755  5.521020
C    -0.966237  -2.026946  6.597423
H    -2.378584  -0.673921  5.760853
H    -1.773220  -2.404831  7.233860
H    -0.298746  -1.406296  7.210201
H    -0.414707  -2.868519  6.170610
Pb    1.948423  -1.088247  3.407601
