24
Energy: -614515.8811539  eV PBE+vdW (tier 2 basis)
C    0.003480  0.057326  0.034013
C    -0.054606  -0.129747  1.511906
O    0.966714  -0.609825  2.109599
H    -0.921766  0.457431  -0.393187
H    0.231106  -0.910709  -0.435168
H    0.838694  0.728301  -0.211247
N    -1.181840  0.199068  2.154190
C    -1.553909  -0.002936  3.569705
C    -0.787725  0.942608  4.501472
O    0.436441  0.716447  4.821504
H    -1.930677  0.546929  1.560086
H    -2.613858  0.271047  3.611655
C    -1.483982  -1.471158  4.050750
S    -2.591053  -2.599562  3.169023
H    -1.818123  -1.501139  5.097418
H    -0.456719  -1.882524  4.040986
H    -1.913435  -2.617055  1.996365
N    -1.396437  1.978721  5.044794
C    -2.779564  2.444900  4.861397
H    -0.815856  2.514858  5.693424
H    -3.029728  2.533051  3.798412
H    -2.856520  3.439070  5.310373
H    -3.489279  1.779676  5.369077
Pb    2.012335  -0.687737  4.084326
