24
Energy: -614515.8367121  eV PBE+vdW (tier 2 basis)
C    0.054436  -0.001280  0.007398
C    0.004591  0.030349  1.494489
O    1.067312  0.311642  2.148519
H    0.340437  0.998360  -0.352378
H    -0.897398  -0.288486  -0.451272
H    0.843575  -0.692231  -0.318576
N    -1.152583  -0.216656  2.118725
C    -1.384898  -0.056891  3.556931
C    -0.779795  -1.242870  4.340066
O    0.398136  -1.083836  4.842451
H    -1.962273  -0.398698  1.528545
H    -0.789188  0.810448  3.879820
C    -2.850484  0.322471  3.856246
S    -3.216485  2.050270  3.405497
H    -3.014026  0.257544  4.940020
H    -3.570597  -0.353994  3.382083
H    -3.537504  1.823164  2.110305
N    -1.390566  -2.390404  4.552069
C    -2.704915  -2.868732  4.105883
H    -0.849777  -3.043350  5.123967
H    -2.672066  -3.962404  4.091196
H    -2.927370  -2.520643  3.093114
H    -3.492752  -2.550380  4.799445
Pb    2.137348  0.126291  4.105984
