24
Energy: -614516.0486087  eV PBE+vdW (tier 2 basis)
C    -0.055898  0.483860  0.117041
C    -0.021979  0.436223  1.605057
O    1.069544  0.719374  2.217257
H    0.169329  1.514841  -0.196945
H    -1.021059  0.186487  -0.305984
H    0.740272  -0.149966  -0.295132
N    -1.136518  0.126328  2.270895
C    -1.405805  0.270205  3.717809
C    -0.915691  -0.986424  4.466868
O    0.310274  -1.362827  4.314486
H    -1.948186  -0.096963  1.696148
H    -0.779508  1.101850  4.083539
C    -2.893916  0.683970  3.826538
S    -3.658596  0.805693  5.477328
H    -3.525236  -0.051327  3.303723
H    -3.008889  1.640725  3.300824
H    -2.801895  1.717272  6.000155
N    -1.728929  -1.640209  5.255464
C    -1.405430  -2.837624  6.031513
H    -2.625543  -1.157940  5.462319
H    -0.445429  -3.246437  5.711023
H    -2.198002  -3.578738  5.875703
H    -1.369281  -2.580978  7.098333
Pb    2.238372  -0.401396  3.745039
