24
Energy: -614516.2172958  eV PBE+vdW (tier 2 basis)
C    0.083004  0.305985  -0.109141
C    -0.005977  0.261066  1.376176
O    1.043403  0.508080  2.071679
H    0.870356  -0.379094  -0.451424
H    0.393892  1.318389  -0.407725
H    -0.861319  0.059488  -0.605194
N    -1.179270  -0.006711  1.949529
C    -1.508885  0.080715  3.381337
C    -1.024879  -1.177795  4.138193
O    0.217574  -1.264624  4.465799
H    -1.976681  -0.189885  1.333372
H    -0.925250  0.913375  3.806510
C    -2.990800  0.446706  3.546296
S    -4.065661  -0.756603  2.654675
H    -3.148614  1.450966  3.134028
H    -3.240540  0.471853  4.614142
H    -5.238115  -0.141489  2.936251
N    -1.876327  -2.123233  4.454031
C    -1.564234  -3.359860  5.173845
H    -2.851138  -1.991575  4.133559
H    -0.556256  -3.305184  5.589645
H    -1.639881  -4.211660  4.485599
H    -2.296088  -3.489904  5.979160
Pb    2.083687  -0.161005  3.921660
