24
Energy: -614516.0485530  eV PBE+vdW (tier 2 basis)
C    -1.276765  -0.203295  -0.456519
C    -0.875148  -0.519811  0.941891
O    0.085389  -1.344148  1.146390
H    -1.508037  -1.131433  -0.995813
H    -0.413228  0.250289  -0.966885
H    -2.128252  0.482155  -0.519748
N    -1.504901  0.084842  1.952248
C    -1.118429  0.094017  3.377016
C    -1.698191  -1.153069  4.077890
O    -1.317608  -2.321548  3.688961
H    -2.262380  0.716585  1.695508
H    -0.021246  -0.011982  3.422678
C    -1.506973  1.470651  3.939114
S    -1.030854  1.624408  5.706137
H    -2.588125  1.640263  3.819652
H    -0.973901  2.230179  3.352897
H    -1.533811  2.871917  5.859615
N    -2.560571  -1.013496  5.054553
C    -3.191586  -2.096006  5.811575
H    -2.677750  -0.057031  5.421886
H    -2.973573  -3.056702  5.341841
H    -4.274421  -1.925688  5.832066
H    -2.812020  -2.084291  6.841440
Pb    0.346380  -3.136809  2.441608
