24
Energy: -614515.4007182  eV PBE+vdW (tier 2 basis)
C    0.022378  -0.090224  -0.004876
C    0.007959  -0.020307  1.479856
O    1.114550  0.160783  2.108505
H    -0.865560  0.361251  -0.456596
H    0.088629  -1.141681  -0.332757
H    0.926604  0.412392  -0.367154
N    -1.117606  -0.133615  2.216426
C    -2.158846  -1.168512  2.069307
C    -1.483390  -2.535409  2.380998
O    -0.272193  -2.591797  2.828732
H    -0.988268  0.171569  3.181761
H    -2.860899  -0.969978  2.893287
C    -2.972890  -1.091661  0.753564
S    -4.482771  -2.119116  0.714873
H    -2.392168  -1.445157  -0.106402
H    -3.239915  -0.042868  0.575964
H    -5.163785  -1.455125  1.681948
N    -2.183664  -3.628266  2.214100
C    -1.712846  -4.989026  2.488125
H    -3.144423  -3.485216  1.836719
H    -2.521689  -5.682571  2.245135
H    -1.452252  -5.092518  3.548365
H    -0.835687  -5.224399  1.873701
Pb    1.646744  -1.583205  3.452871
