24
Energy: -614515.8448828  eV PBE+vdW (tier 2 basis)
C    0.082390  0.274266  0.028262
C    -0.041722  0.235893  1.510975
O    0.928990  0.653650  2.231603
H    0.233805  1.318468  -0.283348
H    -0.793193  -0.130965  -0.489420
H    0.980299  -0.279541  -0.277998
N    -1.173427  -0.216042  2.067390
C    -1.481253  -0.141993  3.504631
C    -0.710269  -1.233427  4.282475
O    0.386832  -0.893123  4.865624
H    -1.918359  -0.502394  1.434466
H    -1.044311  0.797732  3.873082
C    -2.986953  -0.032149  3.789416
S    -3.281766  0.228447  5.571416
H    -3.573347  -0.877211  3.414889
H    -3.361516  0.869258  3.285585
H    -3.410022  -1.074610  5.913181
N    -1.078607  -2.496630  4.349349
C    -2.237107  -3.182463  3.767842
H    -0.452207  -3.076731  4.911761
H    -3.113921  -3.100878  4.423103
H    -1.980126  -4.241279  3.665860
H    -2.470192  -2.792758  2.773117
Pb    1.924576  0.607946  4.245924
