24
Energy: -614515.3015393  eV PBE+vdW (tier 2 basis)
C    -2.794249  0.903197  -0.606067
C    -1.431390  1.073747  -0.044101
O    -0.927035  2.253961  0.065087
H    -3.548673  1.361862  0.050408
H    -3.053546  -0.138634  -0.813498
H    -2.831568  1.473864  -1.547572
N    -0.690118  0.026917  0.361282
C    -1.202493  -1.061437  1.186595
C    -1.638505  -0.444222  2.534939
O    -1.214061  0.722701  2.881937
H    0.318097  0.185160  0.428671
H    -2.068487  -1.522260  0.688338
C    -0.103769  -2.122815  1.401379
S    0.556050  -2.616555  -0.231064
H    -0.535401  -2.983542  1.925320
H    0.701662  -1.714862  2.028062
H    1.744620  -3.062712  0.238593
N    -2.424480  -1.104957  3.360202
C    -3.032463  -2.431798  3.208233
H    -2.615771  -0.623538  4.241748
H    -4.066602  -2.380898  3.565939
H    -2.484485  -3.167582  3.810514
H    -3.038403  -2.747809  2.161583
Pb    -0.358016  2.725356  2.200093
