24
Energy: -614515.2052061  eV PBE+vdW (tier 2 basis)
C    -0.643684  -2.171432  0.110522
C    -0.124161  -1.442474  1.293353
O    0.891706  -1.910715  1.935908
H    -0.830371  -1.475729  -0.718667
H    0.077174  -2.939600  -0.185953
H    -1.594576  -2.675946  0.348682
N    -0.659225  -0.288988  1.737047
C    -2.087136  -0.005730  1.936172
C    -2.589898  -0.996991  3.023586
O    -1.769982  -1.728177  3.692455
H    -0.048199  0.213973  2.380415
H    -2.109239  0.994935  2.394622
C    -2.975025  0.065484  0.666779
S    -2.243260  0.964037  -0.730885
H    -3.931988  0.534500  0.934754
H    -3.208776  -0.934090  0.280458
H    -2.254822  2.194230  -0.163225
N    -3.879956  -1.069344  3.274365
C    -4.492475  -1.925072  4.300085
H    -4.503290  -0.483109  2.722813
H    -5.560703  -1.698231  4.339615
H    -4.040302  -1.722913  5.277542
H    -4.356116  -2.982626  4.044156
Pb    0.362906  -2.452016  4.056795
