24
Energy: -614515.3422963  eV PBE+vdW (tier 2 basis)
C    -0.856363  2.170624  -0.245862
C    0.068933  1.493505  0.695351
O    1.309529  1.833440  0.736498
H    -1.052576  3.205289  0.075166
H    -1.798970  1.631821  -0.380001
H    -0.340659  2.250742  -1.214869
N    -0.347936  0.506389  1.511804
C    -1.546423  0.601357  2.338176
C    -1.219779  1.586668  3.494146
O    -0.033118  2.053952  3.664076
H    0.406135  -0.045442  1.925869
H    -2.357988  1.031081  1.734664
C    -1.986876  -0.801489  2.830276
S    -2.435353  -1.908928  1.461131
H    -2.886620  -0.702685  3.451092
H    -1.215119  -1.256504  3.466078
H    -1.216076  -2.473101  1.301684
N    -2.184788  1.919582  4.325950
C    -2.042184  2.814900  5.481728
H    -3.113905  1.541513  4.148998
H    -2.878268  2.631712  6.162078
H    -2.065993  3.862883  5.156364
H    -1.099022  2.609660  5.996643
Pb    2.028937  2.466289  2.784498
