24
Energy: -614515.8963723  eV PBE+vdW (tier 2 basis)
C    0.482170  1.401513  0.593668
C    0.314552  0.623328  1.855380
O    1.229801  -0.229273  2.179690
H    1.400421  2.001766  0.683295
H    -0.360085  2.067416  0.380573
H    0.635975  0.719044  -0.252538
N    -0.759235  0.856611  2.595885
C    -1.193703  0.475331  3.940260
C    -0.722199  -0.862826  4.482600
O    -0.562166  -1.899958  3.741807
H    -1.435408  1.556229  2.229373
H    -0.850386  1.266969  4.627693
C    -2.767364  0.478516  3.948699
S    -3.506568  1.905426  3.101587
H    -3.123857  0.415536  4.982864
H    -3.138109  -0.402048  3.407147
H    -3.214151  2.832029  4.048025
N    -0.613244  -0.949255  5.797030
C    -0.355747  -2.176584  6.554713
H    -0.739353  -0.095360  6.338447
H    0.710671  -2.252458  6.806347
H    -0.668747  -3.043961  5.967946
H    -0.931775  -2.138673  7.485156
Pb    1.164505  -2.418323  2.412351
