24
Energy: -614515.4893724  eV PBE+vdW (tier 2 basis)
C    0.049270  1.428031  0.130017
C    -0.377983  0.679439  1.342990
O    0.055765  1.084224  2.502038
H    -0.233122  2.485280  0.227498
H    -0.380185  1.017249  -0.788912
H    1.146761  1.395225  0.063001
N    -1.154487  -0.370644  1.222908
C    -1.638717  -1.322151  2.212755
C    -2.274832  -2.443375  1.286352
O    -2.382327  -2.181955  0.088195
H    -1.490258  -0.711458  0.283992
H    -0.790958  -1.761249  2.763646
C    -2.692728  -0.729482  3.174975
S    -1.984512  -0.442465  4.861972
H    -3.511159  -1.439530  3.348797
H    -3.118441  0.197536  2.777523
H    -3.031593  0.219969  5.423983
N    -2.657256  -3.575141  1.884424
C    -3.258122  -4.698550  1.154175
H    -2.420016  -3.728091  2.860063
H    -4.074759  -5.120236  1.749169
H    -2.507293  -5.474685  0.960542
H    -3.648040  -4.329269  0.202227
Pb    -0.059711  1.637722  4.580605
