24
Energy: -614515.3989055  eV PBE+vdW (tier 2 basis)
C    0.280946  -0.335282  0.040435
C    0.143626  -0.573104  1.502716
O    1.065303  -1.269862  2.103964
H    1.240502  0.158083  -0.166831
H    -0.536729  0.269298  -0.363947
H    0.302732  -1.306545  -0.475422
N    -0.895910  -0.101156  2.147738
C    -1.307227  -0.261620  3.535507
C    -2.762713  0.360623  3.505732
O    -3.089381  0.955836  2.477741
H    -1.653273  0.451229  1.665947
H    -1.378737  -1.332092  3.785197
C    -0.398612  0.493464  4.533708
S    0.645299  -0.682492  5.508190
H    -0.987687  1.021500  5.293204
H    0.231151  1.225524  4.018282
H    1.430880  0.218246  6.158412
N    -3.548073  0.214210  4.580087
C    -3.306253  -0.527466  5.813637
H    -4.454860  0.670370  4.482483
H    -4.249231  -0.974151  6.146394
H    -2.935213  0.123939  6.617910
H    -2.600439  -1.350636  5.652276
Pb    2.487098  -1.791537  3.635260
