24
Energy: -614515.1397840  eV PBE+vdW (tier 2 basis)
C    -0.123789  0.468030  0.056359
C    -0.081931  0.011455  1.464302
O    1.057889  -0.047275  2.068735
H    -1.092931  0.909676  -0.207624
H    0.100339  -0.368211  -0.626272
H    0.685903  1.197527  -0.080844
N    -1.175976  -0.308836  2.189658
C    -2.263903  -1.235027  1.828179
C    -1.696758  -2.665007  2.016940
O    -0.426074  -2.861799  2.108999
H    -0.979775  -0.318516  3.191990
H    -3.050294  -1.074353  2.582311
C    -2.897786  -1.025852  0.446014
S    -3.631759  0.651745  0.397697
H    -3.692025  -1.768747  0.315474
H    -2.168310  -1.180694  -0.358985
H    -4.297056  0.464328  -0.766438
N    -2.502421  -3.704804  2.096516
C    -3.968807  -3.759365  2.083058
H    -2.023168  -4.603505  2.185389
H    -4.286778  -4.513418  2.811317
H    -4.329537  -4.056350  1.089672
H    -4.404830  -2.796784  2.364947
Pb    1.636768  -2.111626  2.730620
