24
Energy: -614515.2127624  eV PBE+vdW (tier 2 basis)
C    0.058339  -0.170333  0.067158
C    0.002715  -0.065814  1.543721
O    1.085097  0.125121  2.214514
H    -0.799294  0.339289  -0.394511
H    0.037145  -1.229237  -0.242732
H    1.005736  0.251105  -0.285545
N    -1.153374  -0.149504  2.238651
C    -2.197743  -1.175466  2.074845
C    -1.549449  -2.538884  2.443149
O    -0.396296  -2.595726  3.006413
H    -1.077742  0.205852  3.191781
H    -2.933053  -0.950832  2.864085
C    -2.952534  -1.159969  0.736266
S    -3.464744  0.563537  0.398238
H    -3.853894  -1.780570  0.835838
H    -2.342918  -1.568502  -0.079816
H    -4.262025  0.253424  -0.651348
N    -2.215362  -3.647855  2.204702
C    -1.752731  -4.998401  2.553406
H    -3.128174  -3.565480  1.761310
H    -2.529541  -5.710324  2.264085
H    -1.577153  -5.069221  3.633125
H    -0.827019  -5.232930  2.014977
Pb    1.494961  -1.519339  3.701920
