24
Energy: -614515.4929274  eV PBE+vdW (tier 2 basis)
C    1.201762  0.684796  1.252358
C    0.163284  -0.328444  1.621015
O    0.366177  -1.343910  2.264319
H    1.446602  1.274781  2.147933
H    0.885810  1.368532  0.456341
H    2.119154  0.164483  0.954533
N    -1.157896  -0.070205  1.159816
C    -2.188032  -0.929152  1.688959
C    -2.931330  -1.698645  0.607732
O    -3.997646  -2.387950  0.879978
H    -1.390116  0.872085  0.852421
H    -1.567641  -1.687723  2.236855
C    -3.123343  -0.211685  2.687366
S    -3.604637  -1.357333  4.066076
H    -4.022650  0.210971  2.224913
H    -2.563620  0.588496  3.185589
H    -4.605817  -0.620756  4.622174
N    -2.442134  -1.692771  -0.606948
C    -2.938545  -2.428062  -1.768470
H    -1.601694  -1.116149  -0.712722
H    -2.161929  -3.123023  -2.111627
H    -3.160436  -1.718341  -2.574605
H    -3.841930  -2.979644  -1.501532
Pb    -5.148416  -3.165410  2.577762
