24
Energy: -614516.0423774  eV PBE+vdW (tier 2 basis)
C    -0.145886  -0.108884  -0.029693
C    -0.127724  0.007999  1.454342
O    0.969372  0.312379  2.042282
H    0.151611  0.859951  -0.458260
H    -1.124809  -0.392061  -0.430124
H    0.608956  -0.839715  -0.349993
N    -1.258606  -0.180084  2.141566
C    -1.461079  0.083459  3.580635
C    -0.940362  -1.113688  4.404908
O    0.314733  -1.187339  4.671742
H    -2.087433  -0.415736  1.597320
H    -0.813050  0.930670  3.850595
C    -2.911420  0.509048  3.857021
S    -3.183916  0.947681  5.607656
H    -3.629974  -0.288511  3.609475
H    -3.167887  1.357839  3.210980
H    -2.781465  2.235648  5.502351
N    -1.761380  -2.061803  4.793518
C    -1.403320  -3.253157  5.569461
H    -2.753136  -1.927887  4.604602
H    -1.860188  -4.132251  5.101346
H    -1.789738  -3.147638  6.591516
H    -0.317835  -3.362918  5.594937
Pb    2.126274  -0.124101  3.901214
