24
Energy: -614515.5424574  eV PBE+vdW (tier 2 basis)
C    0.054152  0.617173  0.201353
C    -0.161689  0.270125  1.628158
O    0.722618  0.588245  2.504267
H    0.028080  1.707736  0.057489
H    -0.650357  0.129736  -0.478207
H    1.077784  0.305098  -0.058297
N    -1.260046  -0.391968  2.043015
C    -2.621554  -0.025453  1.644104
C    -3.012892  1.216202  2.501320
O    -2.148509  1.779607  3.281074
H    -1.184834  -0.770386  2.989281
H    -2.591129  0.297927  0.593670
C    -3.562510  -1.248405  1.767264
S    -5.267111  -1.010970  1.160970
H    -3.676249  -1.543985  2.820105
H    -3.098575  -2.089396  1.237751
H    -4.964982  -0.969097  -0.160384
N    -4.234279  1.673904  2.387025
C    -4.808345  2.831570  3.072124
H    -4.865148  1.086080  1.800570
H    -5.159101  3.552053  2.322900
H    -4.061873  3.298025  3.717355
H    -5.666220  2.502816  3.671548
Pb    -0.071099  1.935400  4.145648
