24
Energy: -614516.7573726  eV PBE+vdW (tier 2 basis)
C    0.583000  0.441083  0.168230
C    -0.480060  0.035594  1.133909
O    -0.186982  -0.735343  2.096049
H    0.222050  1.082030  -0.642617
H    1.028735  -0.467705  -0.261033
H    1.385434  0.957182  0.713199
N    -1.729242  0.487931  0.924115
C    -2.987248  0.160300  1.624687
C    -3.102573  0.909737  2.963417
O    -2.284490  0.706680  3.913479
H    -1.836842  1.108960  0.125942
H    -3.758448  0.569232  0.956885
C    -3.332224  -1.352939  1.673162
S    -2.815911  -2.469616  3.045265
H    -2.919912  -1.833333  0.776671
H    -4.421718  -1.469011  1.622457
H    -3.788110  -2.145554  3.936685
N    -4.089388  1.783694  3.084490
C    -4.365415  2.593357  4.275432
H    -4.693456  1.938124  2.279912
H    -5.426653  2.501037  4.532604
H    -4.137264  3.645663  4.064108
H    -3.746643  2.243586  5.104180
Pb    -0.749637  -0.966686  4.289772
