24
Energy: -614515.7727774  eV PBE+vdW (tier 2 basis)
C    0.620979  1.407910  1.734948
C    0.013981  0.072418  2.006979
O    0.786981  -0.887086  2.394717
H    1.084466  1.767189  2.666305
H    -0.104452  2.150599  1.388011
H    1.430750  1.311764  0.999595
N    -1.295308  -0.063261  1.851780
C    -2.280590  -1.074360  2.237459
C    -1.872643  -2.529660  2.122821
O    -0.967399  -2.928492  1.296154
H    -1.818552  0.790788  1.570804
H    -2.561624  -0.869013  3.283126
C    -3.556924  -0.862960  1.341660
S    -4.060106  0.892977  1.258936
H    -4.385506  -1.433773  1.773074
H    -3.371665  -1.238998  0.329531
H    -3.839912  1.053570  -0.066742
N    -2.535348  -3.438602  2.819240
C    -3.629116  -3.290014  3.786831
H    -2.277313  -4.400811  2.591760
H    -3.636716  -2.289922  4.228707
H    -3.481451  -4.023601  4.586513
H    -4.593998  -3.486840  3.301881
Pb    1.264464  -2.816827  1.447911
