24
Energy: -614515.4218501  eV PBE+vdW (tier 2 basis)
C    0.918975  0.904063  0.443290
C    0.214306  -0.234457  1.091127
O    0.611217  -1.440203  0.805641
H    0.519832  1.874993  0.752693
H    0.822902  0.802065  -0.647979
H    1.992335  0.855771  0.672711
N    -0.795782  -0.004375  1.899970
C    -1.751172  -0.920622  2.509602
C    -3.018996  0.020630  2.684157
O    -2.815508  1.231677  2.592853
H    -1.179176  0.966470  2.022262
H    -1.970413  -1.760830  1.835860
C    -1.324920  -1.393349  3.907009
S    -0.013839  -2.701890  4.058336
H    -2.173152  -1.796834  4.471998
H    -0.913677  -0.552762  4.481105
H    -0.814934  -3.796110  4.143925
N    -4.211761  -0.531656  2.939468
C    -4.593092  -1.937019  3.028404
H    -4.952914  0.157159  3.070443
H    -3.892916  -2.573195  2.475163
H    -5.579645  -2.067564  2.570370
H    -4.653181  -2.275708  4.072620
Pb    1.069730  -3.422796  1.526648
