24
Energy: -614515.9961028  eV PBE+vdW (tier 2 basis)
C    -0.379424  -0.929593  0.152942
C    -0.104002  -0.299504  1.474151
O    1.082717  -0.372276  1.951623
H    -0.209743  -2.012990  0.248045
H    0.340241  -0.559837  -0.589197
H    -1.399924  -0.761032  -0.205786
N    -1.107618  0.298281  2.119970
C    -1.183146  0.802724  3.508294
C    -0.389966  2.102280  3.700290
O    0.892832  2.118470  3.714910
H    -2.004429  0.250624  1.642082
H    -2.245081  1.045884  3.642670
C    -0.842196  -0.259464  4.583526
S    -1.772181  -1.810778  4.379512
H    -1.020127  0.170209  5.577061
H    0.217965  -0.550327  4.551041
H    -2.836866  -1.450214  5.134211
N    -1.068699  3.211281  3.921511
C    -0.495620  4.534032  4.188635
H    -2.085261  3.153294  3.897625
H    0.564935  4.432667  4.427462
H    -1.028032  4.983425  5.034207
H    -0.619225  5.174481  3.305823
Pb    2.549848  0.703357  3.216391
