24
Energy: -614515.2655836  eV PBE+vdW (tier 2 basis)
C    0.307967  0.412336  0.170418
C    0.037454  0.140416  1.603318
O    1.009638  0.054443  2.435762
H    0.835168  1.368992  0.046102
H    -0.587129  0.378389  -0.456397
H    1.011412  -0.362080  -0.177975
N    -1.220064  -0.030214  2.066288
C    -2.323845  0.903857  1.785592
C    -1.851566  2.295756  2.249246
O    -1.012223  2.379539  3.233549
H    -1.268625  -0.451882  2.996423
H    -2.549995  0.906272  0.712738
C    -3.564390  0.401804  2.578173
S    -5.070057  1.400322  2.455405
H    -3.319118  0.381939  3.651062
H    -3.762131  -0.631597  2.264711
H    -5.494720  0.895405  1.272311
N    -2.278973  3.409889  1.698375
C    -3.177833  3.635925  0.561349
H    -1.915106  4.257649  2.141097
H    -2.679095  4.316091  -0.139717
H    -4.106865  4.094477  0.918019
H    -3.422419  2.698936  0.058198
Pb    0.841506  1.502026  4.183267
