24
Energy: -614515.9439017  eV PBE+vdW (tier 2 basis)
C    -0.163143  0.881930  0.292130
C    -0.388430  0.329687  1.658476
O    0.472328  0.584091  2.570195
H    -0.048479  1.972617  0.354081
H    -0.961102  0.637532  -0.416495
H    0.789841  0.486022  -0.089433
N    -1.473311  -0.423327  1.874530
C    -1.850523  -1.242708  3.053613
C    -2.270862  -0.369315  4.248501
O    -1.403806  0.289805  4.934435
H    -2.070285  -0.548008  1.059679
H    -2.742039  -1.788384  2.725260
C    -0.808082  -2.300865  3.454649
S    -1.343058  -3.200758  4.949669
H    0.170237  -1.863634  3.691322
H    -0.637159  -2.989248  2.618820
H    -2.128960  -4.102803  4.315235
N    -3.539923  -0.259385  4.580760
C    -4.701617  -0.971545  4.031945
H    -3.711659  0.338249  5.391732
H    -4.802928  -0.797675  2.954572
H    -5.595665  -0.578262  4.523179
H    -4.628130  -2.045667  4.245287
Pb    0.707758  0.947649  4.752860
