24
Energy: -614516.6802614  eV PBE+vdW (tier 2 basis)
C    -1.185314  -0.419022  0.009707
C    -0.882101  -0.339895  1.470174
O    0.320696  -0.369304  1.857822
H    -2.255879  -0.414506  -0.220064
H    -0.725605  -1.325807  -0.405782
H    -0.705418  0.433202  -0.492956
N    -1.922496  -0.221266  2.321620
C    -1.906772  -0.041318  3.782977
C    -0.913564  1.038016  4.252466
O    0.249572  0.738580  4.678599
H    -2.843222  -0.211355  1.889705
H    -2.906835  0.353971  4.016582
C    -1.840748  -1.344293  4.605937
S    -0.442988  -2.523644  4.437083
H    -2.742033  -1.939948  4.411130
H    -1.849519  -1.095224  5.675988
H    -0.718409  -2.973526  3.185869
N    -1.309756  2.299613  4.278443
C    -2.615357  2.863837  3.911999
H    -0.608576  2.950258  4.638049
H    -3.395856  2.549013  4.617320
H    -2.891034  2.591050  2.886920
H    -2.534373  3.953178  3.961840
Pb    1.667586  -0.750609  3.685573
