24
Energy: -614516.6497523  eV PBE+vdW (tier 2 basis)
C    -0.026403  1.138624  2.314660
C    -0.226755  -0.292162  1.940361
O    0.685931  -1.134633  2.179213
H    0.861841  1.522388  1.793848
H    0.191880  1.193896  3.390470
H    -0.884985  1.778437  2.086082
N    -1.398820  -0.636800  1.366295
C    -1.853633  -1.977839  0.962133
C    -1.610452  -3.046550  2.045237
O    -0.619710  -3.846196  1.984067
H    -2.057493  0.121972  1.208730
H    -2.946478  -1.882960  0.878343
C    -1.418340  -2.427757  -0.447866
S    0.373026  -2.227115  -0.868173
H    -1.948417  -1.821425  -1.192735
H    -1.698300  -3.477004  -0.596101
H    0.476553  -3.317753  -1.669724
N    -2.495632  -3.178018  3.018734
C    -3.740738  -2.430286  3.236833
H    -2.285333  -3.930704  3.677018
H    -4.158985  -2.749009  4.195508
H    -4.478455  -2.651821  2.454143
H    -3.550677  -1.352288  3.290759
Pb    1.525380  -3.189002  1.553163
