24
Energy: -614514.5680575  eV PBE+vdW (tier 2 basis)
C    0.036112  -1.045064  0.913356
C    -1.058373  -1.342072  1.872677
O    -1.281223  -2.608771  2.175694
H    0.941643  -1.587718  1.215320
H    0.260099  0.022848  0.841608
H    -0.251161  -1.402870  -0.086444
N    -1.820695  -0.458236  2.450849
C    -1.809930  1.009049  2.443236
C    -2.361544  1.313509  3.882035
O    -2.943776  0.387213  4.465874
H    -2.479986  -0.724057  3.237078
H    -0.788484  1.389388  2.308066
C    -2.778093  1.606484  1.405266
S    -2.258127  1.214790  -0.303409
H    -2.795202  2.696813  1.531099
H    -3.791978  1.224866  1.585990
H    -3.257334  1.892812  -0.916345
N    -2.192751  2.550544  4.349467
C    -2.693210  3.004535  5.648936
H    -1.670958  3.218174  3.788589
H    -3.358792  3.864591  5.509920
H    -1.854622  3.296731  6.292123
H    -3.245679  2.185632  6.115851
Pb    -1.567503  -4.670766  2.501107
