24
Energy: -614515.5355442  eV PBE+vdW (tier 2 basis)
C    -0.132050  -1.151129  0.388729
C    -0.352539  -0.726739  1.796347
O    -0.361469  -1.641781  2.719491
H    0.811683  -1.707926  0.310936
H    -0.121092  -0.306358  -0.307099
H    -0.934856  -1.847316  0.102686
N    -0.562527  0.544133  2.075468
C    -1.008757  1.155305  3.320642
C    -1.855983  2.391366  2.792355
O    -1.653406  2.738572  1.630520
H    -0.694002  1.246927  1.310259
H    -1.637768  0.452662  3.888660
C    0.133724  1.715675  4.174585
S    1.450517  0.486828  4.674827
H    -0.248344  2.164375  5.097653
H    0.692499  2.479130  3.617284
H    1.483665  0.740453  6.008831
N    -2.679302  2.979935  3.665994
C    -3.501363  4.146183  3.320894
H    -2.837454  2.547185  4.570736
H    -3.525140  4.833272  4.172973
H    -4.524226  3.835567  3.073184
H    -3.057337  4.645110  2.455508
Pb    0.316542  -2.104860  4.730722
