24
Energy: -614516.1009226  eV PBE+vdW (tier 2 basis)
C    -0.690071  1.316377  0.943134
C    -0.313064  0.787174  2.282464
O    0.929934  0.774208  2.617436
H    -0.141995  0.772148  0.162383
H    -0.366625  2.366432  0.881734
H    -1.765875  1.260352  0.748680
N    -1.269089  0.368328  3.104412
C    -1.163167  0.000509  4.516608
C    -0.683699  -1.457709  4.652871
O    0.540262  -1.735367  4.384505
H    -2.256246  0.401490  2.790506
H    -0.362492  0.605452  4.974249
C    -2.492215  0.380815  5.227162
S    -4.027784  0.211762  4.251307
H    -2.455352  1.456874  5.442111
H    -2.572120  -0.113535  6.203275
H    -4.165772  -1.136351  4.292607
N    -1.509362  -2.399936  5.051437
C    -1.185820  -3.820076  5.223344
H    -2.463736  -2.120271  5.268409
H    -1.503286  -4.137430  6.223254
H    -0.110168  -3.966051  5.109257
H    -1.723601  -4.410765  4.470973
Pb    2.333339  -0.585428  3.653880
