24
Energy: -614515.3467857  eV PBE+vdW (tier 2 basis)
C    0.907833  -0.650262  1.485445
C    0.192387  0.598887  1.843871
O    0.862021  1.669915  2.097979
H    1.453599  -0.532676  0.537712
H    0.258761  -1.529348  1.446076
H    1.678696  -0.813095  2.255835
N    -1.149636  0.654966  1.927203
C    -2.050587  0.109017  0.918479
C    -1.862603  0.953382  -0.371193
O    -1.214036  2.061664  -0.346592
H    -1.527379  1.437817  2.465370
H    -1.767823  -0.934693  0.710769
C    -3.506484  0.156104  1.417909
S    -3.583493  -0.702526  3.029099
H    -4.154712  -0.337794  0.682287
H    -3.844731  1.197354  1.519689
H    -4.764639  -0.161227  3.409585
N    -2.407512  0.507747  -1.484196
C    -2.383877  1.166384  -2.794594
H    -2.899744  -0.384033  -1.437757
H    -1.797925  0.561300  -3.497538
H    -1.941463  2.159226  -2.697445
H    -3.411075  1.253213  -3.167470
Pb    0.266518  3.397335  0.773554
