24
Energy: -614515.8962557  eV PBE+vdW (tier 2 basis)
C    0.295939  0.838435  0.344983
C    -0.086929  -0.089946  1.443236
O    0.838739  -0.657214  2.130602
H    0.936855  0.309703  -0.373963
H    0.900925  1.653794  0.767622
H    -0.569126  1.261605  -0.175290
N    -1.376748  -0.300056  1.698336
C    -1.916374  -1.041464  2.827961
C    -1.697447  -2.557685  2.642844
O    -0.707606  -3.094910  3.269971
H    -2.106189  0.245971  1.195389
H    -1.304073  -0.806324  3.711572
C    -3.376843  -0.557104  3.171933
S    -4.174929  0.576055  1.986782
H    -3.309534  0.025033  4.097654
H    -4.034033  -1.404020  3.390435
H    -4.852411  -0.344820  1.262704
N    -2.449062  -3.334520  1.889763
C    -3.604713  -3.006304  1.051572
H    -2.166760  -4.317145  1.900697
H    -3.651982  -3.742229  0.242806
H    -3.491813  -2.012970  0.607504
H    -4.536542  -3.064935  1.628976
Pb    1.376654  -2.299949  3.536910
