24
Energy: -614515.1497112  eV PBE+vdW (tier 2 basis)
C    -0.067007  -0.323432  -0.072165
C    0.014807  -0.083927  1.393462
O    1.161497  0.120773  1.937448
H    -0.931489  0.171642  -0.526759
H    -0.144872  -1.404860  -0.277132
H    0.858140  0.028955  -0.540915
N    -1.069382  -0.091781  2.193360
C    -2.144417  -1.095970  2.154583
C    -1.461743  -2.484301  2.318254
O    -0.272805  -2.576258  2.802955
H    -0.909263  0.323365  3.110998
H    -2.709176  -0.929773  3.085419
C    -3.165737  -0.953756  1.003396
S    -4.014217  0.654652  0.997459
H    -3.987127  -1.665137  1.172267
H    -2.734188  -1.189933  0.023984
H    -2.997298  1.373381  0.465791
N    -2.139593  -3.564145  1.994685
C    -1.704049  -4.954763  2.159405
H    -3.071773  -3.426455  1.607173
H    -1.609035  -5.426582  1.173626
H    -2.459142  -5.495405  2.742362
H    -0.745593  -4.981023  2.680172
Pb    1.664488  -1.537555  3.396948
