24
Energy: -614516.0063827  eV PBE+vdW (tier 2 basis)
C    -2.104336  -0.036051  -0.355647
C    -1.475844  -0.416406  0.938944
O    -0.500758  -1.247436  0.938379
H    -1.334977  0.424421  -0.993551
H    -2.940372  0.661873  -0.242429
H    -2.446481  -0.939998  -0.877547
N    -1.921374  0.134260  2.073010
C    -1.287216  0.014229  3.400702
C    -1.708982  -1.318242  4.052410
O    -1.060821  -2.388308  3.765185
H    -2.695161  0.791912  1.987528
H    -0.202085  -0.066805  3.238805
C    -1.511085  1.281994  4.239942
S    -0.444849  1.331217  5.717493
H    -2.567044  1.454892  4.497362
H    -1.201452  2.145841  3.635401
H    -1.248069  0.617736  6.540306
N    -2.741644  -1.355483  4.864875
C    -3.282489  -2.547199  5.526847
H    -3.201733  -0.470472  5.071848
H    -4.303386  -2.730540  5.169428
H    -3.308166  -2.373676  6.609139
H    -2.648558  -3.407422  5.304611
Pb    0.418877  -2.881334  2.150956
