24
Energy: -614515.4928282  eV PBE+vdW (tier 2 basis)
C    0.061488  0.391113  0.131358
C    -0.161664  0.293250  1.595008
O    0.686479  0.812596  2.408550
H    0.024253  1.438544  -0.202134
H    -0.626167  -0.221172  -0.458633
H    1.092397  0.052715  -0.060416
N    -1.227428  -0.351450  2.111734
C    -2.598432  -0.134463  1.647014
C    -3.087083  1.181893  2.319824
O    -2.273745  1.927488  2.993342
H    -1.146334  -0.556935  3.109400
H    -2.557633  0.048952  0.562120
C    -3.474252  -1.377138  1.914805
S    -5.042523  -1.292737  0.959643
H    -3.699580  -1.478055  2.983725
H    -2.907182  -2.259588  1.593683
H    -5.841250  -1.795616  1.929428
N    -4.341416  1.524585  2.170600
C    -4.960738  2.737912  2.711134
H    -4.931847  0.826213  1.670234
H    -5.995474  2.774982  2.361487
H    -4.425872  3.626201  2.355695
H    -4.947467  2.720757  3.807981
Pb    -0.208513  2.368579  3.793512
