24
Energy: -614515.9013509  eV PBE+vdW (tier 2 basis)
C    -0.759778  -2.201026  0.263612
C    -0.728499  -1.513866  1.584887
O    -0.460690  -2.205582  2.628925
H    -1.574821  -2.940807  0.283294
H    0.172990  -2.760505  0.115398
H    -0.921018  -1.520172  -0.578417
N    -1.003830  -0.207846  1.632601
C    -1.282775  0.669436  2.788735
C    -0.019139  1.009829  3.581137
O    0.594493  0.125529  4.285726
H    -1.236188  0.203912  0.732001
H    -1.648083  1.596167  2.333456
C    -2.420612  0.161821  3.714260
S    -3.932413  -0.288957  2.810170
H    -2.634047  0.930009  4.467863
H    -2.127759  -0.744030  4.263319
H    -4.494657  0.942629  2.823981
N    0.429353  2.250084  3.615524
C    -0.078643  3.444376  2.923619
H    1.238821  2.386636  4.224660
H    -0.214729  3.253231  1.853373
H    0.669138  4.234613  3.033994
H    -1.017219  3.790289  3.374397
Pb    0.544105  -2.082768  4.601485
