30
Energy: -244756.1286869  eV PBE+vdW (tier 2 basis)
C    0.009745  -0.231237  -0.014568
C    -0.189537  -0.371059  1.459110
O    0.444405  -1.255514  2.118802
H    -0.297397  -1.160559  -0.513842
H    1.080974  -0.097757  -0.217104
H    -0.546734  0.606886  -0.446223
N    -1.049858  0.457363  2.059759
C    -1.229464  0.624282  3.506661
C    -1.928683  -0.597709  4.138140
O    -1.223068  -1.558385  4.577918
H    -1.371104  1.270933  1.513554
H    -0.233666  0.655084  3.976746
C    -1.943313  1.992939  3.760181
C    -1.405986  3.084090  2.902948
N    -0.252198  3.803470  3.153660
C    -1.814646  3.505575  1.645818
C    -0.040195  4.621917  2.073664
N    -0.958443  4.451984  1.144960
H    -1.878138  2.219028  4.833224
H    -3.015295  1.915188  3.523147
H    0.271041  3.825894  4.023046
H    -2.715785  3.216925  1.107609
H    0.788420  5.322218  2.029658
N    -3.248794  -0.614547  4.218227
C    -4.045272  -1.697342  4.797068
H    -3.754908  0.186597  3.850637
H    -4.366596  -2.398801  4.015762
H    -4.931328  -1.266270  5.273460
H    -3.450309  -2.226881  5.545834
Ba    0.754133  -2.828312  3.907143
