30
Energy: -244756.0748211  eV PBE+vdW (tier 2 basis)
C    0.048767  -0.152797  0.180152
C    -0.017477  -0.054674  1.676069
O    1.060536  -0.164392  2.363127
H    0.433793  -1.145492  -0.091563
H    0.751870  0.592200  -0.216370
H    -0.922830  -0.009659  -0.302787
N    -1.209742  0.144739  2.213914
C    -1.683733  0.091383  3.595304
C    -3.173876  -0.356685  3.414100
O    -3.676849  -0.214616  2.296864
H    -2.054618  0.142990  1.602267
H    -1.098833  -0.646823  4.160149
C    -1.648784  1.480610  4.307734
C    -0.265771  1.858733  4.707129
N    0.312131  1.479613  5.903237
C    0.769104  2.406811  3.983488
C    1.637746  1.766075  5.864673
N    1.959341  2.317358  4.691387
H    -2.309891  1.452476  5.184337
H    -2.068495  2.233266  3.627704
H    -0.182945  1.112541  6.712238
H    0.714064  2.869718  3.002053
H    2.309423  1.607316  6.702503
N    -3.844666  -0.839761  4.473796
C    -3.374098  -1.090542  5.829087
H    -4.820498  -1.051013  4.271296
H    -3.567359  -0.238146  6.497322
H    -2.303765  -1.327315  5.836539
H    -3.900415  -1.962510  6.231749
Ba    3.213872  0.669596  3.019497
