30
Energy: -244756.9000307  eV PBE+vdW (tier 2 basis)
C    2.010858  0.707434  1.214173
C    0.867431  0.271675  2.082161
O    1.081365  -0.163086  3.240191
H    2.540787  1.527673  1.717748
H    2.724086  -0.121853  1.119765
H    1.712495  1.038740  0.214170
N    -0.370090  0.384810  1.549938
C    -1.721957  0.111220  2.087868
C    -1.910026  0.569788  3.552850
O    -1.514253  -0.106707  4.535971
H    -0.382587  0.751732  0.602301
H    -2.366980  0.757119  1.476579
C    -2.237898  -1.333273  1.800301
C    -1.734421  -2.412606  2.698303
N    -2.511418  -3.010879  3.666934
C    -0.472879  -2.944934  2.889217
C    -1.718368  -3.825351  4.419698
N    -0.461120  -3.790390  3.987387
H    -1.982093  -1.563594  0.756099
H    -3.336159  -1.299819  1.838210
H    -3.514433  -2.892102  3.784478
H    0.414190  -2.796654  2.280526
H    -2.095652  -4.434932  5.235259
N    -2.567271  1.718395  3.710856
C    -2.872679  2.321557  5.008101
H    -2.857515  2.227823  2.881371
H    -2.048907  2.967841  5.338936
H    -3.035141  1.532867  5.748276
H    -3.780782  2.923951  4.911367
Ba    0.507415  -1.454448  5.268963
