30
Energy: -244756.1803754  eV PBE+vdW (tier 2 basis)
C    0.537060  -0.633862  1.160412
C    -0.137337  -0.633165  2.498534
O    -0.029860  -1.657179  3.261785
H    0.115429  -1.446263  0.552156
H    1.608463  -0.840343  1.282424
H    0.413911  0.308955  0.618494
N    -0.828980  0.445422  2.835260
C    -1.730401  0.679956  3.958512
C    -2.748887  1.710162  3.366901
O    -2.402265  2.324449  2.353807
H    -0.979414  1.209060  2.143045
H    -2.208781  -0.263998  4.250716
C    -1.016800  1.318884  5.191115
C    0.093965  0.460200  5.683046
N    1.417694  0.669665  5.363914
C    0.081255  -0.762171  6.323329
C    2.146323  -0.399548  5.774196
N    1.357052  -1.305636  6.354395
H    -1.757620  1.463230  5.987953
H    -0.651392  2.317649  4.914849
H    1.796495  1.512657  4.938339
H    -0.765598  -1.253562  6.796855
H    3.225155  -0.463253  5.672591
N    -3.919431  1.909754  3.993598
C    -4.461799  1.255940  5.177797
H    -4.485762  2.640316  3.564888
H    -4.259677  1.831427  6.092580
H    -4.056782  0.243923  5.289335
H    -5.547274  1.161711  5.065773
Ba    0.758259  -3.349379  4.758399
