30
Energy: -244756.0917271  eV PBE+vdW (tier 2 basis)
C    -0.015129  -0.366837  -0.264097
C    -0.014848  0.084803  1.162111
O    1.032475  0.572789  1.685520
H    0.161241  0.510822  -0.903074
H    -0.951563  -0.843547  -0.572065
H    0.818286  -1.058810  -0.437909
N    -1.155457  -0.031798  1.857722
C    -1.472891  0.536342  3.178870
C    -0.928824  -0.375553  4.307097
O    0.326874  -0.601899  4.340954
H    -1.943060  -0.443574  1.361568
H    -0.897611  1.471940  3.273724
C    -2.994165  0.865836  3.151788
C    -3.627249  1.311499  4.424774
N    -3.355240  2.497989  5.082658
C    -4.554959  0.669991  5.230183
C    -4.123243  2.517757  6.220521
N    -4.843577  1.423055  6.340009
H    -3.541640  -0.032204  2.823395
H    -3.131620  1.614882  2.355273
H    -2.799313  3.272627  4.735472
H    -5.061584  -0.273957  5.037900
H    -4.115805  3.355189  6.911662
N    -1.758683  -0.860666  5.204020
C    -1.392112  -1.703717  6.339131
H    -2.724774  -0.494435  5.186666
H    -1.563793  -1.155346  7.273996
H    -0.342514  -1.994314  6.263875
H    -2.024227  -2.599564  6.338476
Ba    2.515000  0.036699  3.528781
