30
Energy: -244756.8780927  eV PBE+vdW (tier 2 basis)
C    1.362485  1.461815  3.065455
C    -0.104083  1.782396  3.020833
O    -0.578274  2.664557  3.776774
H    1.927093  2.347012  2.741129
H    1.655068  0.611797  2.440203
H    1.652859  1.262663  4.104846
N    -0.842247  1.072929  2.134905
C    -2.273273  1.077992  1.780678
C    -2.782926  2.434509  1.258086
O    -2.585143  3.516484  1.870599
H    -0.299616  0.402469  1.598888
H    -2.320703  0.381418  0.935667
C    -3.230776  0.444792  2.850565
C    -3.356366  1.199645  4.126380
N    -2.646696  0.914159  5.272600
C    -4.009666  2.383416  4.409941
C    -2.833625  1.927925  6.161354
N    -3.645489  2.855000  5.659661
H    -2.882874  -0.581447  3.031580
H    -4.220615  0.352699  2.380853
H    -2.090740  0.079957  5.440063
H    -4.752899  2.892180  3.800547
H    -2.387116  1.941026  7.150611
N    -3.494152  2.424253  0.128456
C    -3.820398  1.302157  -0.758906
H    -3.830510  3.344393  -0.152819
H    -2.914280  0.838840  -1.169625
H    -4.401624  1.696943  -1.596827
H    -4.433818  0.547350  -0.251818
Ba    -2.076596  4.609670  4.091325
