30
Energy: -244756.2778473  eV PBE+vdW (tier 2 basis)
C    -0.227178  1.552830  0.284103
C    -0.021876  0.804296  1.565985
O    1.164584  0.485220  1.930025
H    -1.275273  1.809872  0.101912
H    0.132491  0.933314  -0.549312
H    0.372289  2.472615  0.288672
N    -1.098082  0.497453  2.275518
C    -1.253251  -0.364802  3.442108
C    -2.711945  -0.911127  3.271067
O    -3.471403  -0.280486  2.531984
H    -2.047378  0.685725  1.891883
H    -0.505701  -1.169656  3.411616
C    -1.150151  0.409044  4.793937
C    0.160115  1.100893  4.930531
N    0.346246  2.440280  4.666587
C    1.434499  0.603732  5.112801
C    1.676541  2.710403  4.665066
N    2.376547  1.603575  4.920491
H    -1.283774  -0.307507  5.615156
H    -1.982870  1.122809  4.861881
H    -0.394670  3.127028  4.546107
H    1.716614  -0.402726  5.413448
H    2.084960  3.705233  4.517616
N    -3.037245  -2.000073  3.981300
C    -4.375278  -2.595016  3.970714
H    -2.316007  -2.471730  4.516812
H    -4.348154  -3.586674  3.503163
H    -5.037442  -1.942896  3.395440
H    -4.751999  -2.686917  4.995859
Ba    3.416794  0.488288  2.739529
