30
Energy: -244756.3863174  eV PBE+vdW (tier 2 basis)
C    -0.720729  2.866583  0.808935
C    -0.863307  1.426635  0.450974
O    0.135181  0.672890  0.309359
H    -1.670398  3.363794  1.029058
H    -0.018462  2.993111  1.640454
H    -0.274172  3.371194  -0.063034
N    -2.104552  0.899830  0.215676
C    -3.259001  1.062198  1.096676
C    -2.779032  1.078604  2.573934
O    -1.699372  0.513998  2.900731
H    -2.036030  -0.024020  -0.208912
H    -3.797272  1.996203  0.877813
C    -4.248429  -0.134873  0.841660
C    -3.514413  -1.438957  0.830187
N    -3.093662  -2.069719  -0.331862
C    -2.816239  -2.080789  1.833863
C    -2.161817  -3.009201  -0.003154
N    -1.943714  -3.018665  1.309049
H    -4.761116  0.039498  -0.113816
H    -5.022641  -0.125356  1.619157
H    -3.488605  -1.933792  -1.260837
H    -2.918278  -1.935894  2.905616
H    -1.692549  -3.660930  -0.733786
N    -3.571855  1.693242  3.443717
C    -3.342089  1.788186  4.886019
H    -4.406683  2.148340  3.080940
H    -4.114350  1.228607  5.428082
H    -2.357756  1.376390  5.118747
H    -3.381391  2.839528  5.193127
Ba    0.096732  -1.158636  2.088627
