30
Energy: -244756.1241101  eV PBE+vdW (tier 2 basis)
C    -1.248790  -2.239387  -0.327199
C    -0.801809  -1.413649  0.834904
O    0.333875  -1.601231  1.367304
H    -1.171981  -3.304636  -0.074969
H    -0.561283  -2.059122  -1.166214
H    -2.270360  -2.017562  -0.652794
N    -1.624613  -0.456832  1.291616
C    -1.283395  0.541995  2.314245
C    -1.436183  -0.074636  3.725531
O    -0.498194  -0.811945  4.164519
H    -2.523557  -0.355972  0.825720
H    -0.208563  0.753258  2.210271
C    -2.046177  1.844970  2.044089
C    -1.589794  2.952946  2.939475
N    -2.060457  4.247785  2.839032
C    -0.669816  3.000019  3.971308
C    -1.416066  4.994643  3.788815
N    -0.571567  4.264790  4.488958
H    -3.138457  1.674895  2.119104
H    -1.868419  2.104264  0.986607
H    -2.739509  4.598355  2.170718
H    -0.067402  2.193589  4.382129
H    -1.604227  6.055537  3.919878
N    -2.533053  0.161027  4.418574
C    -2.805921  -0.324191  5.770580
H    -3.189324  0.836222  4.033488
H    -2.622854  0.478725  6.497116
H    -2.154978  -1.172679  5.991371
H    -3.854041  -0.635144  5.835212
Ba    1.570914  -1.888031  3.435618
