30
Energy: -244756.1289289  eV PBE+vdW (tier 2 basis)
C    0.143778  -0.259305  0.128552
C    -0.068624  -0.309949  1.606142
O    0.610607  -1.103868  2.332497
H    -0.087839  -1.241157  -0.306656
H    1.205781  -0.062861  -0.071290
H    -0.464255  0.503940  -0.367536
N    -0.989376  0.500260  2.138229
C    -1.203566  0.753094  3.567909
C    -1.835550  -0.466126  4.271856
O    -1.078335  -1.349539  4.782230
H    -1.353459  1.251754  1.533323
H    -0.219923  0.879110  4.047590
C    -2.006166  2.087281  3.717686
C    -1.522880  3.150497  2.795649
N    -0.419509  3.955225  3.011331
C    -1.936763  3.461935  1.508569
C    -0.241078  4.712309  1.881617
N    -1.132404  4.424715  0.955709
H    -1.975127  2.388611  4.773652
H    -3.066625  1.925856  3.471061
H    0.087267  4.067782  3.883468
H    -2.809762  3.082735  0.980289
H    0.543645  5.458361  1.800539
N    -3.153254  -0.559881  4.337012
C    -3.893143  -1.650033  4.973636
H    -3.700921  0.183731  3.912310
H    -4.789731  -1.238334  5.447733
H    -3.263955  -2.121914  5.732493
H    -4.195621  -2.395754  4.226722
Ba    0.986786  -2.531472  4.226674
