30
Energy: -244756.0748922  eV PBE+vdW (tier 2 basis)
C    0.071629  -0.233821  0.187749
C    -0.038240  -0.179746  1.683346
O    0.962706  -0.536278  2.402431
H    0.247917  -1.275384  -0.115170
H    0.933951  0.356772  -0.149922
H    -0.825347  0.131700  -0.321730
N    -1.186544  0.242292  2.187448
C    -1.723067  0.232064  3.547030
C    -3.263410  0.103398  3.291019
O    -3.676948  0.392575  2.165582
H    -1.985446  0.439007  1.546611
H    -1.324051  -0.630874  4.096663
C    -1.441956  1.556454  4.325082
C    -0.029812  1.632160  4.789306
N    0.406807  1.107592  5.990417
C    1.125133  1.978892  4.125371
C    1.763356  1.118493  6.011123
N    2.240685  1.627154  4.872099
H    -2.132485  1.627488  5.176211
H    -1.673389  2.404367  3.667351
H    -0.186970  0.825817  6.766526
H    1.207602  2.472659  3.161056
H    2.351846  0.800971  6.866204
N    -4.064051  -0.279718  4.300176
C    -3.714402  -0.675206  5.657627
H    -5.052472  -0.279884  4.053364
H    -2.712822  -1.119328  5.692161
H    -4.419404  -1.441586  5.996879
H    -3.766717  0.170171  6.359748
Ba    3.206900  -0.186199  3.180242
