30
Energy: -244756.1810363  eV PBE+vdW (tier 2 basis)
C    0.547671  -0.351223  1.174376
C    -0.111812  -0.477878  2.513986
O    0.083472  -1.530780  3.218232
H    0.186139  -1.160030  0.524107
H    1.633203  -0.477896  1.279292
H    0.344945  0.607120  0.686307
N    -0.883015  0.522319  2.913817
C    -1.788968  0.623759  4.053255
C    -2.890041  1.602174  3.524982
O    -2.601698  2.296382  2.545766
H    -1.099301  1.308747  2.265957
H    -2.189644  -0.369232  4.295534
C    -1.115205  1.248373  5.315283
C    0.064703  0.454570  5.752152
N    1.364630  0.785907  5.438260
C    0.154769  -0.798760  6.322483
C    2.179309  -0.243401  5.783596
N    1.469674  -1.240192  6.316007
H    -1.856928  1.289868  6.123202
H    -0.832202  2.286521  5.092693
H    1.671591  1.678715  5.058925
H    -0.646128  -1.381645  6.771545
H    3.258752  -0.215589  5.672810
N    -4.066598  1.675287  4.167664
C    -4.545659  0.917340  5.316542
H    -4.691842  2.381833  3.782824
H    -5.621667  0.745653  5.205134
H    -4.379782  1.455575  6.260807
H    -4.062879  -0.064892  5.369538
Ba    1.019511  -3.234621  4.612923
