30
Energy: -244756.0714534  eV PBE+vdW (tier 2 basis)
C    -0.503720  1.519877  -0.554885
C    -0.481190  0.519526  0.553120
O    0.405182  -0.406898  0.558312
H    0.437419  2.088299  -0.513515
H    -1.333088  2.229379  -0.484870
H    -0.521345  1.013106  -1.527386
N    -1.341030  0.580060  1.563837
C    -2.715397  1.067139  1.625862
C    -3.189807  0.546095  3.018947
O    -2.630811  -0.456628  3.486569
H    -1.229098  -0.118906  2.321681
H    -2.756779  2.163461  1.585018
C    -3.645339  0.474969  0.491171
C    -3.135175  -0.805397  -0.090099
N    -2.963238  -1.002268  -1.447735
C    -2.540438  -1.906592  0.489975
C    -2.271043  -2.149526  -1.647719
N    -1.972136  -2.720216  -0.478133
H    -3.743022  1.216938  -0.312196
H    -4.653793  0.346456  0.909314
H    -3.340743  -0.411719  -2.185210
H    -2.499241  -2.139302  1.551916
H    -2.035899  -2.541186  -2.632041
N    -4.209307  1.201263  3.582932
C    -4.823450  0.810573  4.852247
H    -4.542676  2.053118  3.141532
H    -4.387109  -0.139225  5.171214
H    -5.905760  0.694306  4.723820
H    -4.630062  1.572675  5.616844
Ba    0.553096  -2.814377  0.411474
