30
Energy: -244756.0748838  eV PBE+vdW (tier 2 basis)
C    -0.028535  0.072039  0.061890
C    -0.069482  0.089870  1.561714
O    0.999755  -0.162717  2.224440
H    0.247782  -0.938350  -0.270531
H    0.745049  0.760836  -0.303520
H    -0.984581  0.342171  -0.397208
N    -1.231038  0.370622  2.129550
C    -1.691272  0.277385  3.513559
C    -3.219321  -0.016582  3.332714
O    -3.720888  0.243239  2.236270
H    -2.078477  0.487188  1.533319
H    -1.171611  -0.545723  4.022027
C    -1.516983  1.610316  4.308069
C    -0.101136  1.830142  4.710683
N    0.446778  1.329144  5.875650
C    0.975955  2.318889  4.006403
C    1.793327  1.490790  5.836571
N    2.157394  2.076396  4.692880
H    -2.170737  1.591145  5.190410
H    -1.868131  2.440096  3.681002
H    -0.074981  0.965803  6.669499
H    0.957880  2.841996  3.054253
H    2.453104  1.220505  6.655073
N    -3.919250  -0.501279  4.372664
C    -3.457711  -0.882828  5.700102
H    -4.913315  -0.606036  4.175953
H    -4.057761  -1.727354  6.055391
H    -3.562746  -0.062098  6.425308
H    -2.413922  -1.216836  5.673157
Ba    3.226852  0.417226  2.906714
