30
Energy: -244756.9003415  eV PBE+vdW (tier 2 basis)
C    2.030359  0.773090  1.075656
C    0.933711  0.340729  2.003607
O    1.209428  -0.114122  3.140707
H    1.676352  1.169741  0.118497
H    2.635479  1.539189  1.578814
H    2.693075  -0.081761  0.884929
N    -0.331002  0.474924  1.545711
C    -1.652592  0.201703  2.154380
C    -1.754575  0.635173  3.635480
O    -1.308203  -0.061108  4.582447
H    -0.394138  0.857541  0.606321
H    -2.325611  0.862989  1.591651
C    -2.195749  -1.233776  1.871427
C    -1.652133  -2.331599  2.722225
N    -2.378339  -2.938907  3.724031
C    -0.386306  -2.876054  2.833742
C    -1.551003  -3.770506  4.418769
N    -0.319760  -3.738209  3.916898
H    -2.000049  -1.447986  0.810949
H    -3.289899  -1.192857  1.970747
H    -3.372236  -2.814681  3.899586
H    0.466419  -2.724792  2.178451
H    -1.886711  -4.389590  5.245278
N    -2.395048  1.784039  3.850268
C    -2.624787  2.365619  5.172579
H    -2.727179  2.310250  3.047363
H    -3.544270  2.957809  5.142444
H    -1.789295  3.017606  5.459945
H    -2.730616  1.564622  5.909632
Ba    0.741674  -1.433078  5.178465
