30
Energy: -244756.2709213  eV PBE+vdW (tier 2 basis)
C    -0.787286  0.001684  0.178521
C    -0.471569  0.139542  1.632518
O    0.631902  0.642091  2.012906
H    0.013169  -0.557802  -0.322362
H    -0.804932  1.005126  -0.270571
H    -1.746825  -0.489846  -0.012052
N    -1.384799  -0.267942  2.520757
C    -1.331123  -0.068144  3.976184
C    -0.393886  -1.092388  4.663734
O    0.860817  -0.878498  4.624449
H    -2.251991  -0.678186  2.169322
H    -0.837353  0.899994  4.147971
C    -2.759890  0.039658  4.536125
C    -3.677460  -1.102495  4.200355
N    -5.011526  -1.079990  4.554695
C    -3.530697  -2.305909  3.516471
C    -5.589048  -2.230838  4.090068
N    -4.718034  -2.989834  3.460252
H    -3.183562  0.981022  4.149333
H    -2.680800  0.179791  5.626641
H    -5.486144  -0.343743  5.068954
H    -2.640470  -2.730303  3.057328
H    -6.639630  -2.457379  4.243622
N    -0.920925  -2.127250  5.287312
C    -0.178959  -3.164489  6.000177
H    -1.939142  -2.242622  5.210187
H    0.871957  -2.877824  6.076025
H    -0.266239  -4.118219  5.464201
H    -0.602578  -3.284179  7.003959
Ba    2.563020  0.406974  3.445914
