30
Energy: -244756.8790285  eV PBE+vdW (tier 2 basis)
C    0.529056  -1.121621  0.672050
C    0.268375  -0.120582  1.760885
O    1.204385  0.592122  2.197445
H    1.377259  -1.753593  0.964436
H    0.830904  -0.584206  -0.237618
H    -0.329339  -1.758429  0.433788
N    -1.005688  -0.051714  2.213551
C    -1.667698  0.767376  3.244923
C    -1.584833  2.283927  2.988350
O    -0.501013  2.871667  2.733511
H    -1.637894  -0.695242  1.747211
H    -2.723262  0.491184  3.139457
C    -1.320343  0.386314  4.727046
C    0.079177  0.662255  5.149504
N    1.086893  -0.277623  5.165877
C    0.715921  1.856860  5.425201
C    2.270037  0.359934  5.380856
N    2.084199  1.669716  5.523245
H    -1.569823  -0.675715  4.856710
H    -2.014203  0.943498  5.372734
H    0.970614  -1.281629  5.058574
H    0.256926  2.826844  5.601366
H    3.221327  -0.158588  5.446971
N    -2.718481  2.981699  3.087701
C    -4.084850  2.511146  3.341327
H    -2.598611  3.982873  2.938789
H    -4.176102  2.036951  4.326227
H    -4.746028  3.382030  3.327556
H    -4.423845  1.821800  2.557518
Ba    2.016937  2.810748  2.935813
