30
Energy: -244756.1885779  eV PBE+vdW (tier 2 basis)
C    -0.430601  -1.542198  0.674066
C    -0.500904  -0.244143  1.408953
O    0.520148  0.510175  1.499316
H    -1.359603  -2.118990  0.728048
H    0.396732  -2.146156  1.068097
H    -0.200991  -1.334881  -0.381048
N    -1.665322  0.115130  1.958650
C    -1.937973  1.395821  2.614741
C    -1.334987  1.382370  4.034416
O    -0.147030  1.810311  4.188866
H    -2.452608  -0.541483  1.934819
H    -1.373614  2.169117  2.074845
C    -3.450352  1.742310  2.480126
C    -4.394190  0.665999  2.906397
N    -5.069203  0.653494  4.125888
C    -4.740460  -0.535088  2.312035
C    -5.795924  -0.515921  4.174291
N    -5.592854  -1.257632  3.109311
H    -3.617736  1.967294  1.417251
H    -3.635699  2.681044  3.020224
H    -5.241261  1.465637  4.713574
H    -4.475235  -0.890324  1.317478
H    -6.451846  -0.757271  5.005478
N    -2.048492  0.897207  5.034704
C    -1.589783  0.787928  6.419399
H    -2.986943  0.551084  4.817008
H    -1.185475  -0.214659  6.611960
H    -2.439439  0.959543  7.087835
H    -0.817937  1.537588  6.611804
Ba    1.923585  1.913694  2.876471
