30
Energy: -244756.9001432  eV PBE+vdW (tier 2 basis)
C    0.153099  0.408276  0.551790
C    -0.121441  -0.179480  1.904703
O    0.809310  -0.314934  2.735898
H    0.920384  -0.195863  0.049667
H    0.575702  1.413478  0.684731
H    -0.728066  0.475418  -0.094616
N    -1.400914  -0.534559  2.158398
C    -2.071614  -1.098671  3.351880
C    -1.617020  -0.457219  4.683406
O    -0.544941  -0.769452  5.261104
H    -2.038509  -0.364336  1.385607
H    -3.119562  -0.802493  3.207847
C    -2.111523  -2.659285  3.379508
C    -0.875022  -3.348409  3.849018
N    -0.767691  -3.945678  5.086738
C    0.394709  -3.438021  3.310309
C    0.527717  -4.326031  5.275626
N    1.271312  -4.008875  4.219517
H    -2.364468  -2.992189  2.362719
H    -2.963255  -2.951549  4.010243
H    -1.530536  -4.108539  5.739034
H    0.718092  -3.157642  2.312197
H    0.871667  -4.845884  6.164706
N    -2.467592  0.422008  5.212458
C    -2.248422  1.120630  6.478920
H    -3.314170  0.646761  4.698172
H    -1.681771  2.047246  6.318212
H    -1.694980  0.471185  7.163207
H    -3.219893  1.368662  6.916590
Ba    1.882397  -1.291559  4.736413
