30
Energy: -244755.9453051  eV PBE+vdW (tier 2 basis)
C    1.629531  1.094333  0.518972
C    0.991568  0.392063  1.677173
O    1.707428  -0.238964  2.513636
H    2.454735  1.725590  0.870301
H    2.070753  0.332251  -0.140687
H    0.932095  1.701589  -0.067304
N    -0.344363  0.457306  1.782872
C    -1.276432  -0.321964  2.616780
C    -1.250977  0.029447  4.113972
O    -0.164782  0.217872  4.749128
H    -0.800190  1.004165  1.057368
H    -2.261072  -0.024610  2.237834
C    -1.173996  -1.863880  2.394749
C    -2.423781  -2.537184  2.863583
N    -2.447238  -3.646320  3.688201
C    -3.758932  -2.216594  2.677684
C    -3.761410  -3.947547  3.938665
N    -4.572550  -3.090288  3.354366
H    -0.287186  -2.267365  2.903740
H    -1.011213  -2.020427  1.317040
H    -1.651897  -4.217024  3.954955
H    -4.186114  -1.429977  2.058553
H    -4.059198  -4.798848  4.542986
N    -2.427890  0.059574  4.715802
C    -2.648152  0.268803  6.144747
H    -3.238957  -0.216288  4.158494
H    -1.776250  0.760528  6.581937
H    -2.825149  -0.691954  6.646077
H    -3.530602  0.903742  6.276740
Ba    2.227221  -0.110027  4.868632
