30
Energy: -244756.8120654  eV PBE+vdW (tier 2 basis)
C    -0.422246  0.284215  0.214395
C    -0.225912  0.241327  1.700042
O    0.909054  0.437343  2.201391
H    0.251604  -0.442975  -0.257563
H    -0.124417  1.276697  -0.150883
H    -1.449293  0.080182  -0.105640
N    -1.320564  -0.007510  2.452876
C    -1.483920  -0.066306  3.919756
C    -0.625894  0.992089  4.647848
O    0.528954  0.736097  5.083113
H    -2.179417  -0.155766  1.929719
H    -2.531109  0.224232  4.076091
C    -1.387771  -1.501143  4.514347
C    -0.024881  -2.094538  4.646871
N    0.574612  -2.333039  5.864139
C    0.946452  -2.414834  3.714588
C    1.860665  -2.733167  5.645957
N    2.128770  -2.771558  4.344231
H    -2.018139  -2.148490  3.887056
H    -1.877197  -1.476646  5.498457
H    0.130169  -2.243955  6.774585
H    0.852049  -2.448787  2.633338
H    2.541027  -3.010252  6.445750
N    -1.169701  2.194840  4.832894
C    -2.489895  2.684071  4.421071
H    -0.579284  2.843540  5.352095
H    -3.293969  2.200455  4.991167
H    -2.649822  2.542233  3.345967
H    -2.529729  3.757227  4.627611
Ba    2.657804  -0.006584  3.915731
