30
Energy: -244756.2708754  eV PBE+vdW (tier 2 basis)
C    -0.827365  0.515094  0.448330
C    -0.600025  0.618393  1.921541
O    0.412175  1.234206  2.380975
H    0.059667  0.084324  -0.033617
H    -0.950049  1.529793  0.043075
H    -1.707476  -0.081020  0.186174
N    -1.495206  0.057429  2.741992
C    -1.536030  0.192016  4.205381
C    -0.510131  -0.739102  4.898789
O    0.707780  -0.368948  4.935056
H    -2.286233  -0.439032  2.327838
H    -1.177324  1.204689  4.442998
C    -2.991684  0.095003  4.693299
C    -3.740432  -1.136075  4.265595
N    -5.080670  -1.298170  4.554412
C    -3.411276  -2.277989  3.541032
C    -5.485386  -2.489542  4.015191
N    -4.497775  -3.102586  3.398567
H    -3.512543  0.993006  4.322317
H    -2.982306  0.193892  5.791130
H    -5.667551  -0.652370  5.074305
H    -2.454925  -2.564928  3.109184
H    -6.504007  -2.853532  4.107645
N    -0.930435  -1.859844  5.450862
C    -0.097064  -2.828051  6.159880
H    -1.920877  -2.097857  5.314886
H    -0.552906  -3.051303  7.131296
H    0.901918  -2.413031  6.308833
H    -0.030715  -3.756968  5.579180
Ba    2.288853  1.170505  3.901852
