30
Energy: -244756.1688593  eV PBE+vdW (tier 2 basis)
C    0.773776  -0.251590  0.431714
C    0.187817  0.687710  1.444946
O    0.968335  1.432063  2.139590
H    1.391518  0.304951  -0.286220
H    1.432031  -0.963199  0.949133
H    0.015263  -0.814216  -0.121312
N    -1.129736  0.696167  1.566678
C    -2.025225  1.302718  2.549621
C    -3.235111  0.303239  2.551470
O    -3.365827  -0.436169  1.573895
H    -1.697246  0.012517  1.021295
H    -1.532461  1.343354  3.531558
C    -2.528921  2.719180  2.127100
C    -1.473909  3.756338  2.292572
N    -1.268583  4.455050  3.466582
C    -0.395351  4.086511  1.503240
C    -0.100338  5.138782  3.376547
N    0.475757  4.918927  2.191666
H    -3.417281  2.970033  2.723509
H    -2.860937  2.676391  1.081423
H    -1.919665  4.512972  4.245738
H    -0.211265  3.779500  0.477441
H    0.265110  5.804470  4.152170
N    -4.066561  0.360414  3.601724
C    -5.265813  -0.471823  3.719744
H    -3.820887  0.948111  4.391206
H    -6.128166  0.153478  3.976675
H    -5.128066  -1.237665  4.492918
H    -5.442266  -0.959990  2.757831
Ba    2.540009  3.241774  2.278544
