30
Energy: -244756.2781222  eV PBE+vdW (tier 2 basis)
C    -0.379536  1.702391  0.352783
C    -0.123037  0.891318  1.586445
O    1.077040  0.557106  1.886573
H    -0.053032  1.126258  -0.524252
H    0.219170  2.622299  0.379574
H    -1.434180  1.965645  0.225476
N    -1.169880  0.547128  2.322312
C    -1.277090  -0.371622  3.450488
C    -2.740626  -0.913814  3.311726
O    -3.530683  -0.249416  2.637172
H    -2.133813  0.752040  1.987018
H    -0.530084  -1.171361  3.350852
C    -1.120818  0.335941  4.833234
C    0.192536  1.025520  4.949978
N    0.365691  2.376189  4.740194
C    1.474027  0.525162  5.059007
C    1.694409  2.650867  4.698595
N    2.405954  1.536108  4.875473
H    -1.219407  -0.420197  5.623300
H    -1.951544  1.042227  4.969511
H    -0.380639  3.065071  4.680805
H    1.769625  -0.492854  5.302320
H    2.094893  3.652839  4.580647
N    -3.034626  -2.038410  3.978778
C    -4.371174  -2.636571  3.994282
H    -2.291101  -2.533655  4.459731
H    -4.362884  -3.602746  3.475491
H    -5.058075  -1.957912  3.482182
H    -4.703632  -2.782409  5.028452
Ba    3.359518  0.524860  2.605853
