30
Energy: -244756.2329709  eV PBE+vdW (tier 2 basis)
C    -2.113253  2.406751  0.872309
C    -1.369220  1.113863  0.975025
O    -0.124511  1.074961  0.682793
H    -1.567320  3.160409  1.456258
H    -2.125705  2.755516  -0.169205
H    -3.140995  2.356327  1.241644
N    -1.978880  0.004951  1.391733
C    -3.401616  -0.340120  1.267007
C    -3.534098  -1.740325  1.906171
O    -2.666383  -2.588352  1.635991
H    -1.397197  -0.836382  1.480216
H    -4.025489  0.400532  1.781584
C    -3.819913  -0.422482  -0.256016
C    -2.658540  -0.807222  -1.112376
N    -2.012477  -2.020917  -1.022112
C    -1.839016  -0.030886  -1.905778
C    -0.846094  -1.946333  -1.697964
N    -0.694638  -0.736038  -2.251892
H    -4.663284  -1.119082  -0.356931
H    -4.180018  0.559529  -0.586107
H    -2.286911  -2.760262  -0.365489
H    -2.024025  0.977040  -2.266433
H    -0.161838  -2.783415  -1.797787
N    -4.611401  -1.953198  2.668053
C    -4.928594  -3.240187  3.286363
H    -5.233912  -1.173730  2.858524
H    -4.936544  -3.139320  4.378144
H    -4.163778  -3.964252  2.994599
H    -5.912819  -3.586185  2.949097
Ba    1.310467  0.683809  -1.231421
