30
Energy: -244756.1009393  eV PBE+vdW (tier 2 basis)
C    -0.618912  -0.605319  -0.315998
C    -0.574233  -0.617342  1.175784
O    0.299736  -1.299156  1.797090
H    -1.498478  -0.092888  -0.718941
H    -0.583465  -1.631632  -0.700752
H    0.283404  -0.091655  -0.681279
N    -1.459835  0.130687  1.846208
C    -1.405946  0.431199  3.285879
C    -1.979876  -0.743893  4.107024
O    -1.220993  -1.725072  4.376668
H    -2.067485  0.728302  1.288866
H    -0.343012  0.480526  3.569893
C    -2.036128  1.804171  3.557555
C    -1.278737  2.892326  2.861461
N    -1.741449  4.190995  2.765342
C    -0.045499  2.917411  2.233757
C    -0.787515  4.919035  2.106291
N    0.245231  4.173006  1.770083
H    -2.047515  1.961696  4.649160
H    -3.093995  1.807985  3.230004
H    -2.611704  4.557315  3.137897
H    0.660484  2.103552  2.090365
H    -0.903921  5.978480  1.900975
N    -3.240349  -0.696337  4.502880
C    -3.929800  -1.723427  5.284226
H    -3.778164  0.129857  4.251799
H    -4.445547  -1.249047  6.126555
H    -3.198448  -2.441901  5.660296
H    -4.667795  -2.239984  4.657616
Ba    0.874945  -2.759894  3.625299
