30
Energy: -244756.9719983  eV PBE+vdW (tier 2 basis)
C    -0.475432  2.150564  -0.910242
C    -1.128639  1.300688  0.141306
O    -0.529216  0.301518  0.607599
H    -1.123381  2.932590  -1.319808
H    0.416399  2.624649  -0.477134
H    -0.127469  1.505088  -1.726667
N    -2.365965  1.682183  0.535273
C    -3.310340  1.135752  1.530050
C    -2.731102  1.059426  2.959978
O    -1.710910  0.389797  3.260181
H    -2.707479  2.516889  0.068031
H    -4.102535  1.895204  1.562315
C    -4.057134  -0.168397  1.084040
C    -3.210478  -1.379766  0.918797
N    -2.664423  -1.791395  -0.278067
C    -2.656653  -2.225445  1.860273
C    -1.780477  -2.796397  -0.027638
N    -1.734249  -3.074467  1.272495
H    -4.589489  0.067878  0.152115
H    -4.833794  -0.365119  1.836879
H    -2.898216  -1.428822  -1.198319
H    -2.908086  -2.294827  2.915991
H    -1.219403  -3.302577  -0.806903
N    -3.414393  1.727110  3.889544
C    -3.056067  1.731701  5.309231
H    -4.217441  2.279739  3.606517
H    -3.022819  0.707155  5.697576
H    -2.076988  2.203720  5.455904
H    -3.814007  2.298787  5.855576
Ba    0.057186  -1.232224  2.461107
