30
Energy: -244756.1711379  eV PBE+vdW (tier 2 basis)
C    1.212545  0.638639  1.812843
C    -0.114276  1.266613  2.116826
O    -0.234496  2.247227  2.876581
H    1.627295  0.222019  2.740990
H    1.907030  1.422209  1.483533
H    1.168708  -0.152175  1.056426
N    -1.213199  0.726518  1.519899
C    -2.575047  1.241423  1.660400
C    -2.649729  2.770103  1.465489
O    -3.238486  3.513653  2.310326
H    -1.085150  -0.084877  0.922970
H    -3.118803  0.822537  0.798026
C    -3.346673  0.702670  2.898640
C    -3.205051  1.360253  4.236625
N    -2.049375  1.896074  4.752034
C    -4.161186  1.545497  5.236323
C    -2.325396  2.377821  6.005020
N    -3.606301  2.194335  6.324505
H    -3.066519  -0.358107  2.994727
H    -4.418095  0.697841  2.656472
H    -1.174195  2.015220  4.177242
H    -5.192983  1.202209  5.247125
H    -1.567392  2.816764  6.648935
N    -2.167896  3.304464  0.349746
C    -1.542070  2.660930  -0.806300
H    -2.261965  4.317988  0.303857
H    -0.465282  2.521221  -0.649686
H    -1.689697  3.310978  -1.674088
H    -2.011878  1.695969  -1.023497
Ba    -3.976435  4.332986  4.494011
