30
Energy: -244756.9716893  eV PBE+vdW (tier 2 basis)
C    -0.682819  -1.636593  -0.282405
C    -0.723051  -0.840262  0.989784
O    -1.607119  -1.070091  1.850466
H    0.067013  -1.292366  -1.002382
H    -1.674213  -1.609401  -0.752298
H    -0.476635  -2.687202  -0.035026
N    0.232556  0.107390  1.133027
C    0.534456  1.064247  2.216103
C    0.794133  0.392742  3.582661
O    -0.057593  -0.308592  4.184490
H    0.879090  0.162176  0.351480
H    1.493154  1.498381  1.903345
C    -0.429833  2.297687  2.292592
C    -1.840053  1.999516  2.657727
N    -2.852195  1.786310  1.746509
C    -2.410020  1.708119  3.881833
C    -3.946681  1.328104  2.414642
N    -3.705977  1.247974  3.720601
H    -0.376148  2.809030  1.321273
H    -0.001245  2.994078  3.027392
H    -2.804999  1.965659  0.747145
H    -1.969645  1.848826  4.866183
H    -4.885914  1.090602  1.925002
N    1.988667  0.636905  4.121374
C    2.401439  0.132472  5.432213
H    2.662056  1.185736  3.596174
H    3.390542  0.536133  5.662920
H    2.452216  -0.963170  5.422724
H    1.692132  0.452373  6.204314
Ba    -2.413315  -1.226781  4.186136
