30
Energy: -244756.0708781  eV PBE+vdW (tier 2 basis)
C    -0.542771  0.201388  -0.221894
C    -0.417217  -0.168858  1.226719
O    0.638362  -0.409955  1.803560
H    -1.523519  -0.043428  -0.646598
H    0.246236  -0.299086  -0.792122
H    -0.385558  1.285330  -0.325193
N    -1.603796  -0.251649  1.965367
C    -1.442432  -0.329025  3.400841
C    -0.792672  -1.666963  3.806580
O    -0.063316  -1.732417  4.850410
H    -2.457103  0.147839  1.583534
H    -0.715746  0.432070  3.730823
C    -2.782982  -0.075511  4.147619
C    -2.550209  -0.162382  5.620276
N    -2.994206  -1.195420  6.413445
C    -1.674256  0.541408  6.426188
C    -2.371742  -1.121690  7.622184
N    -1.540328  -0.081571  7.658563
H    -3.549499  -0.795326  3.827837
H    -3.145104  0.926419  3.875838
H    -3.702355  -1.879612  6.157601
H    -1.178483  1.484292  6.203408
H    -2.571451  -1.808131  8.439231
N    -1.079960  -2.729110  3.078956
C    -0.519542  -4.064027  3.262489
H    -1.603504  -2.536660  2.224566
H    0.441283  -4.149730  2.737158
H    -1.217310  -4.801072  2.854039
H    -0.368450  -4.260821  4.327546
Ba    0.946629  -0.869303  6.855031
