30
Energy: -244756.0896679  eV PBE+vdW (tier 2 basis)
C    -1.002580  -0.378274  -0.118607
C    -0.615645  -0.174822  1.309434
O    0.563043  -0.432651  1.700160
H    -0.202256  -0.029643  -0.780408
H    -1.944893  0.110128  -0.388608
H    -1.118828  -1.461406  -0.280897
N    -1.555757  0.280353  2.153458
C    -1.560412  0.267308  3.626637
C    -0.643239  1.337201  4.236873
O    0.618912  1.234426  4.172595
H    -2.467763  0.427241  1.730648
H    -2.594985  0.525023  3.887900
C    -1.268294  -1.142096  4.247862
C    -1.958164  -2.256057  3.548655
N    -3.282259  -2.613210  3.743630
C    -1.526420  -3.077902  2.523233
C    -3.567127  -3.621069  2.860714
N    -2.526111  -3.914015  2.105580
H    -1.538474  -1.083874  5.313329
H    -0.188197  -1.338414  4.221598
H    -3.899787  -2.285948  4.479778
H    -0.533918  -3.125717  2.083026
H    -4.538599  -4.104028  2.822819
N    -1.228449  2.335505  4.885540
C    -0.528813  3.410496  5.589538
H    -2.244289  2.373901  4.879313
H    -1.086875  3.661428  6.497338
H    -0.459916  4.302431  4.953356
H    0.475682  3.074556  5.858324
Ba    2.471412  0.093128  3.056185
