30
Energy: -244756.1241917  eV PBE+vdW (tier 2 basis)
C    0.260476  -0.396306  -0.243295
C    0.124371  -0.115705  1.217859
O    1.147490  0.095676  1.936887
H    0.731249  0.474511  -0.721773
H    -0.693764  -0.600954  -0.739579
H    0.936783  -1.247478  -0.394400
N    -1.107584  -0.077800  1.748607
C    -1.431818  0.335226  3.121521
C    -1.196221  -0.843117  4.096820
O    -0.005096  -1.089172  4.466670
H    -1.888869  -0.258753  1.122370
H    -0.692088  1.096902  3.410357
C    -2.818944  0.989537  3.151018
C    -3.127350  1.587263  4.487310
N    -4.289913  2.285180  4.751760
C    -2.421757  1.630437  5.676168
C    -4.229398  2.707090  6.053036
N    -3.111975  2.322975  6.635949
H    -3.593111  0.262797  2.834794
H    -2.819679  1.768049  2.369295
H    -5.044626  2.479487  4.101158
H    -1.450489  1.199330  5.906086
H    -5.024328  3.284785  6.513942
N    -2.223997  -1.565488  4.497458
C    -2.163430  -2.682572  5.438795
H    -3.150680  -1.239506  4.233185
H    -2.841111  -3.473245  5.099958
H    -2.474186  -2.344856  6.436550
H    -1.142118  -3.066398  5.483999
Ba    2.304164  -0.440900  4.001494
