30
Energy: -244756.9002688  eV PBE+vdW (tier 2 basis)
C    2.027660  0.852312  1.397316
C    0.852688  0.372468  2.197224
O    1.019482  -0.087482  3.353211
H    2.755908  0.035413  1.308142
H    1.770199  1.212743  0.396001
H    2.522877  1.661588  1.951250
N    -0.359528  0.474250  1.607492
C    -1.729686  0.153991  2.067789
C    -2.006509  0.573826  3.530089
O    -1.637440  -0.109609  4.518765
H    -0.333327  0.866151  0.670200
H    -2.358859  0.796882  1.437188
C    -2.191065  -1.296630  1.722659
C    -1.711913  -2.381880  2.626749
N    -2.524874  -3.012940  3.543736
C    -0.450972  -2.892128  2.873500
C    -1.754619  -3.824711  4.322563
N    -0.477835  -3.756776  3.956317
H    -1.869971  -1.498529  0.690711
H    -3.290185  -1.291159  1.697747
H    -3.534863  -2.916382  3.611241
H    0.462864  -2.714827  2.314151
H    -2.160302  -4.456283  5.107161
N    -2.710665  1.695515  3.678844
C    -3.100006  2.255225  4.973223
H    -2.976911  2.214651  2.847421
H    -2.295638  2.879658  5.383983
H    -3.321045  1.443175  5.672252
H    -3.993507  2.870903  4.835235
Ba    0.375044  -1.427415  5.327838
