30
Energy: -244756.8996912  eV PBE+vdW (tier 2 basis)
C    2.125047  0.309790  1.888290
C    0.839023  -0.110010  2.536729
O    0.833097  -0.520167  3.723233
H    2.832888  -0.528971  1.924347
H    2.016002  0.640588  0.850329
H    2.566222  1.124611  2.478282
N    -0.277012  -0.013440  1.780207
C    -1.705344  -0.284340  2.059155
C    -2.167550  0.184953  3.458451
O    -1.961791  -0.483043  4.503587
H    -0.112033  0.334603  0.839709
H    -2.225310  0.353927  1.331659
C    -2.156899  -1.733042  1.695034
C    -1.816586  -2.802263  2.677810
N    -2.752358  -3.406596  3.489547
C    -0.605666  -3.315604  3.103987
C    -2.102597  -4.206111  4.382711
N    -0.787332  -4.155357  4.191441
H    -1.718555  -1.969633  0.714783
H    -3.244516  -1.704610  1.536585
H    -3.761353  -3.302589  3.417020
H    0.376999  -3.157508  2.669488
H    -2.616928  -4.817553  5.118108
N    -2.849027  1.330370  3.477407
C    -3.405873  1.943366  4.682663
H    -2.976977  1.830263  2.602136
H    -2.705421  2.677133  5.102343
H    -3.607066  1.165954  5.424204
H    -4.339790  2.451265  4.423112
Ba    -0.103290  -1.802986  5.617642
