30
Energy: -244756.0711392  eV PBE+vdW (tier 2 basis)
C    -2.279454  -0.334001  -0.149048
C    -1.661527  -0.671976  1.175934
O    -0.657686  -1.359738  1.330937
H    -3.352259  -0.117483  -0.081949
H    -2.108071  -1.158138  -0.848634
H    -1.776128  0.554779  -0.557934
N    -2.293874  -0.164439  2.317723
C    -1.534383  -0.255118  3.545658
C    -1.372981  -1.724656  3.983062
O    -0.342732  -2.084973  4.642393
H    -2.984459  0.574757  2.216752
H    -0.500993  0.084556  3.364166
C    -2.145785  0.629817  4.669063
C    -1.313711  0.505662  5.903029
N    -1.712039  -0.157290  7.041088
C    0.034594  0.744954  6.095396
C    -0.630455  -0.334021  7.849225
N    0.461138  0.188032  7.292314
H    -3.188033  0.342947  4.867354
H    -2.157062  1.671986  4.318807
H    -2.664969  -0.434234  7.265216
H    0.701957  1.329477  5.464998
H    -0.685386  -0.806901  8.824934
N    -2.361302  -2.554042  3.709084
C    -2.371689  -3.987617  3.982799
H    -3.090249  -2.170559  3.106784
H    -1.833753  -4.192388  4.912543
H    -1.895683  -4.536206  3.158856
H    -3.408436  -4.322393  4.083416
Ba    1.729410  -1.720795  5.808033
