30
Energy: -244756.2782767  eV PBE+vdW (tier 2 basis)
C    0.086534  0.726887  0.130127
C    0.153349  0.379448  1.586168
O    1.294577  0.237780  2.151559
H    0.548311  -0.085163  -0.448825
H    0.668910  1.637143  -0.063614
H    -0.937021  0.873539  -0.228475
N    -0.992762  0.227485  2.233532
C    -1.265093  -0.278590  3.574172
C    -2.682662  -0.926194  3.413654
O    -3.364067  -0.569004  2.449814
H    -1.894221  0.250365  1.713319
H    -0.502525  -1.018605  3.854209
C    -1.336028  0.848675  4.652177
C    -0.068471  1.625011  4.716410
N    0.115140  2.836271  4.086052
C    1.186977  1.278428  5.172902
C    1.429288  3.171140  4.145013
N    2.120590  2.231100  4.792163
H    -1.541852  0.385074  5.625964
H    -2.189828  1.503687  4.429563
H    -0.622589  3.412728  3.687800
H    1.455750  0.423038  5.788523
H    1.828360  4.100817  3.751701
N    -3.066232  -1.786309  4.367098
C    -4.383455  -2.425031  4.388649
H    -2.402598  -2.050216  5.087815
H    -4.985529  -1.999654  3.581649
H    -4.874987  -2.236983  5.350136
H    -4.285692  -3.506596  4.235874
Ba    3.435827  0.590728  3.160873
