30
Energy: -244756.0913835  eV PBE+vdW (tier 2 basis)
C    -1.524426  -2.120549  -0.572401
C    -0.917347  -1.412048  0.597005
O    0.254376  -1.698245  0.989540
H    -2.565939  -1.840194  -0.761186
H    -1.462076  -3.206062  -0.425914
H    -0.927584  -1.884944  -1.465639
N    -1.645663  -0.462747  1.202584
C    -1.202648  0.513748  2.212204
C    -1.223836  -0.121423  3.625116
O    -0.493856  -1.148204  3.830370
H    -2.578872  -0.306189  0.827578
H    -0.138316  0.721699  2.014536
C    -2.037231  1.803277  1.958648
C    -1.915180  2.911056  2.947341
N    -0.775884  3.663442  3.171882
C    -2.841816  3.400564  3.854250
C    -1.068828  4.556653  4.172619
N    -2.301064  4.409617  4.610270
H    -3.103712  1.528820  1.921458
H    -1.774839  2.143839  0.943981
H    0.075399  3.657761  2.619648
H    -3.884003  3.106101  3.963432
H    -0.347837  5.285898  4.529533
N    -1.960578  0.422231  4.568634
C    -2.060310  -0.043322  5.949581
H    -2.388452  1.337347  4.351991
H    -3.113135  -0.233776  6.190605
H    -1.682102  0.734559  6.624368
H    -1.483031  -0.961205  6.075829
Ba    1.300795  -2.546702  3.006135
