30
Energy: -244756.1008140  eV PBE+vdW (tier 2 basis)
C    -0.194014  -0.442414  -0.124180
C    -0.267411  -0.445195  1.366493
O    0.606334  -1.051655  2.061986
H    0.686076  0.148056  -0.421596
H    -1.079859  -0.010218  -0.600731
H    -0.037968  -1.462616  -0.494639
N    -1.260151  0.232228  1.957397
C    -1.342429  0.545759  3.392883
C    -1.892545  -0.662763  4.180636
O    -1.090904  -1.590759  4.508898
H    -1.869119  0.774318  1.347361
H    -0.311465  0.674605  3.758292
C    -2.089186  1.871414  3.596992
C    -1.360273  3.005878  2.945705
N    -1.911334  4.262803  2.782755
C    -0.082331  3.118794  2.426359
C    -0.962192  5.054131  2.193299
N    0.150441  4.386524  1.963107
H    -2.195732  2.036570  4.682397
H    -3.116025  1.795869  3.189380
H    -2.836376  4.564451  3.072043
H    0.693927  2.360729  2.361606
H    -1.141303  6.098142  1.956483
N    -3.177644  -0.698398  4.489246
C    -3.847643  -1.767994  5.229468
H    -3.751038  0.089301  4.196564
H    -3.096072  -2.431876  5.661703
H    -4.501927  -2.337475  4.557420
H    -4.453064  -1.327438  6.029418
Ba    1.130227  -2.468770  3.939253
