30
Energy: -244756.1008469  eV PBE+vdW (tier 2 basis)
C    -0.796707  -2.295703  1.995223
C    -0.834083  -0.856723  2.389413
O    -0.094728  -0.001244  1.809414
H    0.241205  -2.647945  1.958687
H    -1.203722  -2.382270  0.976286
H    -1.379901  -2.941829  2.659288
N    -1.687019  -0.480884  3.351033
C    -2.030476  0.909192  3.690324
C    -0.945915  1.529306  4.597607
O    0.093594  2.017246  4.056603
H    -2.318590  -1.196033  3.706762
H    -1.986017  1.493602  2.757862
C    -3.466980  0.977932  4.226726
C    -4.451297  0.535593  3.188579
N    -5.786202  0.306847  3.463540
C    -4.332817  0.299317  1.829964
C    -6.393905  -0.041916  2.287260
N    -5.537696  -0.058433  1.285716
H    -3.660980  2.016605  4.543127
H    -3.563940  0.351226  5.134597
H    -6.249248  0.407248  4.361229
H    -3.448040  0.369968  1.202657
H    -7.452720  -0.272747  2.226270
N    -1.128354  1.532338  5.907087
C    -0.200271  2.079426  6.897198
H    -1.993259  1.129012  6.259490
H    0.573370  2.655819  6.385685
H    0.261915  1.265024  7.469183
H    -0.750523  2.731552  7.584641
Ba    1.346304  1.925475  1.946550
