30
Energy: -244756.8771249  eV PBE+vdW (tier 2 basis)
C    1.293932  2.072048  2.889611
C    -0.203140  2.189143  2.916833
O    -0.755424  3.018904  3.679067
H    1.659838  1.941336  3.915975
H    1.715882  3.016570  2.519063
H    1.668437  1.253046  2.266618
N    -0.880363  1.361685  2.086324
C    -2.314583  1.156642  1.814286
C    -3.039728  2.412970  1.296103
O    -2.963015  3.528710  1.874245
H    -0.278204  0.758138  1.534585
H    -2.308586  0.437460  0.987061
C    -3.112656  0.424450  2.949989
C    -3.275439  1.189380  4.215546
N    -2.471965  1.038790  5.324974
C    -4.074453  2.276640  4.512222
C    -2.753747  2.040191  6.202683
N    -3.714875  2.829279  5.729591
H    -2.612315  -0.536692  3.131074
H    -4.103176  0.180191  2.540081
H    -1.795548  0.295687  5.477578
H    -4.914011  2.658489  3.936087
H    -2.261616  2.143578  7.164616
N    -3.805389  2.271322  0.211769
C    -4.019602  1.090153  -0.632022
H    -4.284757  3.126725  -0.066412
H    -4.491386  0.271728  -0.074548
H    -3.081660  0.746255  -1.086353
H    -4.696441  1.376407  -1.441810
Ba    -2.495008  4.742771  4.040165
