30
Energy: -244756.2782014  eV PBE+vdW (tier 2 basis)
C    -0.525789  1.948717  0.578097
C    -0.216616  0.997946  1.694366
O    0.986402  0.590807  1.864362
H    0.118221  2.834684  0.652713
H    -1.572765  2.267215  0.564879
H    -0.296143  1.458244  -0.378244
N    -1.221806  0.611082  2.466289
C    -1.287389  -0.424378  3.491945
C    -2.779682  -0.894888  3.406884
O    -3.585648  -0.131999  2.869118
H    -2.197799  0.885061  2.229225
H    -0.585430  -1.233909  3.248095
C    -1.000719  0.116258  4.928255
C    0.343547  0.747851  5.017609
N    0.552961  2.107377  4.939432
C    1.609377  0.199756  4.975481
C    1.884716  2.344326  4.826070
N    2.563789  1.195792  4.829646
H    -1.069290  -0.721669  5.634524
H    -1.790671  0.827329  5.207311
H    -0.168806  2.820987  5.009430
H    1.882452  -0.847119  5.086920
H    2.313781  3.340521  4.784264
N    -3.075133  -2.074802  3.969511
C    -4.432427  -2.622109  4.020666
H    -2.322248  -2.646419  4.338072
H    -5.121275  -1.871669  3.624463
H    -4.702998  -2.856585  5.056632
H    -4.499459  -3.532267  3.412615
Ba    3.311849  0.407862  2.400371
