30
Energy: -244756.1905512  eV PBE+vdW (tier 2 basis)
C    -0.868443  -0.023171  0.148869
C    -0.540228  0.129390  1.598392
O    0.587863  0.582367  1.965295
H    -1.847576  -0.479656  -0.028881
H    -0.093826  -0.626033  -0.342267
H    -0.846628  0.969772  -0.322621
N    -1.467452  -0.208096  2.505663
C    -1.324391  -0.034399  3.955650
C    -0.398646  -1.134918  4.521352
O    0.843617  -0.873379  4.637147
H    -2.335150  -0.634433  2.179729
H    -0.773151  0.903176  4.114507
C    -2.715387  0.128275  4.633109
C    -3.721308  -0.937053  4.344768
N    -4.537574  -0.940857  3.216885
C    -4.048144  -2.108126  5.007753
C    -5.310430  -2.077672  3.278688
N    -5.018640  -2.806189  4.332535
H    -3.099698  1.115633  4.336366
H    -2.549498  0.184271  5.717539
H    -4.739042  -0.138360  2.626363
H    -3.682033  -2.450276  5.973913
H    -6.063972  -2.308659  2.531624
N    -0.914388  -2.307148  4.828455
C    -0.174015  -3.448761  5.362935
H    -1.931543  -2.412807  4.697756
H    0.769342  -3.107690  5.796548
H    0.025442  -4.178778  4.567464
H    -0.780680  -3.930907  6.136898
Ba    2.513576  0.439483  3.445566
