30
Energy: -244756.8768796  eV PBE+vdW (tier 2 basis)
C    1.283442  2.082098  2.842521
C    -0.213974  2.195388  2.867124
O    -0.768908  3.037536  3.613705
H    1.649301  1.970530  3.871164
H    1.702844  3.021145  2.455549
H    1.660538  1.253311  2.234209
N    -0.888569  1.350762  2.051903
C    -2.322140  1.136960  1.783106
C    -3.050140  2.381575  1.241126
O    -2.975736  3.508361  1.797731
H    -0.284583  0.738639  1.511732
H    -2.313886  0.402431  0.969496
C    -3.118956  0.424192  2.931970
C    -3.285335  1.212807  4.182463
N    -2.483033  1.085435  5.295622
C    -4.087385  2.303601  4.457221
C    -2.768430  2.102743  6.153646
N    -3.730813  2.880287  5.664272
H    -2.615791  -0.531716  3.131932
H    -4.108327  0.168986  2.525980
H    -1.804946  0.347119  5.463293
H    -4.927043  2.672353  3.872773
H    -2.277889  2.225699  7.114088
N    -3.815688  2.217518  0.159884
C    -4.027520  1.019913  -0.661026
H    -4.296872  3.066418  -0.134602
H    -4.705457  1.289025  -1.475755
H    -4.497079  0.211203  -0.087733
H    -3.088997  0.669594  -1.109208
Ba    -2.512628  4.764086  3.940812
