30
Energy: -244756.1329658  eV PBE+vdW (tier 2 basis)
C    -0.555700  1.036636  0.904164
C    -0.145812  -0.320785  1.378341
O    1.066985  -0.703328  1.228199
H    -1.580695  1.306443  1.172400
H    -0.441353  1.108902  -0.185936
H    0.128959  1.773060  1.346734
N    -1.015838  -1.130852  1.974645
C    -2.471491  -1.172748  1.815673
C    -2.930802  -2.321736  2.742406
O    -2.181081  -3.307036  2.854211
H    -0.667004  -2.033437  2.326830
H    -2.924978  -0.214680  2.090432
C    -2.860666  -1.541396  0.325197
C    -1.801831  -2.385224  -0.305106
N    -1.484287  -3.662894  0.105899
C    -0.773446  -2.026321  -1.151710
C    -0.302500  -4.018626  -0.442397
N    0.175510  -3.036314  -1.216644
H    -2.961037  -0.620587  -0.262190
H    -3.844577  -2.029920  0.320042
H    -1.970925  -4.172718  0.846201
H    -0.679932  -1.111916  -1.730601
H    0.153404  -4.992243  -0.290950
N    -4.135056  -2.232783  3.319237
C    -5.074318  -1.109781  3.290396
H    -4.385418  -3.044660  3.880879
H    -5.369726  -0.850908  2.265600
H    -4.665343  -0.225212  3.796236
H    -5.978398  -1.412682  3.825716
Ba    2.438354  -1.921254  -0.345902
