30
Energy: -244756.3858109  eV PBE+vdW (tier 2 basis)
C    0.105850  2.347492  0.800873
C    -0.438124  0.992236  0.501838
O    0.306516  -0.018249  0.403965
H    -0.664390  3.100886  0.992479
H    0.818645  2.305959  1.631983
H    0.672766  2.668888  -0.087782
N    -1.777756  0.827710  0.273929
C    -2.838712  1.347514  1.133838
C    -2.371090  1.294493  2.614057
O    -1.496821  0.461008  2.977822
H    -1.973254  -0.095400  -0.110906
H    -3.092558  2.384465  0.868630
C    -4.125811  0.467378  0.919444
C    -3.789365  -0.989854  0.970386
N    -3.563889  -1.762820  -0.159624
C    -3.300827  -1.758994  2.007941
C    -2.935240  -2.912095  0.218598
N    -2.728720  -2.926547  1.532638
H    -4.570624  0.737636  -0.047672
H    -4.864292  0.728257  1.687951
H    -3.904128  -1.560715  -1.098169
H    -3.357941  -1.545355  3.071520
H    -2.669141  -3.700405  -0.478937
N    -2.952832  2.150021  3.446260
C    -2.700124  2.244289  4.884694
H    -3.623379  2.807407  3.053942
H    -2.424623  3.273935  5.140197
H    -3.601793  1.966505  5.444219
H    -1.881554  1.571193  5.148319
Ba    -0.246789  -1.684839  2.258564
