30
Energy: -244756.8987330  eV PBE+vdW (tier 2 basis)
C    -1.529347  -1.825979  0.087295
C    -1.500424  -0.852530  1.228380
O    -2.273384  -1.001756  2.206153
H    -2.544677  -1.856464  -0.329890
H    -1.314848  -2.830386  0.476866
H    -0.820307  -1.596706  -0.714768
N    -0.608525  0.159073  1.135550
C    -0.254690  1.272802  2.044399
C    -0.172540  0.859519  3.532396
O    -1.188765  0.733669  4.261954
H    -0.054074  0.146305  0.283908
H    0.769003  1.526535  1.737018
C    -1.069228  2.580271  1.791572
C    -2.440749  2.633534  2.375166
N    -2.761447  3.391990  3.480560
C    -3.591057  1.917250  2.101321
C    -4.036143  3.091453  3.859786
N    -4.564747  2.175506  3.053099
H    -1.118876  2.722239  0.702467
H    -0.468247  3.417386  2.174635
H    -2.162869  4.084761  3.923047
H    -3.784481  1.261119  1.257825
H    -4.538857  3.574756  4.692082
N    1.061030  0.691511  4.008776
C    1.372759  0.329329  5.390886
H    1.844035  0.797646  3.370151
H    2.310247  0.813388  5.681484
H    1.486945  -0.758216  5.489343
H    0.566782  0.671756  6.045264
Ba    -3.540518  -0.215762  4.176274
