30
Energy: -244755.9454178  eV PBE+vdW (tier 2 basis)
C    1.658605  0.980604  0.497010
C    0.996958  0.280036  1.643049
O    1.692875  -0.369768  2.481867
H    2.086681  0.216531  -0.168982
H    0.978964  1.610348  -0.086495
H    2.495528  1.588892  0.860793
N    -0.338694  0.367555  1.735409
C    -1.293060  -0.398777  2.555683
C    -1.274123  -0.058335  4.055534
O    -0.191166  0.111427  4.701361
H    -0.777082  0.927646  1.009282
H    -2.268145  -0.078418  2.170932
C    -1.221277  -1.941234  2.323139
C    -2.490951  -2.590184  2.773175
N    -2.548988  -3.704672  3.588618
C    -3.816368  -2.237772  2.575107
C    -3.872515  -3.977565  3.822371
N    -4.657249  -3.097703  3.235862
H    -0.349139  -2.367763  2.838655
H    -1.050317  -2.093417  1.246079
H    -1.770190  -4.294852  3.861823
H    -4.218476  -1.437126  1.957233
H    -4.196329  -4.826373  4.416651
N    -2.455542  -0.016336  4.647834
C    -2.684083  0.187122  6.076401
H    -3.264865  -0.280234  4.081976
H    -1.823460  0.695617  6.517037
H    -2.844374  -0.776775  6.577496
H    -3.578924  0.804878  6.205005
Ba    2.193712  -0.258349  4.842095
