30
Energy: -244756.9734125  eV PBE+vdW (tier 2 basis)
C    -0.266564  1.890301  -1.000655
C    -1.015559  1.160788  0.076851
O    -0.528144  0.126741  0.594752
H    0.666212  2.286593  -0.575816
H    0.018929  1.176168  -1.783466
H    -0.824660  2.717021  -1.452515
N    -2.210563  1.685452  0.435385
C    -3.215788  1.283440  1.439335
C    -2.656929  1.196497  2.876787
O    -1.736999  0.411049  3.217817
H    -2.458839  2.529852  -0.071747
H    -3.919418  2.126222  1.437148
C    -4.098920  0.054817  1.030058
C    -3.386218  -1.243613  0.900306
N    -2.871627  -1.735247  -0.280312
C    -2.937933  -2.123882  1.865818
C    -2.102682  -2.822928  0.002470
N    -2.103418  -3.077768  1.308194
H    -4.604414  0.320196  0.090975
H    -4.891001  -0.036842  1.786873
H    -3.054628  -1.369505  -1.210822
H    -3.209215  -2.143976  2.918773
H    -1.588186  -3.401367  -0.758456
N    -3.246435  1.993425  3.767979
C    -2.892123  2.017718  5.188201
H    -3.968580  2.633703  3.453268
H    -2.984369  1.014867  5.620992
H    -1.862859  2.372973  5.320696
H    -3.575832  2.696538  5.704207
Ba    -0.144237  -1.414232  2.493902
