30
Energy: -244756.9734645  eV PBE+vdW (tier 2 basis)
C    -0.211995  2.055550  -0.799515
C    -0.968395  1.276713  0.237523
O    -0.453322  0.260190  0.763358
H    0.684503  2.486573  -0.332494
H    0.136048  1.367233  -1.580160
H    -0.788944  2.863348  -1.261784
N    -2.200881  1.738839  0.552366
C    -3.224081  1.277251  1.511589
C    -2.718580  1.205953  2.969489
O    -1.772535  0.466551  3.340687
H    -2.469101  2.576832  0.044804
H    -3.968867  2.083511  1.486811
C    -4.027334  0.009647  1.059050
C    -3.247727  -1.252077  0.953213
N    -2.665214  -1.712935  -0.208048
C    -2.795483  -2.114787  1.932678
C    -1.856878  -2.764311  0.100927
N    -1.895671  -3.025266  1.404848
H    -4.505449  0.256554  0.100800
H    -4.845068  -0.125638  1.781283
H    -2.829513  -1.351919  -1.143870
H    -3.105706  -2.152985  2.974299
H    -1.286558  -3.314005  -0.641283
N    -3.383405  1.962639  3.842501
C    -3.086474  1.992085  5.275761
H    -4.125348  2.567284  3.504281
H    -2.082173  2.396778  5.451037
H    -3.822805  2.631659  5.768982
H    -3.145351  0.982174  5.697843
Ba    -0.065691  -1.273440  2.668024
