30
Energy: -244756.4178051  eV PBE+vdW (tier 2 basis)
C    -1.030848  -1.010315  3.690768
C    -0.347185  0.037833  2.879521
O    0.898970  0.036109  2.707358
H    -0.697054  -2.011425  3.394383
H    -2.122957  -0.945204  3.667460
H    -0.710299  -0.867425  4.735191
N    -1.075624  1.061417  2.336742
C    -2.296242  0.878374  1.556116
C    -2.178448  -0.432005  0.732419
O    -1.051979  -0.828228  0.327434
H    -0.464172  1.790270  1.972675
H    -3.181078  0.843291  2.208352
C    -2.453059  2.110581  0.594980
C    -1.368901  2.125983  -0.433865
N    -1.503130  1.577053  -1.691869
C    -0.007316  2.346551  -0.301973
C    -0.266311  1.441220  -2.244079
N    0.675171  1.876106  -1.412026
H    -2.427836  3.020295  1.211081
H    -3.447024  2.077290  0.131187
H    -2.380964  1.353915  -2.153941
H    0.513826  2.893760  0.481870
H    -0.101786  1.054630  -3.245266
N    -3.314050  -1.069408  0.467417
C    -3.433456  -2.302903  -0.311375
H    -4.166829  -0.703402  0.885124
H    -4.223174  -2.188071  -1.062352
H    -3.691082  -3.140646  0.348747
H    -2.480757  -2.508569  -0.804300
Ba    1.485591  -0.288079  0.243222
