30
Energy: -244756.4170968  eV PBE+vdW (tier 2 basis)
C    -1.349674  -1.005903  3.612976
C    -0.581110  -0.030418  2.787351
O    0.666345  -0.116076  2.649000
H    -2.434714  -0.875458  3.556455
H    -1.048594  -0.846251  4.660807
H    -1.070459  -2.035217  3.359877
N    -1.229150  1.018312  2.193004
C    -2.438360  0.886954  1.384886
C    -2.384630  -0.455209  0.607514
O    -1.276209  -0.935844  0.246201
H    -0.563195  1.694495  1.822946
H    -3.340350  0.930871  2.012664
C    -2.490130  2.093074  0.380159
C    -1.380672  2.004787  -0.617428
N    -1.516737  1.423497  -1.860567
C    -0.011721  2.143552  -0.454216
C    -0.277123  1.191580  -2.373017
N    0.668116  1.594016  -1.528991
H    -2.422466  3.019793  0.966990
H    -3.471666  2.107229  -0.110319
H    -2.394613  1.240027  -2.339774
H    0.522526  2.682488  0.326498
H    -0.111335  0.762017  -3.356326
N    -3.552130  -1.027276  0.332300
C    -3.731748  -2.276077  -0.409054
H    -4.389596  -0.593701  0.714944
H    -4.494593  -2.137137  -1.183364
H    -4.057843  -3.073320  0.270724
H    -2.782851  -2.558151  -0.870564
Ba    1.292684  -0.561653  0.214325
