30
Energy: -244756.8787933  eV PBE+vdW (tier 2 basis)
C    0.432891  -1.232222  0.689285
C    0.207354  -0.201903  1.758535
O    1.162771  0.503652  2.163619
H    1.276989  -1.869789  0.981363
H    0.725510  -0.721320  -0.238490
H    -0.439129  -1.861469  0.482378
N    -1.057913  -0.099970  2.229073
C    -1.689863  0.753094  3.251983
C    -1.581775  2.262235  2.963177
O    -0.490540  2.824049  2.682912
H    -1.708641  -0.742414  1.787341
H    -2.751807  0.495194  3.166374
C    -1.328933  0.395582  4.736462
C    0.082392  0.650289  5.131608
N    1.070822  -0.309915  5.148611
C    0.748018  1.836316  5.373489
C    2.270205  0.306784  5.331273
N    2.113755  1.622580  5.451719
H    -1.598595  -0.657999  4.892162
H    -2.001084  0.980618  5.380447
H    0.932004  -1.313300  5.064730
H    0.312221  2.818909  5.538301
H    3.211783  -0.229960  5.390699
N    -2.700875  2.982974  3.062492
C    -4.072300  2.543543  3.342984
H    -2.564809  3.978628  2.892009
H    -4.433380  1.842902  2.579303
H    -4.160136  2.093554  4.339520
H    -4.717608  3.425967  3.316908
Ba    2.028675  2.719392  2.846732
