30
Energy: -244756.9726496  eV PBE+vdW (tier 2 basis)
C    -0.391678  2.100406  -0.904367
C    -1.088925  1.301283  0.158391
O    -0.522256  0.307507  0.674633
H    -1.011619  2.882295  -1.355404
H    0.500363  2.568650  -0.465479
H    -0.039541  1.419988  -1.690063
N    -2.327842  1.720578  0.506241
C    -3.306536  1.227708  1.495705
C    -2.759920  1.185122  2.939785
O    -1.773100  0.489069  3.287952
H    -2.640852  2.544785  0.001748
H    -4.081656  2.005199  1.486297
C    -4.073254  -0.072444  1.072868
C    -3.250572  -1.305765  0.957941
N    -2.683226  -1.757601  -0.214312
C    -2.740689  -2.140926  1.933040
C    -1.828967  -2.775640  0.082573
N    -1.822860  -3.023791  1.389582
H    -4.583121  0.148407  0.124685
H    -4.867739  -0.231172  1.815975
H    -2.885371  -1.412425  -1.148708
H    -3.020816  -2.179170  2.983143
H    -1.259409  -3.312419  -0.669615
N    -3.434571  1.915191  3.827801
C    -3.103230  1.963028  5.252934
H    -4.208661  2.488040  3.506595
H    -2.129274  2.444395  5.405082
H    -3.874213  2.541018  5.768774
H    -3.071961  0.949918  5.669729
Ba    -0.022503  -1.192232  2.580473
