30
Energy: -244756.2350204  eV PBE+vdW (tier 2 basis)
C    -2.253296  2.405890  0.940891
C    -1.482979  1.133998  1.098266
O    -0.211633  1.142118  0.957020
H    -1.789909  3.167561  1.582291
H    -2.178033  2.767797  -0.093696
H    -3.309752  2.318096  1.208347
N    -2.099939  -0.006024  1.406146
C    -3.485062  -0.389180  1.101334
C    -3.645080  -1.814359  1.675250
O    -2.722115  -2.625506  1.486128
H    -1.504670  -0.831826  1.539626
H    -4.190694  0.314057  1.559899
C    -3.716822  -0.431650  -0.463057
C    -2.449371  -0.751482  -1.185582
N    -1.775309  -1.945824  -1.051324
C    -1.570652  0.074985  -1.855704
C    -0.540917  -1.812704  -1.582152
N    -0.368925  -0.581728  -2.082280
H    -4.517822  -1.150001  -0.684797
H    -4.069084  0.549530  -0.803870
H    -2.098659  -2.711854  -0.449201
H    -1.748906  1.086125  -2.210795
H    0.179950  -2.623680  -1.622711
N    -4.798617  -2.088327  2.292070
C    -5.142832  -3.407433  2.822189
H    -5.466177  -1.335730  2.431241
H    -4.326500  -4.097292  2.594064
H    -6.070283  -3.766479  2.360698
H    -5.278805  -3.351336  3.908733
Ba    1.450893  0.862257  -0.785021
