30
Energy: -244755.9953684  eV PBE+vdW (tier 2 basis)
C    -0.845450  -0.414319  -0.033189
C    -0.520295  -0.157274  1.402084
O    0.653590  -0.350249  1.839538
H    -0.902083  -1.505557  -0.171404
H    -0.039857  -0.042165  -0.675657
H    -1.800264  0.019459  -0.348776
N    -1.513072  0.273660  2.198598
C    -1.581743  0.295679  3.669472
C    -0.745267  1.420039  4.288370
O    0.524533  1.381398  4.248090
H    -2.413326  0.361596  1.736362
H    -2.637000  0.499452  3.879098
C    -1.239884  -1.080009  4.343340
C    -1.854925  -2.242940  3.654985
N    -3.164592  -2.661764  3.824104
C    -1.354726  -3.066884  2.662449
C    -3.374353  -3.704129  2.960571
N    -2.299425  -3.962563  2.240923
H    -1.547624  -1.005704  5.397633
H    -0.151434  -1.223093  4.355713
H    -3.817544  -2.348430  4.535248
H    -0.348941  -3.075821  2.250800
H    -4.319119  -4.236426  2.909535
N    -1.354074  2.411017  4.927987
C    -2.790804  2.663416  5.092726
H    -0.719485  3.078778  5.366140
H    -3.307613  2.661864  4.126334
H    -2.907143  3.657312  5.533697
H    -3.249497  1.933350  5.771246
Ba    2.483415  0.339307  3.235984
