30
Energy: -244756.0711836  eV PBE+vdW (tier 2 basis)
C    -2.322088  -0.349710  -0.177467
C    -1.709937  -0.709213  1.144531
O    -0.728119  -1.428946  1.294773
H    -3.389111  -0.107210  -0.106600
H    -2.172622  -1.174353  -0.881386
H    -1.798337  0.528737  -0.583098
N    -2.321143  -0.182618  2.289458
C    -1.559220  -0.297489  3.513896
C    -1.446561  -1.770852  3.953684
O    -0.427543  -2.164637  4.611420
H    -2.987410  0.578985  2.191470
H    -0.515666  0.005770  3.326303
C    -2.133961  0.610359  4.638274
C    -1.298055  0.464212  5.867248
N    -1.712086  -0.175156  7.013132
C    0.059270  0.656366  6.048859
C    -0.631981  -0.384490  7.815515
N    0.473778  0.093643  7.247282
H    -3.183492  0.357844  4.844691
H    -2.114269  1.651112  4.284140
H    -2.672775  -0.415961  7.245738
H    0.742871  1.211753  5.409567
H    -0.697149  -0.847559  8.795286
N    -2.462405  -2.567032  3.682296
C    -2.520923  -3.998902  3.958661
H    -3.179229  -2.159753  3.081018
H    -3.568286  -4.298171  4.061183
H    -1.989026  -4.220136  4.888109
H    -2.064936  -4.564814  3.135104
Ba    1.661412  -1.869779  5.766916
