30
Energy: -244756.9721533  eV PBE+vdW (tier 2 basis)
C    -0.536405  2.178965  -0.969971
C    -1.182280  1.336955  0.092290
O    -0.574048  0.349304  0.571640
H    -1.190975  2.950413  -1.388940
H    0.351640  2.665683  -0.543197
H    -0.183482  1.526193  -1.778425
N    -2.423260  1.712295  0.480706
C    -3.363088  1.169794  1.481749
C    -2.783373  1.115008  2.912382
O    -1.759631  0.454759  3.221318
H    -2.772204  2.537755  0.002580
H    -4.161611  1.922926  1.505326
C    -4.098935  -0.145535  1.050638
C    -3.241961  -1.351314  0.898619
N    -2.690914  -1.770312  -0.293398
C    -2.682173  -2.182749  1.849264
C    -1.798751  -2.765222  -0.031834
N    -1.751887  -3.029809  1.271140
H    -4.633509  0.075818  0.116305
H    -4.873692  -0.340522  1.805871
H    -2.926543  -1.418901  -1.217544
H    -2.934265  -2.243376  2.905382
H    -1.232483  -3.274528  -0.805298
N    -3.470232  1.790752  3.833453
C    -3.111361  1.814876  5.252680
H    -4.276408  2.335370  3.543743
H    -3.872645  2.383536  5.792670
H    -3.071161  0.795269  5.653204
H    -2.135241  2.294918  5.393116
Ba    0.022880  -1.160319  2.441536
