30
Energy: -244756.2710870  eV PBE+vdW (tier 2 basis)
C    -0.776730  -0.149055  0.066969
C    -0.470801  0.035720  1.517831
O    0.630406  0.549896  1.889135
H    -1.734712  -0.647157  -0.114168
H    0.027386  -0.723642  -0.410386
H    -0.791946  0.839484  -0.414159
N    -1.390315  -0.342085  2.412704
C    -1.346803  -0.093285  3.860934
C    -0.415207  -1.094038  4.589529
O    0.839918  -0.882280  4.551721
H    -2.255363  -0.763267  2.069046
H    -0.853309  0.879767  4.003211
C    -2.779378  0.034691  4.406706
C    -3.695457  -1.117969  4.104563
N    -5.031700  -1.083006  4.449613
C    -3.544903  -2.344224  3.463466
C    -5.606728  -2.249153  4.021414
N    -4.732093  -3.029577  3.423629
H    -3.199536  0.962294  3.984440
H    -2.707778  0.212637  5.492214
H    -5.509202  -0.329438  4.935310
H    -2.652026  -2.784293  3.024684
H    -6.658279  -2.470189  4.176343
N    -0.947125  -2.106704  5.244580
C    -0.210344  -3.118872  5.997815
H    -1.964818  -2.224518  5.164239
H    -0.645781  -3.209025  6.999584
H    0.838602  -2.826035  6.077451
H    -0.287769  -4.089064  5.490618
Ba    2.551791  0.360388  3.341964
