30
Energy: -244756.8995408  eV PBE+vdW (tier 2 basis)
C    2.122682  0.315993  1.655708
C    0.862380  -0.124702  2.339751
O    0.904169  -0.593110  3.503741
H    2.602584  1.090734  2.268941
H    2.819394  -0.531671  1.610232
H    1.969148  0.706669  0.644387
N    -0.284929  0.019407  1.639586
C    -1.702416  -0.251769  1.969207
C    -2.098739  0.170395  3.403316
O    -1.851093  -0.534776  4.414447
H    -0.157906  0.410678  0.710275
H    -2.246544  0.417216  1.288614
C    -2.183596  -1.682070  1.571137
C    -1.825192  -2.790060  2.503203
N    -2.738137  -3.401873  3.335185
C    -0.608966  -3.344029  2.857021
C    -2.068281  -4.245808  4.170819
N    -0.761934  -4.217004  3.922604
H    -1.780531  -1.889194  0.569402
H    -3.275319  -1.635762  1.449875
H    -3.746554  -3.273016  3.312535
H    0.357279  -3.192366  2.384890
H    -2.564171  -4.871293  4.907112
N    -2.769892  1.318489  3.493392
C    -3.266259  1.891115  4.744211
H    -2.933565  1.850121  2.643283
H    -3.464952  1.086623  5.457533
H    -4.193130  2.436368  4.540829
H    -2.530491  2.585127  5.171510
Ba    0.031961  -1.926435  5.393254
