30
Energy: -244756.2702313  eV PBE+vdW (tier 2 basis)
C    -0.660582  0.501217  0.483835
C    -0.502437  0.620637  1.964979
O    0.478283  1.255236  2.465208
H    -0.775119  1.510263  0.062607
H    -1.521267  -0.107278  0.187821
H    0.252092  0.075177  0.047677
N    -1.425782  0.052360  2.748581
C    -1.534138  0.194997  4.207951
C    -0.526570  -0.716612  4.952852
O    0.682003  -0.325623  5.045287
H    -2.189852  -0.458125  2.302372
H    -1.201782  1.214537  4.454459
C    -3.008663  0.077425  4.631113
C    -3.715309  -1.171051  4.181376
N    -5.060867  -1.363452  4.424065
C    -3.335031  -2.307411  3.472921
C    -5.418947  -2.565654  3.875460
N    -4.396491  -3.157410  3.295735
H    -3.527637  0.963401  4.229753
H    -3.050051  0.184317  5.727415
H    -5.680107  -0.729720  4.920806
H    -2.357703  -2.573725  3.076181
H    -6.431337  -2.953322  3.933896
N    -0.954111  -1.842639  5.488437
C    -0.140947  -2.794830  6.241718
H    -1.933234  -2.096757  5.305154
H    0.847828  -2.369176  6.424339
H    -0.044760  -3.730001  5.675553
H    -0.632839  -3.010367  7.197267
Ba    2.282355  1.233586  4.073183
