30
Energy: -244756.0708912  eV PBE+vdW (tier 2 basis)
C    -0.686651  -1.375328  2.101394
C    -0.553961  0.110245  2.158699
O    0.586012  0.632530  2.408257
H    -0.459051  -1.742585  1.091098
H    -1.689553  -1.721458  2.365624
H    0.043144  -1.807750  2.794517
N    -1.599257  0.942066  2.014434
C    -2.802010  0.894734  1.148905
C    -3.182590  -0.513116  0.633090
O    -2.586283  -1.027183  -0.325973
H    -1.322860  1.906998  2.201214
H    -3.634258  1.302926  1.738152
C    -2.539148  1.868464  -0.058782
C    -1.133794  1.761254  -0.551184
N    -0.643184  0.624018  -1.146080
C    -0.027152  2.558338  -0.333407
C    0.697917  0.728990  -1.248687
N    1.121984  1.901245  -0.756921
H    -2.717919  2.899539  0.273265
H    -3.271961  1.657715  -0.848927
H    -1.249188  -0.209136  -1.256884
H    -0.002085  3.577552  0.044430
H    1.324024  -0.031651  -1.704831
N    -4.210728  -1.093001  1.272254
C    -4.774374  -2.387627  0.893669
H    -4.664915  -0.584529  2.024731
H    -4.175048  -2.804069  0.080176
H    -5.810044  -2.262354  0.555057
H    -4.759199  -3.069746  1.752078
Ba    2.539134  1.736918  1.460633
