30
Energy: -244756.1333911  eV PBE+vdW (tier 2 basis)
C    -0.676566  1.052189  0.423370
C    -0.128298  -0.214350  0.998468
O    1.085773  -0.543854  0.759112
H    -1.684410  1.294262  0.771296
H    -0.680416  1.001173  -0.673923
H    -0.001695  1.872917  0.702646
N    -0.874851  -0.995088  1.774199
C    -2.332796  -1.137095  1.782385
C    -2.614310  -2.192651  2.876285
O    -1.789953  -3.112682  3.015514
H    -0.430896  -1.828619  2.184860
H    -2.820253  -0.180338  1.997028
C    -2.847314  -1.700706  0.394429
C    -1.804125  -2.552887  -0.250559
N    -1.359883  -3.753457  0.262756
C    -0.895341  -2.239986  -1.240163
C    -0.219595  -4.105336  -0.369487
N    0.108165  -3.196329  -1.296402
H    -3.070262  -0.863000  -0.277536
H    -3.790905  -2.240619  0.552255
H    -1.732062  -4.198975  1.103996
H    -0.924267  -1.396567  -1.924119
H    0.314447  -5.027504  -0.161830
N    -3.757546  -2.106009  3.566517
C    -4.771285  -1.050715  3.514190
H    -3.892474  -2.858713  4.239196
H    -4.376207  -0.090062  3.870108
H    -5.592996  -1.339603  4.175253
H    -5.186452  -0.932997  2.505081
Ba    2.367771  -1.862398  -0.808928
