30
Energy: -244756.8778309  eV PBE+vdW (tier 2 basis)
C    1.428981  1.878166  3.079696
C    -0.057589  2.077661  3.001442
O    -0.618979  2.919714  3.743345
H    1.927016  2.805606  2.764525
H    1.803834  1.053223  2.464813
H    1.710932  1.705641  4.126177
N    -0.715090  1.308375  2.102176
C    -2.133781  1.192656  1.717637
C    -2.744670  2.500786  1.180153
O    -2.646147  3.597508  1.790320
H    -0.107490  0.684025  1.580393
H    -2.104257  0.493380  0.874016
C    -3.056359  0.482826  2.769579
C    -3.272926  1.228666  4.038430
N    -2.567185  1.007361  5.201191
C    -4.027727  2.355411  4.301026
C    -2.856774  2.005412  6.079878
N    -3.731132  2.860294  5.555635
H    -2.625792  -0.509177  2.963167
H    -4.024361  0.304572  2.279688
H    -1.949858  0.221453  5.386353
H    -4.796533  2.799093  3.672834
H    -2.434273  2.059620  7.078240
N    -3.434497  2.427732  0.039672
C    -3.654300  1.278950  -0.846404
H    -3.840384  3.315952  -0.252206
H    -4.252979  1.621504  -1.694936
H    -4.211586  0.478620  -0.344452
H    -2.707131  0.889584  -1.240999
Ba    -2.278959  4.735389  4.016613
