30
Energy: -244756.8126800  eV PBE+vdW (tier 2 basis)
C    -0.385217  0.456286  0.330370
C    -0.213377  0.362089  1.816540
O    0.897444  0.607214  2.349258
H    0.342055  -0.205800  -0.157798
H    -0.144900  1.480432  0.013321
H    -1.391265  0.201965  -0.018879
N    -1.303325  0.012586  2.535691
C    -1.488006  -0.120117  3.994944
C    -0.713447  0.957224  4.785752
O    0.447586  0.755746  5.233179
H    -2.141533  -0.166737  1.989276
H    -2.554389  0.095629  4.142632
C    -1.308713  -1.569779  4.531037
C    0.086778  -2.084663  4.654870
N    0.686222  -2.343158  5.868229
C    1.085426  -2.306004  3.722223
C    1.995629  -2.659664  5.649317
N    2.279239  -2.623290  4.350740
H    -1.892261  -2.227919  3.870484
H    -1.807577  -1.616205  5.509596
H    0.227559  -2.321783  6.775769
H    1.004978  -2.295153  2.639392
H    2.681923  -2.934831  6.444727
N    -1.337219  2.113005  5.013193
C    -2.679350  2.534752  4.598353
H    -0.799143  2.773105  5.573364
H    -2.792084  3.592724  4.851105
H    -3.459694  1.975435  5.131052
H    -2.812511  2.431898  3.515228
Ba    2.637172  0.192010  4.079037
