30
Energy: -244756.1899766  eV PBE+vdW (tier 2 basis)
C    -0.761789  -0.017526  0.266776
C    -0.529595  0.229465  1.721836
O    0.552995  0.754678  2.127547
H    -0.751204  0.948016  -0.258913
H    -1.709098  -0.525314  0.058331
H    0.065058  -0.612097  -0.142530
N    -1.494920  -0.100553  2.591259
C    -1.450620  0.165023  4.033610
C    -0.513253  -0.852082  4.722747
O    0.705513  -0.522234  4.898357
H    -2.321639  -0.584969  2.240829
H    -0.953734  1.136429  4.166513
C    -2.887486  0.298457  4.615123
C    -3.823479  -0.829831  4.330924
N    -4.564880  -0.938538  3.157418
C    -4.136951  -1.976454  5.041307
C    -5.286202  -2.107584  3.239623
N    -5.028647  -2.759623  4.350883
H    -3.296604  1.247159  4.236717
H    -2.793123  0.424550  5.702238
H    -4.766091  -0.181601  2.509369
H    -3.817877  -2.244452  6.046781
H    -5.978868  -2.418157  2.463056
N    -0.992934  -2.027704  5.072345
C    -0.237035  -3.093654  5.727859
H    -1.993121  -2.192887  4.885130
H    -0.876285  -3.565502  6.481645
H    0.650170  -2.675443  6.209954
H    0.062573  -3.854548  4.995234
Ba    2.387124  0.792978  3.726031
