30
Energy: -244756.8995427  eV PBE+vdW (tier 2 basis)
C    1.990187  0.944189  1.657156
C    0.790859  0.401067  2.376328
O    0.851902  0.144688  3.603620
H    2.824505  0.239806  1.774034
H    1.826508  1.130020  0.590654
H    2.295050  1.882073  2.140775
N    -0.324697  0.218592  1.634931
C    -1.687675  -0.253027  1.969084
C    -2.235432  0.315995  3.298583
O    -1.916306  -0.149240  4.422229
H    -0.217954  0.471268  0.656407
H    -2.302426  0.182671  1.169658
C    -1.881850  -1.793619  1.809545
C    -1.386422  -2.646969  2.928071
N    -2.222967  -3.268467  3.830286
C    -0.113676  -2.902148  3.403802
C    -1.463471  -3.824564  4.816724
N    -0.170663  -3.598703  4.600621
H    -1.390489  -2.083710  0.869741
H    -2.955405  -1.971426  1.652698
H    -3.235379  -3.332400  3.759242
H    0.835696  -2.656489  2.937292
H    -1.882067  -4.398260  5.638098
N    -3.115642  1.309035  3.172839
C    -3.779391  1.973148  4.294060
H    -3.328489  1.650651  2.240034
H    -3.211553  2.857643  4.610967
H    -3.862762  1.275127  5.131340
H    -4.779138  2.286408  3.978573
Ba    0.124149  -0.991361  5.673605
