30
Energy: -244756.1902109  eV PBE+vdW (tier 2 basis)
C    -0.797538  -0.190356  0.269555
C    -0.503963  0.050596  1.714472
O    0.621813  0.508708  2.082053
H    -1.777695  -0.646456  0.096274
H    -0.018578  -0.830870  -0.163349
H    -0.752635  0.770886  -0.262247
N    -1.461262  -0.211304  2.615531
C    -1.358137  0.062842  4.053135
C    -0.474285  -1.012598  4.724399
O    0.771039  -0.771451  4.852457
H    -2.326459  -0.645464  2.293601
H    -0.791022  0.998147  4.161692
C    -2.765038  0.303275  4.671514
C    -3.781583  -0.766385  4.442844
N    -4.558777  -0.859807  3.291532
C    -4.151872  -1.867851  5.196271
C    -5.353425  -1.975159  3.427410
N    -5.110847  -2.609880  4.552066
H    -3.121834  1.268607  4.282046
H    -2.630245  0.446925  5.752149
H    -4.727041  -0.110725  2.625222
H    -3.823629  -2.126883  6.201131
H    -6.084641  -2.261957  2.677496
N    -1.026556  -2.145734  5.105304
C    -0.329423  -3.260866  5.742854
H    -2.043162  -2.236379  4.957621
H    -0.128484  -4.052832  5.009489
H    -0.967892  -3.669562  6.533264
H    0.610985  -2.911151  6.175816
Ba    2.502186  0.421684  3.624399
