30
Energy: -244756.0714407  eV PBE+vdW (tier 2 basis)
C    -0.527672  1.444550  -0.469515
C    -0.565413  0.438488  0.632881
O    0.296671  -0.510171  0.660851
H    -0.507451  0.943338  -1.444652
H    0.416900  2.002300  -0.382690
H    -1.350918  2.163599  -0.432018
N    -1.454197  0.516612  1.616924
C    -2.815793  1.041151  1.640791
C    -3.342569  0.533376  3.019689
O    -2.826702  -0.486487  3.499577
H    -1.383876  -0.187792  2.374734
H    -2.825901  2.138092  1.598845
C    -3.730353  0.473035  0.480495
C    -3.230850  -0.813661  -0.095452
N    -3.012477  -1.001083  -1.447715
C    -2.685091  -1.934722  0.494646
C    -2.341534  -2.163085  -1.634053
N    -2.100823  -2.752528  -0.460287
H    -3.795440  1.221189  -0.320334
H    -4.750395  0.360854  0.874303
H    -3.347983  -0.394390  -2.192321
H    -2.688370  -2.178379  1.554865
H    -2.079428  -2.550866  -2.613095
N    -4.355997  1.218828  3.558090
C    -5.013853  0.846766  4.811019
H    -4.651881  2.080520  3.109183
H    -6.094948  0.757435  4.653913
H    -4.821771  1.605810  5.578947
H    -4.610290  -0.112886  5.143325
Ba    0.390406  -2.919896  0.510054
