30
Energy: -244756.1288746  eV PBE+vdW (tier 2 basis)
C    -0.117508  -0.196544  -0.181608
C    -0.255371  -0.388694  1.293248
O    0.408856  -1.292322  1.894502
H    -0.714629  0.637130  -0.564678
H    -0.413228  -1.118975  -0.699643
H    0.940932  -0.021649  -0.418351
N    -1.091750  0.415311  1.957330
C    -1.209944  0.537603  3.415088
C    -1.876779  -0.706423  4.039451
O    -1.149847  -1.680121  4.410359
H    -1.438769  1.244679  1.451779
H    -0.195212  0.559542  3.843409
C    -1.918135  1.894432  3.738785
C    -1.426715  3.013397  2.889675
N    -0.268637  3.735884  3.109227
C    -1.896129  3.468564  1.665856
C    -0.112899  4.588120  2.045940
N    -1.071465  4.437490  1.155420
H    -1.806178  2.091151  4.813719
H    -2.999201  1.816849  3.547313
H    0.295689  3.735611  3.952817
H    -2.818695  3.187788  1.160816
H    0.707078  5.297290  1.985468
N    -3.191113  -0.727429  4.185871
C    -3.959509  -1.828621  4.767607
H    -3.714347  0.085503  3.872002
H    -4.346286  -2.486334  3.978097
H    -4.802808  -1.412468  5.327688
H    -3.319934  -2.401063  5.444218
Ba    0.794531  -2.925701  3.611591
