30
Energy: -244756.9726973  eV PBE+vdW (tier 2 basis)
C    -0.512399  2.219630  -0.967115
C    -1.128905  1.378899  0.113317
O    -0.489679  0.418854  0.608184
H    -0.148224  1.562781  -1.767275
H    -1.189529  2.966886  -1.393962
H    0.365728  2.735784  -0.554735
N    -2.379050  1.724313  0.500094
C    -3.297203  1.173059  1.516361
C    -2.705877  1.156910  2.943158
O    -1.670677  0.517698  3.258279
H    -2.754518  2.530152  0.008705
H    -4.115432  1.904893  1.534245
C    -4.000549  -0.167688  1.110574
C    -3.111469  -1.350383  0.963161
N    -2.554172  -1.762401  -0.228409
C    -2.524521  -2.158936  1.917096
C    -1.633339  -2.730047  0.036124
N    -1.573431  -2.983816  1.340707
H    -4.551907  0.026696  0.179964
H    -4.760721  -0.375122  1.877179
H    -2.804159  -1.424969  -1.154026
H    -2.770257  -2.218596  2.974788
H    -1.056262  -3.228776  -0.736254
N    -3.394118  1.843881  3.854806
C    -3.022249  1.904981  5.269428
H    -4.210832  2.370221  3.560778
H    -3.786437  2.474628  5.804205
H    -2.963234  0.895225  5.691994
H    -2.051850  2.401943  5.389458
Ba    0.152270  -1.056700  2.490167
