30
Energy: -244756.1803883  eV PBE+vdW (tier 2 basis)
C    0.616626  -0.586999  1.199454
C    -0.092384  -0.603415  2.519503
O    0.039001  -1.614663  3.295930
H    0.466932  0.344693  0.645112
H    0.246273  -1.422290  0.588804
H    1.692366  -0.745719  1.350955
N    -0.839110  0.447096  2.826511
C    -1.781116  0.652679  3.921757
C    -2.825328  1.632726  3.291075
O    -2.475603  2.253532  2.282991
H    -1.003063  1.197491  2.122682
H    -2.227278  -0.308135  4.209967
C    -1.130877  1.332390  5.167755
C    0.001860  0.527149  5.698731
N    1.323689  0.791604  5.414310
C    0.024505  -0.688953  6.350660
C    2.086492  -0.241101  5.855126
N    1.321405  -1.175797  6.422328
H    -1.899536  1.450962  5.942211
H    -0.801369  2.343769  4.892237
H    1.677014  1.645984  4.989555
H    -0.812920  -1.212767  6.805891
H    3.169511  -0.258325  5.783919
N    -4.021941  1.785569  3.880637
C    -4.570763  1.117476  5.053895
H    -4.606556  2.486728  3.427961
H    -5.647586  0.976971  4.911288
H    -4.419612  1.706939  5.969578
H    -4.127203  0.124091  5.184876
Ba    0.856574  -3.257686  4.831300
