30
Energy: -244755.9954116  eV PBE+vdW (tier 2 basis)
C    -0.897196  -0.293402  -0.144956
C    -0.524790  -0.074362  1.285137
O    0.647225  -0.335155  1.691252
H    -0.088359  0.044968  -0.801937
H    -1.834860  0.194602  -0.431534
H    -1.014808  -1.378070  -0.296071
N    -1.473911  0.396888  2.111456
C    -1.505161  0.402022  3.583775
C    -0.594978  1.472125  4.194998
O    0.669582  1.364392  4.126179
H    -2.379075  0.539016  1.672925
H    -2.542585  0.658475  3.822605
C    -1.220735  -0.999038  4.231591
C    -1.912775  -2.118299  3.543947
N    -3.238319  -2.470240  3.740126
C    -1.480870  -2.953123  2.528708
C    -3.523559  -3.487697  2.868575
N    -2.481450  -3.791874  2.119153
H    -1.498915  -0.923152  5.293948
H    -0.141442  -1.199547  4.215655
H    -3.856293  -2.133000  4.471315
H    -0.487176  -3.008988  2.092098
H    -4.496050  -3.968968  2.833980
N    -1.134334  2.488238  4.857110
C    -2.551194  2.818018  5.054915
H    -0.454519  3.115544  5.287123
H    -3.036096  2.106105  5.734463
H    -3.086716  2.857467  4.099561
H    -2.602830  3.811191  5.509664
Ba    2.544189  0.231864  3.053236
