30
Energy: -244756.0712133  eV PBE+vdW (tier 2 basis)
C    -0.736670  -1.620280  1.706287
C    -0.505218  -0.167579  1.958823
O    0.676953  0.248565  2.211706
H    -0.587103  -1.853988  0.643093
H    -1.744777  -1.942171  1.981311
H    -0.001214  -2.186983  2.287592
N    -1.500153  0.734835  1.990070
C    -2.745036  0.878346  1.197946
C    -3.238323  -0.417980  0.513027
O    -2.721984  -0.823120  -0.540062
H    -1.152842  1.646588  2.290769
H    -3.519824  1.243276  1.885705
C    -2.481345  1.999081  0.125343
C    -1.111426  1.885784  -0.457423
N    -0.723284  0.819457  -1.232072
C    0.052651  2.581087  -0.194652
C    0.615099  0.863334  -1.395907
N    1.135915  1.928263  -0.770930
H    -2.578191  2.980200  0.608431
H    -3.264113  1.944685  -0.642818
H    -1.385277  0.045025  -1.421765
H    0.160440  3.533310  0.319006
H    1.168771  0.141822  -1.988813
N    -4.270056  -1.023969  1.121385
C    -4.932506  -2.217583  0.598358
H    -4.654137  -0.603519  1.962078
H    -4.911978  -3.018151  1.347441
H    -4.406037  -2.541485  -0.302911
H    -5.975599  -1.989032  0.348180
Ba    2.646265  1.368182  1.316801
