30
Energy: -244756.3856322  eV PBE+vdW (tier 2 basis)
C    -0.364492  2.658637  0.875172
C    -0.686175  1.248730  0.514425
O    0.211279  0.379962  0.354919
H    0.110722  3.114910  -0.008323
H    -1.242250  3.261857  1.126725
H    0.372772  2.694955  1.684761
N    -1.985196  0.877626  0.294365
C    -3.099891  1.170583  1.192545
C    -2.601437  1.119349  2.662708
O    -1.593858  0.425787  2.971381
H    -2.033631  -0.045251  -0.135130
H    -3.526099  2.163552  0.986402
C    -4.228562  0.101534  0.944370
C    -3.655267  -1.280560  0.913590
N    -3.327226  -1.946575  -0.258644
C    -3.025686  -2.009833  1.903034
C    -2.509150  -2.992865  0.050304
N    -2.277547  -3.040020  1.359560
H    -4.729777  0.343569  -0.002447
H    -4.985506  0.196843  1.733077
H    -3.712322  -1.754364  -1.181782
H    -3.096982  -1.863566  2.977158
H    -2.130204  -3.689360  -0.691418
N    -3.300995  1.820687  3.547035
C    -3.039771  1.877573  4.986033
H    -4.079367  2.376493  3.199110
H    -2.945427  2.923785  5.298809
H    -3.866468  1.413169  5.537704
H    -2.109895  1.346810  5.201167
Ba    -0.021593  -1.444014  2.126390
