30
Energy: -244756.0743482  eV PBE+vdW (tier 2 basis)
C    0.284347  0.046708  0.119536
C    0.147231  0.034910  1.613764
O    1.188859  -0.144808  2.341024
H    1.020749  0.801979  -0.186603
H    -0.659585  0.247269  -0.396720
H    0.662461  -0.932066  -0.207154
N    -1.066702  0.214188  2.108399
C    -1.606656  0.063623  3.458199
C    -3.092513  -0.343718  3.174023
O    -3.539998  -0.108190  2.049082
H    -1.880836  0.273791  1.459506
H    -1.059178  -0.725662  3.990570
C    -1.587253  1.393149  4.276934
C    -0.221543  1.712927  4.774430
N    0.287503  1.232839  5.965573
C    0.857621  2.295240  4.148983
C    1.617367  1.496698  6.016729
N    2.007841  2.129884  4.907587
H    -2.293648  1.310869  5.113886
H    -1.959213  2.203747  3.636926
H    -0.254490  0.815572  6.718247
H    0.860373  2.833297  3.205036
H    2.242179  1.261459  6.872631
N    -3.819202  -0.894811  4.161232
C    -3.417506  -1.254284  5.514150
H    -4.787257  -1.072830  3.898576
H    -2.352395  -1.510791  5.553547
H    -3.975463  -2.143817  5.825342
H    -3.629558  -0.450511  6.234942
Ba    3.316465  0.592341  3.172627
