30
Energy: -244756.0711843  eV PBE+vdW (tier 2 basis)
C    -1.321102  1.396727  -1.028507
C    -0.940121  0.750895  0.262464
O    0.168761  0.114103  0.354785
H    -1.264534  0.672105  -1.849848
H    -0.577190  2.177531  -1.246355
H    -2.309412  1.864653  -1.006948
N    -1.708979  0.844805  1.341560
C    -3.156846  0.966468  1.480027
C    -3.365488  0.721968  3.007745
O    -2.519496  0.044289  3.608979
H    -1.352581  0.414465  2.214857
H    -3.506386  1.966690  1.192882
C    -3.961461  -0.116607  0.653264
C    -3.153066  -1.327775  0.311579
N    -3.027042  -1.812840  -0.977033
C    -2.234049  -2.055212  1.038776
C    -2.056125  -2.757048  -1.004835
N    -1.528490  -2.915262  0.211348
H    -4.325328  0.342697  -0.275158
H    -4.857641  -0.388299  1.228759
H    -3.607186  -1.548264  -1.769759
H    -2.055692  -1.991438  2.110042
H    -1.788887  -3.312361  -1.898018
N    -4.480641  1.227408  3.544015
C    -4.868402  1.038268  4.942340
H    -5.066039  1.827509  2.970651
H    -4.842628  1.996616  5.474851
H    -4.161568  0.347263  5.408253
H    -5.880943  0.622032  4.996585
Ba    0.976565  -2.130389  0.744699
