30
Energy: -244756.1238887  eV PBE+vdW (tier 2 basis)
C    0.145972  -0.634217  -0.267651
C    0.052328  -0.282214  1.181290
O    1.091004  0.011863  1.846977
H    0.563740  0.227261  -0.808120
H    -0.816862  -0.901113  -0.715431
H    0.849686  -1.465994  -0.400837
N    -1.159156  -0.270089  1.758292
C    -1.449751  0.202088  3.119677
C    -1.123067  -0.910420  4.144644
O    0.090902  -1.081099  4.481078
H    -1.954460  -0.518272  1.174146
H    -0.735918  1.010350  3.338465
C    -2.863335  0.795525  3.170596
C    -3.144791  1.463086  4.479458
N    -4.307533  2.165024  4.732071
C    -2.411738  1.579628  5.646681
C    -4.220818  2.660157  6.005624
N    -3.085952  2.319779  6.582014
H    -3.615658  0.017971  2.931430
H    -2.931290  1.523709  2.344705
H    -5.080491  2.313171  4.090806
H    -1.431608  1.169817  5.877837
H    -5.010553  3.255872  6.452307
N    -2.100327  -1.656611  4.621065
C    -1.952934  -2.719363  5.614256
H    -3.050375  -1.389882  4.373707
H    -0.909555  -3.039017  5.653600
H    -2.588751  -3.565071  5.331564
H    -2.262251  -2.350347  6.601255
Ba    2.347546  -0.353594  3.890493
