30
Energy: -244756.1284709  eV PBE+vdW (tier 2 basis)
C    -0.076442  -0.272152  -0.074870
C    -0.264049  -0.410235  1.400525
O    0.364702  -1.303531  2.053485
H    0.992544  -0.128446  -0.283639
H    -0.642315  0.560632  -0.504558
H    -0.376862  -1.205246  -0.570710
N    -1.106076  0.430352  2.010093
C    -1.268918  0.602185  3.458527
C    -1.979312  -0.609485  4.098412
O    -1.283831  -1.583017  4.525829
H    -1.423822  1.246731  1.465901
H    -0.268158  0.619883  3.918809
C    -1.962113  1.980775  3.716826
C    -1.427208  3.063909  2.847742
N    -0.265758  3.776994  3.080525
C    -1.851381  3.485671  1.595711
C    -0.064260  4.592124  1.995915
N    -0.996914  4.425903  1.080745
H    -1.878365  2.210149  4.787897
H    -3.038356  1.914844  3.496170
H    0.271159  3.796769  3.941597
H    -2.762249  3.201792  1.071453
H    0.767395  5.287817  1.938804
N    -3.298380  -0.603736  4.197543
C    -4.105856  -1.673627  4.784700
H    -3.795491  0.207786  3.840402
H    -3.497378  -2.240172  5.494056
H    -4.482838  -2.344076  4.001216
H    -4.956406  -1.226547  5.308953
Ba    0.664939  -2.885046  3.834942
