30
Energy: -244756.1008184  eV PBE+vdW (tier 2 basis)
C    -0.739663  -0.459447  -0.470249
C    -0.665685  -0.565397  1.016660
O    0.178176  -1.334028  1.575082
H    -0.771704  -1.460711  -0.916447
H    0.183407  0.023508  -0.825462
H    -1.596003  0.125761  -0.820719
N    -1.491318  0.190655  1.751480
C    -1.392015  0.397364  3.205259
C    -2.018777  -0.791595  3.965625
O    -1.314134  -1.829668  4.158503
H    -2.073085  0.855978  1.245661
H    -0.322818  0.367430  3.467612
C    -1.934915  1.784807  3.574375
C    -1.127903  2.868712  2.929249
N    -1.515364  4.195235  2.922757
C    0.092616  2.861930  2.276672
C    -0.533065  4.906885  2.287918
N    0.447615  4.125140  1.883810
H    -1.916687  1.874423  4.673544
H    -2.996660  1.869978  3.271303
H    -2.355471  4.586855  3.336510
H    0.746835  2.019422  2.068153
H    -0.591125  5.981961  2.150160
N    -3.266929  -0.696785  4.390903
C    -4.000727  -1.730317  5.121863
H    -3.760465  0.172413  4.201796
H    -4.759601  -2.184282  4.472015
H    -4.496459  -1.275098  5.986305
H    -3.301379  -2.496867  5.462418
Ba    0.701299  -2.936261  3.297244
