30
Energy: -244756.9725958  eV PBE+vdW (tier 2 basis)
C    -0.547160  2.233431  -0.851857
C    -1.182648  1.375039  0.203549
O    -0.547033  0.415152  0.703042
H    -0.169849  1.589450  -1.656592
H    -1.216131  2.988220  -1.278289
H    0.324460  2.741356  -0.416313
N    -2.445404  1.704237  0.562500
C    -3.385563  1.131821  1.546642
C    -2.834497  1.102275  2.989330
O    -1.797077  0.476510  3.323202
H    -2.815275  2.512748  0.071413
H    -4.210960  1.855755  1.550607
C    -4.064242  -0.210816  1.105769
C    -3.158445  -1.382007  0.968375
N    -2.566951  -1.775006  -0.213100
C    -2.584822  -2.192725  1.928352
C    -1.640604  -2.733436  0.064550
N    -1.609373  -2.999627  1.367569
H    -4.592418  -0.010706  0.163049
H    -4.842429  -0.435295  1.849169
H    -2.798773  -1.431607  -1.141154
H    -2.855776  -2.266574  2.978935
H    -1.038145  -3.216567  -0.698251
N    -3.562142  1.759615  3.892230
C    -3.234751  1.801052  5.318777
H    -4.378880  2.276957  3.582915
H    -3.171138  0.784868  5.724914
H    -2.277533  2.312296  5.477778
H    -4.025085  2.347568  5.839568
Ba    0.063647  -1.069983  2.587321
