30
Energy: -244756.0895513  eV PBE+vdW (tier 2 basis)
C    -1.052871  -0.395936  -0.100178
C    -0.644531  -0.193692  1.322102
O    0.546901  -0.426043  1.689322
H    -0.271698  -0.026911  -0.773850
H    -2.009538  0.075233  -0.349856
H    -1.150296  -1.480228  -0.267717
N    -1.579547  0.232922  2.186506
C    -1.557557  0.207881  3.659434
C    -0.653924  1.293460  4.262233
O    0.608833  1.219417  4.175153
H    -2.502467  0.360441  1.781434
H    -2.592877  0.439887  3.941009
C    -1.222266  -1.199509  4.263398
C    -1.893587  -2.323865  3.562811
N    -3.206418  -2.714174  3.769935
C    -1.454710  -3.125919  2.524810
C    -3.477846  -3.720559  2.881161
N    -2.439289  -3.981807  2.111157
H    -1.479243  -1.157802  5.332884
H    -0.138089  -1.368509  4.220867
H    -3.822775  -2.408655  4.516399
H    -0.466712  -3.146076  2.072395
H    -4.438105  -4.226033  2.850120
N    -1.249341  2.273734  4.928650
C    -0.560452  3.358709  5.628106
H    -2.265688  2.290274  4.940852
H    -0.511253  4.252686  4.992909
H    0.451688  3.038574  5.887712
H    -1.114470  3.599206  6.541140
Ba    2.467124  0.132296  3.015106
