30
Energy: -244756.1878454  eV PBE+vdW (tier 2 basis)
C    -0.834522  -1.153421  0.142463
C    -0.508856  -0.550443  1.469308
O    0.623683  -0.009210  1.679344
H    -1.813176  -1.643694  0.120131
H    -0.057735  -1.876935  -0.136079
H    -0.817600  -0.358111  -0.616672
N    -1.439680  -0.578887  2.428611
C    -1.327778  0.057560  3.743068
C    -0.433813  -0.807020  4.655379
O    0.814351  -0.563028  4.682674
H    -2.315877  -1.084360  2.259689
H    -0.771559  0.995935  3.608498
C    -2.746084  0.427272  4.270112
C    -3.746261  -0.681981  4.247911
N    -4.124495  -1.417882  5.369562
C    -4.423071  -1.283262  3.200784
C    -5.017284  -2.376379  4.942859
N    -5.190772  -2.332337  3.641442
H    -3.104082  1.247990  3.632439
H    -2.636271  0.853180  5.277044
H    -4.012938  -1.120216  6.335661
H    -4.453523  -0.972912  2.157493
H    -5.504178  -3.062388  5.629619
N    -0.977534  -1.792250  5.347674
C    -0.243429  -2.713897  6.215029
H    -1.986406  -1.934347  5.248828
H    -0.871125  -2.966865  7.075376
H    0.676313  -2.236833  6.563056
H    0.002339  -3.636571  5.672921
Ba    2.523365  0.288290  3.141777
