30
Energy: -244756.1808506  eV PBE+vdW (tier 2 basis)
C    0.510666  -0.536721  1.084733
C    -0.126673  -0.599835  2.439466
O    0.055750  -1.632005  3.177069
H    0.322903  0.409038  0.567019
H    0.116738  -1.357971  0.469827
H    1.594442  -0.687634  1.174566
N    -0.865673  0.432761  2.817268
C    -1.748457  0.595573  3.967700
C    -2.835033  1.581979  3.424399
O    -2.547597  2.234829  2.416887
H    -1.074684  1.201364  2.146022
H    -2.168485  -0.378393  4.250991
C    -1.037791  1.246264  5.195857
C    0.130270  0.439219  5.640260
N    1.431922  0.727128  5.292644
C    0.200410  -0.795087  6.253347
C    2.227726  -0.309144  5.660523
N    1.504025  -1.268770  6.240153
H    -1.763989  1.333347  6.014192
H    -0.734085  2.268997  4.932891
H    1.753362  1.598104  4.876345
H    -0.605972  -1.341684  6.736918
H    3.305365  -0.311869  5.530365
N    -3.997970  1.705819  4.083886
C    -4.474788  0.999348  5.266060
H    -4.612932  2.413764  3.685274
H    -4.280894  1.565926  6.188138
H    -4.013484  0.008633  5.345617
H    -5.556127  0.848883  5.177940
Ba    0.974057  -3.308862  4.615644
