30
Energy: -244756.9734135  eV PBE+vdW (tier 2 basis)
C    -0.319033  1.954499  -0.998617
C    -1.040521  1.200580  0.080825
O    -0.504121  0.201869  0.619402
H    0.012379  1.246184  -1.768542
H    -0.914710  2.744588  -1.467712
H    0.586790  2.404909  -0.569444
N    -2.266403  1.664251  0.417979
C    -3.260037  1.221511  1.416213
C    -2.715433  1.191410  2.861338
O    -1.753605  0.469084  3.225547
H    -2.554354  2.486605  -0.104155
H    -4.011191  2.021811  1.390413
C    -4.065807  -0.062851  1.018583
C    -3.280355  -1.321940  0.925887
N    -2.725976  -1.810747  -0.237682
C    -2.795936  -2.154562  1.915922
C    -1.902371  -2.848161  0.077870
N    -1.904310  -3.073512  1.388946
H    -4.570418  0.155376  0.066992
H    -4.863457  -0.184043  1.765344
H    -2.918095  -1.476983  -1.178317
H    -3.077641  -2.166031  2.966228
H    -1.348371  -3.414490  -0.664189
N    -3.363738  1.964127  3.732655
C    -3.030063  2.030752  5.156494
H    -4.119127  2.554790  3.399492
H    -3.065731  1.030371  5.603137
H    -2.026540  2.450976  5.296124
H    -3.761120  2.673106  5.653931
Ba    -0.052702  -1.276477  2.553333
