30
Energy: -244756.2706965  eV PBE+vdW (tier 2 basis)
C    -0.616589  -1.342423  0.297430
C    -0.533588  -0.205085  1.263031
O    0.548582  0.444342  1.411261
H    -0.425349  -0.955656  -0.713860
H    -1.587494  -1.848278  0.306426
H    0.174704  -2.071112  0.515109
N    -1.630664  0.117976  1.956754
C    -1.795863  1.292614  2.825188
C    -1.136308  1.080802  4.210922
O    0.124040  1.236907  4.305982
H    -2.474086  -0.441061  1.815598
H    -1.210556  2.108166  2.374719
C    -3.270740  1.731113  2.825955
C    -4.264622  0.664033  3.191440
N    -5.624222  0.896058  3.129354
C    -4.167856  -0.664809  3.594717
C    -6.264485  -0.259195  3.489625
N    -5.409619  -1.217607  3.776360
H    -3.490705  2.111834  1.815063
H    -3.359118  2.603454  3.493990
H    -6.075219  1.767220  2.865741
H    -3.278165  -1.266244  3.768467
H    -7.346699  -0.337568  3.525862
N    -1.895808  0.777197  5.244744
C    -1.430279  0.569056  6.614157
H    -2.892232  0.614054  5.052958
H    -1.539023  -0.488330  6.887344
H    -2.038784  1.173791  7.296209
H    -0.382492  0.865769  6.694087
Ba    2.160238  1.342983  2.971369
