30
Energy: -244756.1008427  eV PBE+vdW (tier 2 basis)
C    -0.168104  -0.486225  -0.186676
C    -0.266123  -0.475164  1.302521
O    0.602947  -1.064447  2.018330
H    -1.051115  -0.069675  -0.682034
H    0.006474  -1.508013  -0.544256
H    0.709531  0.112120  -0.475478
N    -1.276205  0.196480  1.870200
C    -1.385277  0.523645  3.300855
C    -1.933840  -0.683302  4.092178
O    -1.126609  -1.597882  4.443570
H    -1.881058  0.725584  1.244837
H    -0.361909  0.668507  3.681316
C    -2.150908  1.842233  3.479395
C    -1.426890  2.978638  2.826011
N    -1.991160  4.226786  2.642050
C    -0.143574  3.101915  2.322487
C    -1.044024  5.023515  2.056647
N    0.079692  4.367357  1.848433
H    -2.275194  2.017795  4.561274
H    -3.170750  1.749630  3.057955
H    -2.923641  4.519946  2.915758
H    0.642776  2.352962  2.276324
H    -1.232773  6.062602  1.806085
N    -3.223497  -0.731488  4.379366
C    -3.893443  -1.801084  5.119585
H    -3.800994  0.046503  4.069259
H    -4.539404  -2.376969  4.445009
H    -4.507475  -1.360304  5.912914
H    -3.141664  -2.458880  5.560596
Ba    1.113214  -2.455785  3.918492
