30
Energy: -173737.311015 eV PBE+vdW (tier 2 basis)
C    -0.059196  -1.166340  0.187234
C    -0.251560  -0.786481  1.630530
O    0.820401  -0.175394  2.114293
H    0.081763  -0.262929  -0.421656
H    -0.919269  -1.736149  -0.178190
H    0.850887  -1.769002  0.076270
N    -1.393044  -1.069868  2.204534
C    -1.694874  -0.624534  3.552311
C    -1.013522  -1.477276  4.651489
O    -0.105141  -0.940389  5.393525
H    -3.079729  -0.586031  1.053226
H    -1.317711  0.407924  3.745523
C    -3.232166  -0.538218  3.775788
C    -3.939025  0.293214  2.757843
N    -3.797244  0.065934  1.397259
C    -4.872349  1.291678  2.876944
C    -4.592848  0.883603  0.703699
N    -5.256155  1.630998  1.594867
H    -3.437918  -0.128932  4.773298
H    -3.665194  -1.546928  3.750057
H    -5.299720  1.766732  3.750944
H    -4.686321  0.938029  -0.374451
H    -5.948782  2.336376  1.352930
N    -1.310224  -2.745873  4.865147
C    -2.231522  -3.629625  4.145752
H    -0.779541  -3.168379  5.629593
H    -3.191571  -3.707914  4.672083
H    -1.776670  -4.625534  4.109197
H    -2.371058  -3.275432  3.120937
Cd    1.084306  0.301741  4.117022
