30
Energy: -173737.932884 eV PBE+vdW (tier 2 basis)
C    -0.275871  -0.547022  -0.149277
C    -0.193302  -0.384525  1.320306
O    0.892179  -0.561795  1.946460
H    0.586333  -0.084632  -0.642945
H    -1.220948  -0.188513  -0.569258
H    -0.216205  -1.630907  -0.354518
N    -1.311370  -0.054779  2.062548
C    -2.211954  1.087370  1.844996
C    -1.395888  2.302932  1.359565
O    -0.188789  2.451371  1.717003
H    -1.310970  -0.445651  3.004538
H    -2.990137  0.834013  1.112214
C    -2.924917  1.393324  3.190075
C    -2.170010  2.021318  4.343298
N    -0.839334  1.804479  4.736802
C    -2.755860  2.796104  5.315684
C    -0.653460  2.443213  5.899240
N    -1.796490  3.038783  6.268305
H    -3.371855  0.441457  3.524004
H    -3.779993  2.047180  2.975764
H    -3.771422  3.160671  5.416482
H    0.269041  2.487182  6.466980
H    -1.928647  3.577977  7.121589
N    -1.977715  3.202307  0.577031
C    -3.333461  3.187350  0.014232
H    -1.383673  3.997877  0.341744
H    -3.411956  4.018508  -0.691690
H    -4.094695  3.327605  0.791518
H    -3.527603  2.258992  -0.536322
Cd    0.692376  1.162069  3.332795
