30
Energy: -173737.909236 eV PBE+vdW (tier 2 basis)
C    -0.731579  -0.919859  -0.008265
C    -0.479052  -0.691094  1.434384
O    0.662142  -0.881555  1.944473
H    -0.724212  -2.012909  -0.165788
H    0.081226  -0.509188  -0.618013
H    -1.708382  -0.551223  -0.337356
N    -1.500355  -0.283983  2.269824
C    -2.324730  0.916647  2.094747
C    -1.495242  2.051469  1.458081
O    -0.260656  2.195782  1.724364
H    -1.358748  -0.558659  3.242539
H    -3.195399  0.702483  1.461630
C    -2.860741  1.389806  3.484549
C    -2.034527  1.176408  4.735700
N    -0.639519  1.234299  4.895401
C    -2.577011  1.018304  5.990237
C    -0.379427  1.113842  6.203135
N    -1.532022  0.994586  6.879226
H    -3.819845  0.885990  3.661043
H    -3.098047  2.460939  3.395107
H    -3.609419  0.948113  6.312608
H    0.601781  1.104075  6.664090
H    -1.613089  0.900713  7.889860
N    -2.092611  2.905468  0.639654
C    -3.487051  2.910989  0.176938
H    -1.488605  3.657506  0.305863
H    -3.596035  3.727852  -0.541461
H    -4.185154  3.088533  1.004025
H    -3.741095  1.974696  -0.334831
Cd    0.751093  0.952406  3.231982
