30
Energy: -173738.619662 eV PBE+vdW (tier 2 basis)
C    0.555805  2.418209  3.205505
C    -0.147045  1.098339  3.274083
O    0.431023  0.068786  2.836445
H    -0.038307  3.255684  3.585930
H    0.844426  2.617321  2.165476
H    1.487781  2.347657  3.783587
N    -1.377007  1.081919  3.839550
C    -2.262358  -0.060081  4.105749
C    -1.521084  -1.243730  4.778260
O    -1.111521  -2.265901  4.138410
H    -1.729653  1.985904  4.140213
H    -2.940301  0.311182  4.884510
C    -3.232238  -0.490953  2.942047
C    -2.871526  -0.354784  1.491268
N    -1.886217  -1.092670  0.831870
C    -3.549664  0.361710  0.534075
C    -1.964667  -0.816194  -0.471287
N    -2.968467  0.054687  -0.673663
H    -4.142046  0.107391  3.075057
H    -3.540388  -1.529348  3.143869
H    -4.403275  1.024612  0.610017
H    -1.334591  -1.219907  -1.255415
H    -3.260043  0.410620  -1.581445
N    -1.371262  -1.218994  6.094559
C    -1.827673  -0.212240  7.058606
H    -0.894470  -2.039558  6.471776
H    -1.452519  -0.499581  8.044662
H    -2.923929  -0.177809  7.110706
H    -1.425104  0.778471  6.817961
Cd    -0.383916  -1.857217  2.157740
