30
Energy: -173737.20426 eV PBE+vdW (tier 2 basis)
C    -0.135641  -0.011932  -0.013879
C    -0.036763  0.425518  1.424621
O    0.891708  1.073568  1.871879
H    0.615328  0.537213  -0.588893
H    -1.128109  0.177806  -0.444650
H    0.086766  -1.085119  -0.113615
N    -1.095653  0.101538  2.301660
C    -1.963529  -1.048951  2.167362
C    -3.408359  -0.684385  2.588165
O    -4.273948  -1.552024  2.986194
H    -0.855727  0.373716  3.256743
H    -2.066968  -1.258997  1.089063
C    -1.364475  -2.359091  2.766074
C    -0.970904  -2.371329  4.210190
N    -1.852591  -2.743038  5.230683
C    0.245053  -2.128880  4.800981
C    -1.187689  -2.723486  6.391740
N    0.079647  -2.354212  6.149515
H    -0.465323  -2.568271  2.171331
H    -2.031199  -3.210651  2.545324
H    1.200194  -1.843766  4.374868
H    -1.583631  -2.970632  7.370154
H    0.809150  -2.277929  6.856564
N    -3.764488  0.566910  2.391905
C    -5.098876  1.133469  2.575931
H    -3.018427  1.173630  2.041000
H    -5.529463  1.378522  1.596304
H    -5.020407  2.052485  3.167855
H    -5.741690  0.408858  3.080137
Cd    -3.887473  -2.869936  4.587547
