30
Energy: -173737.673018 eV PBE+vdW (tier 2 basis)
C    -0.107108  0.197945  -0.231983
C    -0.101493  0.268260  1.256452
O    0.993025  -0.072673  1.843874
H    0.715602  0.807938  -0.628505
H    -1.054433  0.531167  -0.669106
H    0.088062  -0.839893  -0.538495
N    -1.208674  0.661203  1.896172
C    -1.447504  0.629166  3.343602
C    -2.916895  0.322506  3.762658
O    -3.061042  -0.403832  4.735145
H    -2.014498  0.827904  1.296507
H    -0.951441  -0.277281  3.733397
C    -0.933213  1.907154  4.103296
C    -0.415589  1.608185  5.475372
N    0.751734  0.855694  5.656370
C    -0.874471  1.941424  6.721384
C    0.980526  0.738068  6.970757
N    0.010442  1.392918  7.624174
H    -1.742896  2.644180  4.172277
H    -0.147968  2.404572  3.506976
H    -1.740631  2.511703  7.033957
H    1.805369  0.216810  7.442544
H    -0.054359  1.471967  8.637706
N    -3.910914  0.894825  3.045165
C    -5.322555  0.678009  3.385523
H    -3.709273  1.655942  2.403852
H    -5.926487  0.782453  2.479090
H    -5.665113  1.398548  4.139476
H    -5.433751  -0.333301  3.786915
Cd    1.440947  0.051197  3.855813
