30
Energy: -173737.853414 eV PBE+vdW (tier 2 basis)
C    0.365504  -0.968399  -1.213653
C    0.089337  0.122656  -0.236928
O    1.129046  0.764410  0.205381
H    0.898564  -0.556382  -2.081121
H    -0.548417  -1.472231  -1.544236
H    1.037164  -1.701548  -0.744725
N    -1.160448  0.363032  0.124150
C    -1.722823  1.242691  1.145589
C    -3.092560  0.533376  1.469483
O    -3.566949  -0.173728  0.583565
H    -1.931181  -0.223755  -0.257612
H    -1.085068  1.239894  2.046690
C    -2.000764  2.705447  0.614973
C    -1.590693  3.839165  1.503991
N    -0.256849  4.051441  1.876532
C    -2.318977  4.877896  2.024923
C    -0.191424  5.177892  2.597931
N    -1.427508  5.688130  2.694645
H    -3.070816  2.804920  0.393234
H    -1.509015  2.815704  -0.366541
H    -3.375584  5.109511  1.960413
H    0.697948  5.619305  3.033151
H    -1.662110  6.552554  3.180281
N    -3.687500  0.786899  2.645787
C    -3.120784  1.412689  3.837775
H    -4.575679  0.299015  2.757020
H    -3.943872  1.701127  4.498902
H    -2.571501  2.327665  3.587685
H    -2.464746  0.724463  4.389631
Cd    1.016195  2.532382  1.219757
