30
Energy: -173737.792516 eV PBE+vdW (tier 2 basis)
C    1.231115  -1.212533  1.769375
C    0.325428  -1.315107  2.959523
O    0.555834  -1.972378  3.961947
H    2.208429  -0.838141  2.100516
H    0.845191  -0.569144  0.970784
H    1.401564  -2.220227  1.368027
N    -0.897649  -0.605251  2.878532
C    -1.702269  -0.562531  4.069620
C    -2.807211  -1.636891  4.096729
O    -3.418287  -1.924749  5.200587
H    -0.989210  0.130841  2.183952
H    -0.996024  -0.929300  4.853506
C    -2.241068  0.865237  4.426818
C    -1.599547  1.497555  5.628337
N    -1.712345  0.941826  6.907744
C    -0.881016  2.657193  5.759118
C    -1.077480  1.740500  7.774310
N    -0.573392  2.781969  7.097296
H    -3.334640  0.839526  4.571175
H    -2.095779  1.528816  3.565846
H    -0.581722  3.397651  5.027192
H    -0.977453  1.588595  8.842870
H    -0.044311  3.545581  7.515152
N    -3.089687  -2.277575  2.992977
C    -4.055058  -3.366536  2.832924
H    -2.527923  -1.994992  2.185904
H    -4.474442  -3.631184  3.805807
H    -3.544509  -4.233024  2.396993
H    -4.857740  -3.045326  2.158126
Cd    -2.681709  -0.935625  6.887187
