30
Energy: -173737.152374 eV PBE+vdW (tier 2 basis)
C    0.736237  -0.268354  0.562217
C    -0.211025  0.516124  1.427890
O    -0.324707  1.774732  0.993269
H    0.397400  -0.244500  -0.482149
H    0.800521  -1.301886  0.915114
H    1.732443  0.192179  0.582735
N    -0.791240  -0.089962  2.424185
C    -1.821571  0.536813  3.219501
C    -1.230154  1.396899  4.359496
O    -1.325655  2.683739  4.288753
H    -5.579485  -0.801651  3.111241
H    -2.445388  1.258681  2.640533
C    -2.824547  -0.537422  3.734407
C    -3.533463  -1.252362  2.629224
N    -4.917543  -1.265856  2.493648
C    -3.060425  -2.038423  1.606668
C    -5.282246  -2.021398  1.449918
N    -4.157593  -2.490859  0.902845
H    -3.559140  -0.064334  4.401869
H    -2.283760  -1.282967  4.328424
H    -2.045685  -2.307404  1.347237
H    -6.294937  -2.217554  1.117416
H    -4.128252  -3.105669  0.092029
N    -0.594518  0.888470  5.399167
C    -0.244067  -0.504207  5.694611
H    -0.252904  1.593058  6.055362
H    -0.132827  -1.068695  4.764375
H    -0.988344  -0.967749  6.354607
H    0.720152  -0.499922  6.213614
Cd    -1.069275  3.239482  2.241797
