30
Energy: -173737.32651 eV PBE+vdW (tier 2 basis)
C    0.654695  0.956652  0.410438
C    0.221777  0.672601  1.812761
O    0.756801  1.354775  2.748923
H    1.747375  0.850486  0.355677
H    0.427080  2.003454  0.167790
H    0.191601  0.297693  -0.331274
N    -0.681262  -0.299986  2.009965
C    -1.142810  -0.974105  3.240246
C    -2.275755  -0.216454  3.967495
O    -2.250956  1.055756  4.139737
H    -1.030844  -0.724659  1.154508
H    -1.581534  -1.909570  2.873723
C    -0.013974  -1.388483  4.223298
C    -0.308118  -2.720981  4.833155
N    -1.581394  -3.242138  4.858488
C    0.580966  -3.629087  5.404687
C    -1.477711  -4.434702  5.427850
N    -0.182980  -4.697965  5.768883
H    0.108767  -0.617930  5.025504
H    0.952257  -1.412090  3.703289
H    1.654249  -3.602434  5.553591
H    -2.290550  -5.129775  5.610755
H    0.154926  -5.547438  6.215142
N    -3.264773  -0.953941  4.418001
C    -4.412899  -0.466763  5.176988
H    -3.101148  -1.975480  4.365109
H    -4.305527  0.602532  5.372209
H    -4.480074  -1.021412  6.120656
H    -5.329676  -0.641901  4.599800
Cd    -0.341508  1.967346  4.479605
