30
Energy: -173738.647078 eV PBE+vdW (tier 2 basis)
C    -1.217876  -0.359747  -0.594340
C    -0.727919  -0.334613  0.818518
O    0.406374  -0.847595  1.057891
H    -2.218630  0.065994  -0.720919
H    -1.219954  -1.399929  -0.947731
H    -0.505370  0.188798  -1.225387
N    -1.541905  0.220090  1.742195
C    -1.441234  0.312361  3.214935
C    -0.417517  1.388119  3.622368
O    0.802739  1.305677  3.295088
H    -2.408368  0.586777  1.358818
H    -2.426993  0.682409  3.510218
C    -1.286298  -1.107092  3.906855
C    -0.275963  -1.326026  4.993271
N    1.091532  -1.472137  4.739589
C    -0.473317  -1.575985  6.329046
C    1.691574  -1.784647  5.888159
N    0.764214  -1.857527  6.860067
H    -1.120972  -1.854035  3.116255
H    -2.269610  -1.358644  4.320801
H    -1.377040  -1.608438  6.925656
H    2.750675  -1.961589  6.036332
H    0.952291  -2.105553  7.829025
N    -0.837143  2.444771  4.310792
C    -2.195309  2.803873  4.736318
H    -0.096984  3.116629  4.517644
H    -2.833387  3.050576  3.878156
H    -2.122021  3.693658  5.367843
H    -2.652880  2.007301  5.334446
Cd    1.612293  -0.684480  2.807093
