30
Energy: -173737.857608 eV PBE+vdW (tier 2 basis)
C    0.492150  0.142246  0.428576
C    0.035399  0.410205  1.821620
O    0.812297  1.126740  2.557977
H    -0.195144  -0.504369  -0.127256
H    1.486217  -0.325430  0.462589
H    0.609218  1.096543  -0.103583
N    -1.124197  -0.109059  2.237554
C    -1.723589  -0.033403  3.577437
C    -2.697847  -1.256571  3.818757
O    -3.848649  -1.029142  4.161247
H    -1.651757  -0.629640  1.537638
H    -0.908386  -0.161299  4.315493
C    -2.523017  1.282566  3.821448
C    -2.428646  1.824245  5.211328
N    -1.242141  2.394839  5.690765
C    -3.355195  1.924239  6.214629
C    -1.451635  2.824363  6.942190
N    -2.723733  2.550467  7.268290
H    -3.576224  1.051145  3.607478
H    -2.220349  2.055938  3.093572
H    -4.390241  1.606442  6.256845
H    -0.735286  3.316729  7.589498
H    -3.155879  2.784383  8.160637
N    -2.162111  -2.474659  3.611939
C    -2.927869  -3.710321  3.805343
H    -1.168174  -2.561445  3.425621
H    -2.559120  -4.472289  3.111798
H    -3.983240  -3.507891  3.601818
H    -2.827724  -4.075890  4.835469
Cd    0.300875  2.075316  4.321284
