30
Energy: -173737.234029 eV PBE+vdW (tier 2 basis)
C    0.649541  1.895171  1.030513
C    0.532393  1.032286  2.244937
O    1.576343  0.867250  2.951139
H    1.480719  1.541551  0.407822
H    0.903607  2.914048  1.357167
H    -0.271133  1.929646  0.438234
N    -0.665070  0.486953  2.523124
C    -1.095584  -0.107404  3.796834
C    -0.852998  -1.626066  3.816055
O    0.309954  -2.087909  4.083047
H    -1.405747  0.703194  1.859785
H    -0.450233  0.328645  4.582028
C    -2.513707  0.362878  4.154144
C    -2.490791  1.811769  4.553875
N    -1.329629  2.395557  4.983570
C    -3.546542  2.719209  4.637109
C    -1.658438  3.633879  5.332206
N    -2.990303  3.861580  5.135353
H    -2.872353  -0.243541  5.002583
H    -3.222199  0.196924  3.325802
H    -4.601781  2.638733  4.402848
H    -0.983671  4.387961  5.723811
H    -3.485045  4.728386  5.330690
N    -1.838273  -2.463097  3.557191
C    -1.701121  -3.925558  3.545494
H    -2.753096  -2.074656  3.344195
H    -1.219541  -4.254411  2.616019
H    -2.699059  -4.365945  3.614791
H    -1.094363  -4.245827  4.398414
Cd    1.946125  -0.706208  4.364220
