30
Energy: -173738.011381 eV PBE+vdW (tier 2 basis)
C    -0.422052  -1.386824  -0.620011
C    -1.197019  -1.502927  0.637985
O    -0.690115  -1.999935  1.683712
H    -0.903353  -0.740370  -1.361146
H    -0.372980  -2.399266  -1.059362
H    0.609360  -1.076680  -0.420367
N    -2.516109  -1.092248  0.688948
C    -3.002418  0.260479  0.393393
C    -1.937929  1.310649  0.781404
O    -1.238595  1.184770  1.833603
H    -3.065061  -1.589622  1.391273
H    -3.240809  0.367069  -0.675088
C    -4.318505  0.529958  1.197647
C    -4.556901  -0.148308  2.528105
N    -3.638616  -0.399212  3.561496
C    -5.799718  -0.504368  2.998893
C    -4.325901  -0.886780  4.601439
N    -5.629036  -0.946243  4.286978
H    -5.162819  0.247502  0.555860
H    -4.398495  1.619384  1.332393
H    -6.776543  -0.451464  2.532261
H    -3.913428  -1.198066  5.554489
H    -6.368839  -1.268390  4.908022
N    -1.814930  2.362902  -0.012037
C    -0.930156  3.506573  0.228839
H    -2.375810  2.382944  -0.861036
H    -0.166175  3.552761  -0.556571
H    -0.449949  3.390304  1.202642
H    -1.519078  4.430847  0.211380
Cd    -1.494022  -0.536440  3.181855
