30
Energy: -173737.507097 eV PBE+vdW (tier 2 basis)
C    0.106307  -0.531780  0.039115
C    0.074791  -0.506414  1.528161
O    1.051799  -1.080811  2.182133
H    -0.715831  0.029903  -0.415699
H    0.028637  -1.584460  -0.276758
H    1.070688  -0.166967  -0.336347
N    -0.951548  0.050626  2.143038
C    -1.426076  -0.046025  3.525783
C    -2.830331  0.637030  3.431102
O    -3.038960  1.366894  2.454890
H    -1.668675  0.589632  1.606319
H    -1.519604  -1.111211  3.782639
C    -0.561600  0.614921  4.644088
C    0.052832  1.954186  4.383550
N    1.388494  2.077016  3.985904
C    -0.437534  3.226471  4.533208
C    1.685896  3.379655  3.893738
N    0.593435  4.084862  4.223592
H    0.234724  -0.089587  4.946169
H    -1.191851  0.682548  5.540631
H    -1.413446  3.582861  4.839865
H    2.641578  3.809843  3.617183
H    0.547328  5.102029  4.259090
N    -3.724921  0.425846  4.408060
C    -3.669828  -0.490630  5.545318
H    -4.598821  0.930780  4.265449
H    -4.658561  -0.941515  5.682978
H    -3.398501  0.029166  6.474946
H    -2.962734  -1.307378  5.365438
Cd    2.197359  0.262008  3.257816
