30
Energy: -173737.631277 eV PBE+vdW (tier 2 basis)
C    -2.474690  1.123270  -0.390723
C    -2.017872  0.017911  0.503643
O    -1.372512  -0.942559  -0.045874
H    -1.591253  1.580962  -0.859050
H    -3.039186  1.895511  0.142384
H    -3.085451  0.707062  -1.202365
N    -2.291286  0.098000  1.811366
C    -1.735330  -0.698697  2.916267
C    -2.539449  -2.000137  3.177082
O    -2.174764  -3.107826  2.595142
H    -2.831653  0.910279  2.114519
H    -0.729765  -1.037282  2.611604
C    -1.502967  0.220410  4.146721
C    -2.664683  1.065408  4.565572
N    -3.899178  0.507169  4.848193
C    -2.709931  2.419699  4.831128
C    -4.672185  1.491273  5.281978
N    -3.982889  2.660465  5.284597
H    -0.650547  0.871247  3.911579
H    -1.177412  -0.424044  4.978146
H    -1.960631  3.199618  4.764892
H    -5.705274  1.403450  5.600070
H    -4.342816  3.558998  5.595644
N    -3.551324  -1.997989  3.995965
C    -4.355353  -3.182861  4.298711
H    -3.826109  -1.048388  4.446762
H    -5.253014  -2.856940  4.830652
H    -3.788890  -3.872356  4.938128
H    -4.636183  -3.708178  3.378778
Cd    -1.104102  -2.867492  0.805147
