30
Energy: -173737.575179 eV PBE+vdW (tier 2 basis)
C    0.015159  -0.358698  0.024035
C    0.037377  -0.231189  1.508684
O    1.178034  -0.404185  2.083319
H    0.742536  0.337245  -0.414562
H    -0.976442  -0.172734  -0.402287
H    0.339721  -1.373593  -0.248001
N    -1.101410  0.035257  2.156957
C    -1.294727  0.041362  3.609770
C    -2.619318  -0.561806  4.175143
O    -2.485439  -1.190910  5.217603
H    -1.922694  0.157512  1.568888
H    -0.597422  -0.711988  4.012537
C    -1.028787  1.438967  4.282419
C    -0.407825  1.333359  5.640191
N    0.881547  0.814166  5.812220
C    -0.870860  1.674424  6.882563
C    1.176448  0.837784  7.118790
N    0.130748  1.359598  7.774790
H    -1.969353  1.997992  4.358644
H    -0.385928  2.046442  3.621742
H    -1.812651  2.105881  7.198778
H    2.097947  0.505669  7.582595
H    0.090510  1.500842  8.782755
N    -3.808752  -0.318759  3.580356
C    -4.134222  0.489565  2.410164
H    -4.584088  -0.776256  4.057608
H    -5.185765  0.787307  2.474424
H    -4.020336  -0.068779  1.466129
H    -3.552059  1.420708  2.378460
Cd    1.655225  -0.013904  4.056090
