30
Energy: -173737.762157 eV PBE+vdW (tier 2 basis)
C    0.059259  -2.174854  -0.288650
C    0.454154  -1.730548  1.070879
O    1.492893  -2.188481  1.631242
H    -0.852249  -1.691418  -0.650717
H    -0.010411  -3.269081  -0.341788
H    0.884604  -1.892732  -0.965150
N    -0.241023  -0.755177  1.754264
C    -1.643694  -0.687559  2.197223
C    -1.567782  -0.276306  3.687732
O    -0.579843  -0.634129  4.404794
H    0.383600  -0.210987  2.352329
H    -2.182208  0.081158  1.626385
C    -2.431560  -2.021206  2.035990
C    -2.264508  -3.153058  3.020832
N    -1.075699  -3.624134  3.590336
C    -3.266931  -4.015760  3.397792
C    -1.372374  -4.725529  4.288711
N    -2.685017  -4.983963  4.179088
H    -2.246003  -2.392357  1.017385
H    -3.497225  -1.757843  2.041406
H    -4.321970  -4.033140  3.151137
H    -0.678365  -5.328204  4.863461
H    -3.165528  -5.774083  4.604217
N    -2.542451  0.447960  4.213840
C    -3.710999  1.032685  3.543899
H    -2.429781  0.643162  5.209195
H    -3.413304  1.623414  2.669576
H    -4.200604  1.704929  4.253559
H    -4.432796  0.260877  3.250141
Cd    0.698814  -2.349636  3.720892
