30
Energy: -173737.116868 eV PBE+vdW (tier 2 basis)
C    -1.332787  0.909430  -0.546896
C    -1.027985  0.731319  0.922592
O    0.277298  0.498489  1.084240
H    -2.397385  1.105315  -0.701243
H    -1.021192  0.016007  -1.103668
H    -0.748218  1.749993  -0.942540
N    -2.017498  0.809508  1.759465
C    -2.029658  0.574665  3.207764
C    -1.164231  1.515822  4.066934
O    0.030824  1.233160  4.462165
H    -3.388638  -0.526335  1.349249
H    -3.057569  0.820401  3.516680
C    -1.846879  -0.923101  3.574279
C    -2.977313  -1.741723  3.026560
N    -3.643644  -1.394112  1.860693
C    -3.569702  -2.897138  3.469900
C    -4.601876  -2.284254  1.592464
N    -4.562765  -3.206176  2.562528
H    -1.810037  -1.052502  4.664485
H    -0.898690  -1.319536  3.173441
H    -3.373124  -3.511605  4.339373
H    -5.285943  -2.266520  0.752292
H    -5.182216  -4.012030  2.617363
N    -1.683790  2.662406  4.467839
C    -3.022652  3.204189  4.209582
H    -1.061306  3.227395  5.048693
H    -3.754959  2.796031  4.918687
H    -3.329024  3.001397  3.178677
H    -2.975167  4.288474  4.349091
Cd    1.252123  0.504033  2.890308
