30
Energy: -173737.808958 eV PBE+vdW (tier 2 basis)
C    -0.083047  -0.544614  -0.462883
C    -0.210617  -0.380183  1.013967
O    0.814557  -0.512305  1.745168
H    -1.028232  -0.392724  -0.994927
H    0.301886  -1.550509  -0.678649
H    0.664252  0.168476  -0.836687
N    -1.443477  -0.087507  1.524853
C    -1.542784  0.122730  2.956889
C    -1.740036  -1.189285  3.744071
O    -0.736950  -1.683266  4.355753
H    -2.234693  -0.016759  0.891566
H    -0.506392  0.385002  3.116512
C    -2.153428  1.397654  3.560164
C    -1.265295  1.856828  4.709391
N    0.056361  1.430295  4.948858
C    -1.559050  2.820675  5.640948
C    0.512274  2.132674  5.992421
N    -0.439359  2.976187  6.421492
H    -3.184210  1.276162  3.914200
H    -2.169049  2.174387  2.780149
H    -2.454581  3.411692  5.791744
H    1.493855  2.047040  6.444008
H    -0.342302  3.625475  7.199213
N    -2.906129  -1.812290  3.779165
C    -4.160242  -1.453570  3.119840
H    -2.902163  -2.685125  4.310975
H    -4.411935  -2.206457  2.362333
H    -4.084146  -0.474760  2.638940
H    -4.967031  -1.414583  3.861268
Cd    1.040929  -0.413855  4.027100
