30
Energy: -173738.043149 eV PBE+vdW (tier 2 basis)
C    -1.581115  -2.714807  1.155936
C    -1.617922  -1.430453  1.919277
O    -1.062419  -1.178562  2.957300
H    -0.782628  -2.650539  0.398761
H    -2.518319  -2.934218  0.628627
H    -1.326821  -3.534034  1.835740
N    -2.435478  -0.354157  1.308372
C    -2.039623  1.016709  1.750956
C    -2.452671  1.215143  3.226379
O    -3.552033  0.754312  3.673899
H    -2.455760  -0.428214  0.285885
H    -0.941734  1.077472  1.711666
C    -2.582930  2.100302  0.779068
C    -4.055243  2.416176  0.666808
N    -5.117134  1.516801  0.819109
C    -4.591010  3.609143  0.244609
C    -6.247566  2.162722  0.510790
N    -5.949584  3.420714  0.151389
H    -2.201995  1.834608  -0.222024
H    -2.070039  3.037740  1.033860
H    -4.120904  4.550665  -0.013752
H    -7.250993  1.754218  0.542000
H    -6.626015  4.120348  -0.147488
N    -1.649745  1.930975  3.988795
C    -1.891929  2.229453  5.403809
H    -0.746067  2.197459  3.605071
H    -2.966798  2.221226  5.599809
H    -1.479919  3.217477  5.630581
H    -1.400315  1.476257  6.033153
Cd    -4.662287  -0.187937  2.071618
