30
Energy: -173737.003583 eV PBE+vdW (tier 2 basis)
C    0.343049  -0.360386  -0.121370
C    -0.306039  0.596835  0.840271
O    0.114149  1.841588  0.628253
H    0.036181  -1.387290  0.097942
H    1.435219  -0.278036  -0.060963
H    0.056663  -0.100474  -1.149593
N    -1.170977  0.128765  1.699201
C    -1.971698  0.985906  2.537920
C    -1.243171  1.338272  3.857401
O    -0.733731  2.513324  3.991635
H    -5.432221  -1.094612  3.870083
H    -2.137813  1.996476  2.093222
C    -3.440339  0.464206  2.686615
C    -3.719977  -1.002882  2.570543
N    -4.797797  -1.578327  3.238635
C    -3.192959  -2.011270  1.801277
C    -4.930229  -2.868367  2.903271
N    -3.955021  -3.139977  2.033505
H    -4.015673  0.958125  1.888581
H    -3.864829  0.843840  3.628527
H    -2.348217  -1.996531  1.128898
H    -5.684564  -3.555738  3.268178
H    -3.808300  -4.050277  1.602346
N    -1.076881  0.491921  4.859225
C    -1.477975  -0.908847  4.957172
H    -0.554057  0.879362  5.646031
H    -0.764048  -1.418714  5.611787
H    -1.442042  -1.378196  3.970508
H    -2.478578  -1.005210  5.398945
Cd    -0.156127  3.288515  2.078955
