30
Energy: -173738.026242 eV PBE+vdW (tier 2 basis)
C    -0.084242  -1.243812  -0.726617
C    -0.919481  -1.632475  0.432456
O    -0.428527  -2.233002  1.431965
H    -0.584643  -0.538837  -1.398442
H    0.103425  -2.165293  -1.307077
H    0.891497  -0.868384  -0.399786
N    -2.277831  -1.371375  0.447860
C    -2.929400  -0.068096  0.248303
C    -2.052262  1.045790  0.864036
O    -1.349010  0.820475  1.891882
H    -2.827897  -2.071486  0.945338
H    -3.086675  0.128163  -0.823110
C    -4.329728  -0.129208  0.916513
C    -4.477464  -0.132300  2.423856
N    -3.652154  -0.744437  3.380504
C    -5.584153  0.338117  3.089505
C    -4.255266  -0.624964  4.570401
N    -5.422538  0.015945  4.415142
H    -4.829333  -1.021775  0.502420
H    -4.912962  0.722072  0.542365
H    -6.471874  0.840643  2.723644
H    -3.875035  -0.980596  5.521274
H    -6.082838  0.222169  5.161953
N    -2.091847  2.234447  0.279546
C    -1.385574  3.428770  0.751305
H    -2.633389  2.324605  -0.577236
H    -2.099108  4.252753  0.865212
H    -0.618317  3.716837  0.022431
H    -0.913995  3.209241  1.711527
Cd    -1.549379  -1.127986  2.998832
