30
Energy: -173737.396898 eV PBE+vdW (tier 2 basis)
C    -0.381264  0.615818  0.033491
C    -0.147007  0.622457  1.507928
O    0.920132  1.180332  1.941447
H    0.473062  0.149121  -0.473706
H    -0.421000  1.659711  -0.312083
H    -1.309126  0.110515  -0.254832
N    -1.070185  0.065581  2.305737
C    -1.283576  0.243629  3.760491
C    -0.615967  -0.909659  4.545661
O    0.643775  -1.164526  4.361411
H    -1.842848  -0.387372  1.819797
H    -0.763610  1.170179  4.061061
C    -2.816126  0.469373  3.921732
C    -3.359335  0.740180  5.285080
N    -3.396486  -0.250916  6.242169
C    -3.991246  1.872387  5.775315
C    -4.025045  0.256021  7.290849
N    -4.397633  1.541287  7.038766
H    -3.333522  -0.415425  3.511863
H    -3.070243  1.313197  3.267067
H    -4.188893  2.843457  5.337168
H    -4.241512  -0.257652  8.221212
H    -4.920559  2.141197  7.671667
N    -1.299196  -1.644762  5.380301
C    -0.705081  -2.733435  6.158313
H    -2.271017  -1.308691  5.693886
H    -1.420361  -3.024305  6.932066
H    0.238556  -2.416964  6.618182
H    -0.506838  -3.595865  5.509512
Cd    1.972154  0.267134  3.555449
