30
Energy: -173737.176458 eV PBE+vdW (tier 2 basis)
C    0.626182  -1.209492  0.914308
C    0.032150  -0.058564  1.659698
O    0.668402  1.053165  1.614536
H    0.736623  -0.934101  -0.143236
H    0.018470  -2.116044  1.000688
H    1.635744  -1.406211  1.299702
N    -1.106020  -0.262817  2.327679
C    -1.920462  0.786473  2.935631
C    -1.279069  1.369525  4.217785
O    -0.857002  2.584045  4.206430
H    -1.663952  -1.134726  2.097654
H    -1.967585  1.643571  2.235700
C    -3.393369  0.328370  3.162689
C    -3.938914  -0.554113  2.085559
N    -3.250931  -1.685240  1.697000
C    -5.157107  -0.499938  1.423634
C    -4.025871  -2.305249  0.816245
N    -5.186142  -1.617204  0.634773
H    -4.009892  1.229064  3.271851
H    -3.469265  -0.211726  4.115863
H    -5.978430  0.205620  1.465156
H    -3.796896  -3.232454  0.301997
H    -5.952431  -1.895545  0.027117
N    -1.160078  0.683063  5.339570
C    -1.533939  -0.696590  5.663704
H    -0.738254  1.220501  6.100740
H    -0.751289  -1.109614  6.310211
H    -1.598663  -1.311744  4.763712
H    -2.484642  -0.721162  6.212272
Cd    0.230034  2.998911  2.393407
