30
Energy: -173738.05796 eV PBE+vdW (tier 2 basis)
C    -1.818103  -2.354673  0.809192
C    -1.727793  -1.214878  1.773871
O    -1.037998  -1.156980  2.763914
H    -2.817367  -2.472745  0.371054
H    -1.512066  -3.278828  1.309126
H    -1.111577  -2.173524  -0.016825
N    -2.578309  -0.063156  1.471829
C    -2.114966  1.209483  2.070485
C    -2.241883  1.109446  3.605471
O    -3.307544  0.651647  4.148483
H    -2.790704  0.027254  0.474163
H    -1.050938  1.351966  1.833469
C    -2.921465  2.454069  1.530093
C    -4.171240  2.245742  0.717503
N    -5.265143  1.466903  1.118844
C    -4.535332  2.886902  -0.441957
C    -6.242432  1.635655  0.223746
N    -5.824434  2.495266  -0.720223
H    -2.235269  3.045292  0.912313
H    -3.167112  3.099275  2.388340
H    -4.001796  3.597924  -1.061786
H    -7.218759  1.164779  0.238154
H    -6.383140  2.812680  -1.510187
N    -1.271659  1.605253  4.341905
C    -1.260173  1.627794  5.807946
H    -0.414613  1.877149  3.865378
H    -2.286338  1.660008  6.182021
H    -0.714929  2.516361  6.140222
H    -0.759473  0.728160  6.189006
Cd    -4.723445  0.076777  2.666454
