30
Energy: -173737.280793 eV PBE+vdW (tier 2 basis)
C    -1.700270  -2.843908  1.231086
C    -1.326801  -1.567819  1.911979
O    -0.128287  -1.158926  1.791192
H    -1.026656  -3.643904  1.564582
H    -1.539170  -2.721776  0.150217
H    -2.740709  -3.137185  1.407158
N    -2.278186  -0.909336  2.600144
C    -2.184365  0.457941  3.125637
C    -1.627318  0.463246  4.567574
O    -0.368242  0.412254  4.782419
H    -3.191195  -1.357527  2.634191
H    -1.430681  0.997700  2.529188
C    -3.498962  1.220067  2.919156
C    -3.302166  2.678077  3.207585
N    -2.065787  3.148991  3.570309
C    -4.214286  3.728239  3.136142
C    -2.210860  4.460493  3.721685
N    -3.495270  4.841373  3.464906
H    -4.318233  0.790761  3.523293
H    -3.810792  1.074967  1.872321
H    -5.265398  3.769157  2.875123
H    -1.435494  5.161344  4.012373
H    -3.857106  5.790876  3.507572
N    -2.455404  0.453956  5.591679
C    -2.026377  0.429135  6.995142
H    -3.449699  0.540918  5.402256
H    -2.906073  0.261653  7.621397
H    -1.559761  1.385188  7.263711
H    -1.304421  -0.379272  7.151270
Cd    0.931388  0.200540  3.089273
