30
Energy: -173737.571284 eV PBE+vdW (tier 2 basis)
C    0.064893  0.790894  0.109250
C    0.041939  0.592683  1.589137
O    1.050343  1.062971  2.244376
H    0.104068  1.870674  -0.096300
H    -0.817408  0.364059  -0.378345
H    0.980887  0.353799  -0.308615
N    -1.003636  -0.026771  2.128567
C    -1.413384  -0.073301  3.543097
C    -0.854376  -1.319611  4.256886
O    0.342110  -1.324661  4.739015
H    -1.761566  -0.422695  1.499910
H    -0.974844  0.792579  4.072493
C    -2.952619  0.102045  3.618428
C    -3.720631  -0.882774  2.786926
N    -3.345670  -1.128864  1.476000
C    -4.881514  -1.579830  3.073689
C    -4.259224  -1.947101  0.977283
N    -5.202258  -2.237186  1.912201
H    -3.167153  1.124759  3.272105
H    -3.267590  0.059854  4.669301
H    -5.506700  -1.623260  3.958096
H    -4.278469  -2.346912  -0.031002
H    -6.021321  -2.822034  1.767614
N    -1.603994  -2.388391  4.391041
C    -1.176740  -3.627517  5.051603
H    -2.551109  -2.337014  3.997580
H    -0.960222  -3.437513  6.109639
H    -0.276605  -4.023270  4.567227
H    -1.987684  -4.355070  4.969955
Cd    1.589383  0.275433  4.119186
