30
Energy: -173737.881612 eV PBE+vdW (tier 2 basis)
C    -1.844166  -2.742101  1.122973
C    -1.659327  -1.473181  1.884560
O    -0.585515  -0.816047  1.745364
H    -2.815312  -3.214380  1.305470
H    -1.040217  -3.440529  1.392260
H    -1.736475  -2.531915  0.050168
N    -2.668251  -1.063718  2.708823
C    -2.500154  0.201304  3.398176
C    -1.741793  0.053544  4.736500
O    -0.498883  0.320535  4.771617
H    -3.498899  -1.642374  2.797326
H    -1.791831  0.635070  2.704742
C    -3.545291  1.321027  3.325532
C    -2.793540  2.640774  3.206386
N    -1.441331  2.780091  2.829314
C    -3.311923  3.903509  3.345150
C    -1.190464  4.091692  2.751656
N    -2.299528  4.785058  3.053534
H    -4.231786  1.355031  4.181257
H    -4.159403  1.167670  2.424941
H    -4.310682  4.235576  3.602635
H    -0.242865  4.549501  2.492235
H    -2.374475  5.800033  3.061305
N    -2.397358  -0.371828  5.803201
C    -1.799085  -0.610258  7.121386
H    -3.392573  -0.558637  5.706605
H    -0.728804  -0.399487  7.070703
H    -1.957531  -1.655986  7.409750
H    -2.271595  0.044635  7.862866
Cd    0.118059  1.095395  2.795566
