30
Energy: -173738.766472 eV PBE+vdW (tier 2 basis)
C    -0.940712  0.364748  0.009073
C    -0.717577  0.434784  1.486125
O    0.236693  1.157551  1.904679
H    -1.137588  1.377545  -0.367827
H    -1.762911  -0.297805  -0.280445
H    -0.013945  0.021543  -0.470901
N    -1.542222  -0.292325  2.269483
C    -1.540427  -0.535774  3.728992
C    -2.054703  0.704323  4.488158
O    -1.439409  1.808487  4.475411
H    -2.259121  -0.799162  1.758036
H    -2.297027  -1.318080  3.857169
C    -0.174510  -1.169608  4.227855
C    0.487217  -0.678508  5.480298
N    1.218906  0.512356  5.527719
C    0.649927  -1.307636  6.689826
C    1.787439  0.598053  6.730246
N    1.460768  -0.493229  7.446302
H    0.551025  -1.113129  3.402755
H    -0.361250  -2.242330  4.354228
H    0.289146  -2.261574  7.055268
H    2.418779  1.402067  7.090635
H    1.786058  -0.691015  8.390139
N    -3.204134  0.567219  5.139620
C    -3.862971  1.639037  5.889709
H    -3.692982  -0.321360  5.076098
H    -4.307149  1.217143  6.796966
H    -4.652746  2.096702  5.280100
H    -3.125214  2.400975  6.152648
Cd    0.686315  1.796591  3.887677
