23
Energy: -167611.308439 eV PBE+vdW (tier 2 basis)
C    0.495849  0.032778  1.944595
C    -0.643133  -0.897532  1.710214
O    -0.476193  -2.176026  1.654180
H    0.229656  1.091990  1.900306
H    1.259769  -0.152269  1.168276
H    0.939671  -0.171299  2.927414
N    -1.901229  -0.489811  1.523222
C    -2.488945  0.785277  1.910718
C    -2.452886  0.916896  3.487227
O    -1.535125  0.381899  4.102473
H    -2.564009  -1.244822  1.326477
H    -1.816183  1.591313  1.572946
C    -3.861027  0.937326  1.255503
H    -4.258498  1.947589  1.412305
H    -4.587803  0.207205  1.636270
H    -3.772164  0.811921  0.169390
N    -3.411282  1.667341  4.070143
C    -3.496043  1.859271  5.508107
H    -4.184081  2.002279  3.499193
H    -4.151825  1.102164  5.969944
H    -3.928157  2.848044  5.704878
H    -2.496150  1.764093  5.944962
Cd    1.286787  -3.244626  1.078256
