23
Energy: -167612.190522 eV PBE+vdW (tier 2 basis)
C    0.401156  -0.951907  2.178481
C    0.319272  0.520403  2.086293
O    1.284815  1.250577  1.853163
H    0.321185  -1.229487  3.246924
H    1.361049  -1.312681  1.796766
H    -0.440947  -1.444895  1.673043
N    -0.952876  1.223007  2.333415
C    -2.026083  1.154469  1.281736
C    -1.804472  2.220204  0.174035
O    -1.154126  3.303406  0.363361
H    -1.364936  0.903201  3.218898
H    -1.997880  0.162997  0.802001
C    -3.386950  1.376567  1.954276
H    -4.196235  1.323433  1.216940
H    -3.437346  2.361005  2.438351
H    -3.577754  0.595426  2.702341
N    -2.393071  1.994550  -0.982636
C    -2.404882  2.919895  -2.124022
H    -2.937735  1.138705  -1.079817
H    -2.383101  2.331203  -3.046331
H    -1.530044  3.572776  -2.074792
H    -3.318105  3.528541  -2.102424
Cd    0.218065  3.272601  2.002000
