23
Energy: -167612.583764 eV PBE+vdW (tier 2 basis)
C    0.371124  1.519279  -0.005653
C    -0.408726  0.478675  0.728245
O    -0.017663  -0.732645  0.584567
H    1.434654  1.429003  0.251282
H    0.023349  2.539248  0.190410
H    0.286242  1.315594  -1.084107
N    -1.454320  0.874482  1.471817
C    -2.605439  0.130882  2.058064
C    -2.282863  -0.511727  3.426370
O    -1.576991  -1.580384  3.548566
H    -1.571063  1.885170  1.496218
H    -3.340743  0.921907  2.256215
C    -3.282595  -0.847229  1.091527
H    -3.536799  -0.332999  0.156928
H    -4.206011  -1.233769  1.540025
H    -2.673738  -1.721521  0.802293
N    -2.801715  0.044063  4.500821
C    -2.652794  -0.441268  5.878502
H    -3.387765  0.867153  4.370657
H    -3.600073  -0.883380  6.212969
H    -2.404842  0.408564  6.524083
H    -1.859540  -1.190116  5.921468
Cd    -0.516689  -2.309982  1.880736
