23
Energy: -167611.917697 eV PBE+vdW (tier 2 basis)
C    0.024972  0.278796  -0.466017
C    0.294025  0.340297  0.988659
O    1.506703  0.313370  1.407190
H    0.464792  -0.666825  -0.830397
H    0.556782  1.078583  -0.999064
H    -1.041768  0.275237  -0.707481
N    -0.701902  0.390372  1.916465
C    -1.883850  1.254022  1.938637
C    -1.462490  2.628889  2.525204
O    -0.371312  2.796267  3.203298
H    -0.477281  -0.048109  2.813509
H    -2.220850  1.407082  0.903583
C    -2.992799  0.602596  2.774944
H    -3.894000  1.223223  2.803229
H    -2.666136  0.443692  3.812121
H    -3.262054  -0.364552  2.334503
N    -2.249235  3.675993  2.395360
C    -3.568257  3.785266  1.761300
H    -1.901531  4.523393  2.851649
H    -4.358280  3.743332  2.522377
H    -3.723142  2.992823  1.024322
H    -3.619175  4.753894  1.252202
Cd    1.455789  1.719359  3.046405
