23
Energy: -167611.981727 eV PBE+vdW (tier 2 basis)
C    0.532587  1.118511  0.667260
C    -0.199467  -0.137286  0.945335
O    0.438527  -1.248252  0.974105
H    -0.109669  2.004062  0.676454
H    0.958637  1.016301  -0.347640
H    1.391550  1.233227  1.341612
N    -1.550773  -0.171701  1.143409
C    -2.368373  0.694807  1.989671
C    -2.467701  0.034703  3.403555
O    -1.976774  -1.121744  3.697045
H    -2.019880  -1.008089  0.785199
H    -1.827794  1.644780  2.118521
C    -3.741357  0.946135  1.356258
H    -4.307716  0.012068  1.239307
H    -3.610441  1.408423  0.370988
H    -4.348352  1.630591  1.960348
N    -3.105293  0.701632  4.339573
C    -3.308016  0.252946  5.724604
H    -3.536851  1.586463  4.076907
H    -2.441491  -0.324769  6.057433
H    -4.210257  -0.368844  5.789345
H    -3.431081  1.137551  6.355989
Cd    -0.576012  -2.273515  2.584721
