23
Energy: -167611.289754 eV PBE+vdW (tier 2 basis)
C    0.481022  1.345538  0.722480
C    -0.230309  0.452301  1.685485
O    0.245953  0.168145  2.862527
H    0.604074  2.344635  1.168269
H    -0.058503  1.464023  -0.223171
H    1.474228  0.928476  0.495848
N    -1.383719  -0.081781  1.354539
C    -2.213852  -0.980944  2.175544
C    -3.107412  -1.684132  1.131874
O    -3.204722  -1.169609  0.008552
H    -1.787145  0.077087  0.417339
H    -1.554567  -1.701584  2.680769
C    -3.073709  -0.201534  3.185813
H    -3.696555  -0.884695  3.774420
H    -3.731912  0.507105  2.668522
H    -2.434717  0.350149  3.883674
N    -3.800539  -2.803752  1.441834
C    -3.840651  -3.552884  2.679490
H    -4.396299  -3.132109  0.676705
H    -4.801298  -3.385202  3.197073
H    -3.019710  -3.276124  3.345769
H    -3.779764  -4.626454  2.449674
Cd    2.082104  0.894344  3.671972
