23
Energy: -167612.666685 eV PBE+vdW (tier 2 basis)
C    -1.450530  1.543483  0.053299
C    -0.985037  0.197983  0.496894
O    0.146282  -0.202180  0.044772
H    -2.445368  1.799155  0.433960
H    -1.440443  1.594720  -1.043165
H    -0.728454  2.292981  0.413079
N    -1.751483  -0.503543  1.346602
C    -1.378702  -1.649714  2.207685
C    -1.671493  -3.003866  1.517544
O    -0.873623  -3.473292  0.618527
H    -2.634458  -0.058163  1.593166
H    -0.282229  -1.618852  2.342257
C    -2.016726  -1.470048  3.584813
H    -1.736610  -2.292710  4.253925
H    -3.114531  -1.407757  3.533611
H    -1.658171  -0.539190  4.040600
N    -2.733011  -3.692739  1.864888
C    -3.143237  -4.990710  1.314330
H    -3.311780  -3.308633  2.610726
H    -3.061983  -5.754958  2.097408
H    -2.502007  -5.252844  0.470940
H    -4.187270  -4.921460  0.987490
Cd    0.678865  -2.235661  -0.090351
