25
Energy: -607287.156026 eV PBE+vdW (tier 2 basis)
N    -0.039945  0.612500  0.094007
C    0.581428  -0.013859  1.211406
C    2.047763  -0.492906  0.968839
O    2.578115  -1.369877  1.621540
H    -0.124821  0.071535  -0.763301
H    0.189053  1.586798  -0.079761
H    0.675411  0.744156  2.007375
C    -0.289070  -1.200553  1.738686
C    0.127836  -1.736266  3.082990
C    0.827980  -2.944253  3.194483
C    -0.173139  -1.028708  4.265460
C    1.253550  -3.425678  4.448338
C    0.210824  -1.482239  5.529066
C    0.949051  -2.664371  5.609144
O    1.389266  -3.254329  6.806405
H    -0.283764  -2.006066  0.992262
H    -1.315703  -0.816439  1.797275
H    1.095029  -3.505888  2.301080
H    -0.735293  -0.095776  4.204592
H    2.005215  -4.220617  4.500154
H    -0.036523  -0.908550  6.423608
H    1.327026  -2.643806  7.568801
O    2.637412  0.201724  -0.003579
H    3.567056  -0.096576  -0.097432
Pb    -0.370359  -4.865837  6.042120
