25
Energy: -607288.364955 eV PBE+vdW (tier 2 basis)
N    0.057231  0.254481  0.320662
C    0.226703  0.033186  1.779260
C    1.619858  -0.488586  2.046661
O    2.260006  -1.125245  1.169172
H    -0.949225  0.160913  0.106024
H    0.324754  1.213815  0.070584
H    0.052910  0.972076  2.325884
C    -0.810060  -1.049328  2.286539
C    -2.213381  -0.734449  1.863104
C    -2.964194  0.257884  2.526914
C    -2.811368  -1.427876  0.790496
C    -4.256231  0.553196  2.134566
C    -4.111156  -1.149677  0.386860
C    -4.844648  -0.151101  1.057892
O    -6.105825  0.176182  0.756469
H    -0.719336  -1.093390  3.381012
H    -0.506218  -2.034743  1.896416
H    -2.538267  0.791937  3.378082
H    -2.276722  -2.250569  0.309148
H    -4.848630  1.307552  2.650422
H    -4.574070  -1.725646  -0.415142
H    -6.460655  -0.362081  0.025128
O    2.170886  -0.400651  3.224996
H    1.658557  0.124629  3.872753
Pb    1.484631  -1.358430  -0.942360
