25
Energy: -607288.997176 eV PBE+vdW (tier 2 basis)
N    -0.425365  0.404126  0.179846
C    -0.182130  0.089025  1.636778
C    1.300245  0.125030  1.920150
O    1.695457  0.192015  3.131257
H    -1.312240  -0.080828  -0.098692
H    -0.519363  1.411104  -0.004169
H    -0.699789  0.845081  2.238538
C    -0.789221  -1.329736  1.954313
C    -2.197146  -1.434538  1.444857
C    -2.462035  -2.030924  0.191357
C    -3.278180  -0.912223  2.182568
C    -3.754897  -2.113971  -0.306281
C    -4.575509  -0.995754  1.702833
C    -4.825686  -1.596322  0.449712
O    -6.049136  -1.719382  -0.080790
H    -0.729845  -1.451692  3.043262
H    -0.150181  -2.098954  1.496683
H    -1.652161  -2.499306  -0.373994
H    -3.106069  -0.461631  3.161482
H    -3.968065  -2.600700  -1.256677
H    -5.404337  -0.611356  2.298871
H    -6.738758  -1.369109  0.512104
O    2.138365  0.006622  0.955788
H    0.355952  0.047156  -0.394185
Pb    3.929517  0.027825  2.514836
