25
Energy: -607288.384544 eV PBE+vdW (tier 2 basis)
N    -0.011081  0.949927  1.049206
C    0.029417  -0.074961  2.122372
C    1.454502  -0.238768  2.599502
O    2.428771  0.003518  1.840182
H    -0.149543  1.885236  1.449989
H    -0.835657  0.753672  0.457634
H    -0.628482  0.219302  2.953675
C    -0.460901  -1.468772  1.553876
C    -1.788724  -1.369635  0.867837
C    -1.862165  -1.243798  -0.536752
C    -2.989190  -1.385786  1.604504
C    -3.079822  -1.126164  -1.187299
C    -4.215989  -1.269751  0.971561
C    -4.272280  -1.133713  -0.433717
O    -5.414494  -1.030881  -1.121585
H    -0.493119  -2.170127  2.399027
H    0.303693  -1.841901  0.850935
H    -0.951065  -1.314778  -1.137406
H    -2.966327  -1.508286  2.688566
H    -3.145721  -1.072391  -2.272811
H    -5.137348  -1.296836  1.554851
H    -6.197199  -1.095921  -0.543667
O    1.733877  -0.743099  3.769131
H    0.954087  -0.890036  4.342012
Pb    2.138610  0.896845  -0.219124
