25
Energy: -607289.407147 eV PBE+vdW (tier 2 basis)
N    1.028621  -0.269314  0.317489
C    0.211571  0.066432  1.510002
C    1.177244  0.493269  2.614458
O    2.296748  -0.036551  2.709984
H    1.472594  0.570302  -0.071867
H    0.432954  -0.647804  -0.426064
H    -0.505602  0.873784  1.294881
C    -0.586429  -1.197320  1.977700
C    0.228038  -2.472169  2.113790
C    0.882554  -2.828983  3.324982
C    0.268932  -3.429397  1.058337
C    1.531941  -4.058516  3.478290
C    0.914403  -4.656556  1.200159
C    1.532489  -5.000877  2.425182
O    2.082727  -6.209864  2.495818
H    -1.390661  -1.355717  1.245454
H    -1.085862  -0.961005  2.927277
H    0.857618  -2.148418  4.177486
H    -0.258625  -3.226109  0.124375
H    2.001223  -4.299733  4.433349
H    0.911657  -5.385973  0.390328
H    2.438153  -6.416125  3.380590
O    0.818979  1.360093  3.527546
H    -0.045816  1.786047  3.359321
Pb    2.705551  -1.916495  1.295133
