25
Energy: -607288.697805 eV PBE+vdW (tier 2 basis)
N    0.157454  0.102673  0.150692
C    -0.186082  -0.136274  1.587501
C    0.869970  0.366415  2.600009
O    0.729441  0.201239  3.781264
H    1.110524  -0.238571  -0.031743
H    0.215422  1.113763  -0.021113
H    -1.091597  0.452252  1.798972
C    -0.463701  -1.631551  1.847488
C    -1.527136  -2.215524  0.950201
C    -1.257291  -3.323816  0.102446
C    -2.848816  -1.685641  0.900034
C    -2.255385  -3.919049  -0.696127
C    -3.846885  -2.260821  0.096554
C    -3.578665  -3.422909  -0.672686
O    -4.602705  -3.944751  -1.335669
H    -0.764296  -1.728796  2.901291
H    0.466716  -2.207895  1.740947
H    -0.259989  -3.768521  0.104689
H    -3.123066  -0.842361  1.537162
H    -2.003239  -4.792056  -1.300954
H    -4.859973  -1.856422  0.097601
H    -4.383190  -4.775430  -1.799209
O    1.897410  0.978181  1.978323
H    2.534716  1.293136  2.654710
Pb    -1.494556  -1.024089  -1.384235
