25
Energy: -607287.15521 eV PBE+vdW (tier 2 basis)
N    0.086375  -0.681630  -0.063502
C    -0.055423  -0.315792  1.310496
C    1.271904  0.018452  2.077254
O    1.295740  0.172814  3.274275
H    0.250755  0.087157  -0.709778
H    0.728183  -1.451182  -0.250320
H    -0.626667  0.625905  1.359643
C    -0.815464  -1.402660  2.121907
C    -2.248243  -1.491642  1.683724
C    -3.251275  -0.826727  2.391043
C    -2.603202  -2.194649  0.509468
C    -4.592168  -0.834790  1.942567
C    -3.919557  -2.237080  0.039458
C    -4.898559  -1.531982  0.743886
O    -6.266253  -1.543123  0.424999
H    -0.741884  -1.140071  3.184543
H    -0.309028  -2.369913  1.985757
H    -3.004324  -0.255150  3.286374
H    -1.840691  -2.748112  -0.035701
H    -5.318035  -0.132076  2.363513
H    -4.166563  -2.787262  -0.870105
H    -6.436681  -1.863270  -0.484177
O    2.311597  0.129211  1.244651
H    3.107892  0.374688  1.762711
Pb    -6.168174  -2.938927  2.511588
