25
Energy: -607288.249414 eV PBE+vdW (tier 2 basis)
N    0.215606  -0.630711  0.740406
C    -0.611434  0.312971  1.561712
C    0.382189  1.234389  2.293708
O    1.386614  1.674003  1.666955
H    -0.380919  -1.087814  0.041729
H    0.577502  -1.385640  1.338056
H    -1.096012  0.991923  0.836599
C    -1.741082  -0.346870  2.399857
C    -1.355122  -0.826808  3.777016
C    -1.759848  -0.085188  4.910206
C    -0.586990  -1.988133  3.983521
C    -1.384991  -0.464515  6.194487
C    -0.209310  -2.384776  5.259289
C    -0.596763  -1.618245  6.379082
O    -0.281040  -1.931432  7.641314
H    -2.163170  -1.164407  1.794971
H    -2.547862  0.395164  2.483775
H    -2.436359  0.766388  4.792502
H    -0.325433  -2.634793  3.142664
H    -1.714681  0.095018  7.068771
H    0.363529  -3.302419  5.399471
H    0.230394  -2.759168  7.698415
O    0.208435  1.635834  3.503116
H    -0.485650  1.095471  3.999706
Pb    2.077871  0.719020  -0.264818
