25
Energy: -607288.133083 eV PBE+vdW (tier 2 basis)
N    -0.321834  -0.080737  0.204544
C    0.329162  -0.169713  1.484117
C    1.825889  -0.346546  1.275636
O    2.280604  -0.793469  0.162036
H    -1.267306  0.291182  0.257527
H    -0.312513  -0.941482  -0.339999
H    0.219042  0.802848  1.988982
C    -0.243720  -1.291512  2.417829
C    0.146158  -1.250231  3.952735
C    -0.377201  -0.047382  4.642979
C    -0.255909  -2.532158  4.578416
C    -1.208080  -0.118629  5.713531
C    -1.094382  -2.605622  5.643990
C    -1.591552  -1.400565  6.223075
O    -2.400769  -1.544209  7.243937
H    0.038268  -2.275134  2.015352
H    -1.336695  -1.222013  2.344093
H    -0.074746  0.933610  4.273831
H    0.129152  -3.452986  4.136812
H    -1.582577  0.785432  6.196944
H    -1.399545  -3.555314  6.082164
H    -2.714289  -0.693582  7.613724
O    2.656615  -0.040933  2.215061
H    1.255100  -1.188470  3.979496
Pb    4.439590  -0.373793  0.768669
