25
Energy: -607288.675646 eV PBE+vdW (tier 2 basis)
N    -0.459292  0.142453  0.119281
C    0.267803  -0.235764  1.283314
C    1.746752  -0.448765  0.975707
O    2.611593  -0.574628  1.878302
H    -0.115134  0.969397  -0.364149
H    -1.464610  0.211984  0.258761
H    0.272882  0.506046  2.127354
C    -0.342345  -1.569082  1.849958
C    0.104562  -1.988743  3.229064
C    -0.466645  -1.421636  4.403123
C    1.071681  -3.009670  3.424857
C    -0.145854  -1.880897  5.690757
C    1.430926  -3.455267  4.710151
C    0.773802  -2.941662  5.860895
O    1.096155  -3.493781  7.023926
H    -0.160636  -2.372207  1.124209
H    -1.429689  -1.409164  1.869799
H    -1.214961  -0.632588  4.306767
H    1.540648  -3.483723  2.560817
H    -0.643194  -1.438640  6.555768
H    2.158721  -4.257811  4.836172
H    0.577512  -3.145873  7.774354
O    2.064653  -0.507807  -0.285479
H    3.031420  -0.642881  -0.406419
Pb    2.260616  -0.700836  4.198807
