25
Energy: -607288.693433 eV PBE+vdW (tier 2 basis)
N    -0.706752  0.072816  0.131030
C    0.145889  -0.291470  1.218196
C    1.656163  -0.369650  0.950219
O    2.519221  -0.463266  1.862786
H    -0.725068  -0.595070  -0.638396
H    -0.537120  1.006694  -0.237113
H    0.047694  0.481936  2.001913
C    -0.330377  -1.658904  1.814681
C    0.090812  -1.998507  3.222936
C    -0.336070  -1.219830  4.338079
C    0.850753  -3.158937  3.519015
C    -0.079330  -1.611176  5.660874
C    1.119035  -3.562796  4.846017
C    0.599565  -2.825746  5.937070
O    0.722340  -3.164800  7.214984
H    -0.049276  -2.475307  1.134923
H    -1.428829  -1.595038  1.787463
H    -0.926374  -0.316384  4.171982
H    1.207184  -3.791012  2.703510
H    -0.450070  -1.016011  6.496360
H    1.682467  -4.481708  5.018744
H    1.133945  -4.040046  7.346656
O    2.005687  -0.331162  -0.305414
H    2.982043  -0.376435  -0.412641
Pb    2.416466  -1.001192  4.135122
