25
Energy: -607287.782821 eV PBE+vdW (tier 2 basis)
N    -1.029093  0.693430  0.900935
C    -0.141392  0.245158  1.962099
C    1.294161  0.064081  1.424258
O    1.527129  -0.006372  0.240869
H    -0.593466  0.497676  -0.009834
H    -1.220606  1.693356  0.949755
H    -0.133288  0.965067  2.790359
C    -0.628066  -1.153215  2.522217
C    -2.101104  -1.019193  2.675650
C    -2.730544  -0.709373  3.907907
C    -2.891697  -0.903400  1.483235
C    -4.082281  -0.294324  3.982535
C    -4.259671  -0.526967  1.551534
C    -4.828424  -0.080857  2.781312
O    -6.024050  0.465499  2.912616
H    -0.113690  -1.383046  3.461575
H    -0.374676  -1.928086  1.784975
H    -2.158671  -0.780062  4.835681
H    -2.505440  -1.275511  0.538463
H    -4.531988  -0.027453  4.939811
H    -4.843366  -0.466948  0.630497
H    -6.476687  0.631375  2.062208
O    2.176179  -0.034664  2.425757
H    3.073508  -0.156792  2.049622
Pb    -4.135143  -2.807326  3.072087
