25
Energy: -607289.274958 eV PBE+vdW (tier 2 basis)
N    0.071263  2.582483  3.431919
C    -0.131607  1.084726  3.300120
C    0.546495  0.610054  2.021017
O    0.938493  -0.600648  1.989403
H    -0.025292  3.011774  2.493522
H    -0.614837  3.011889  4.070106
H    0.309985  0.603972  4.179703
C    -1.665364  0.756253  3.158075
C    -1.913671  -0.436945  2.261924
C    -1.785867  -1.755722  2.742640
C    -2.146489  -0.252779  0.896750
C    -1.852671  -2.854413  1.897830
C    -2.175536  -1.355307  0.003024
C    -2.066332  -2.677188  0.517188
O    -2.166924  -3.781740  -0.231965
H    -2.168192  1.634411  2.725513
H    -2.078801  0.596302  4.162463
H    -1.629414  -1.929667  3.808044
H    -2.323291  0.746150  0.494456
H    -1.783770  -3.868914  2.288964
H    -2.491706  -1.199705  -1.032486
H    -2.494646  -3.600521  -1.131617
O    0.502197  1.358805  0.999602
H    1.012064  2.815480  3.783827
Pb    0.547913  -0.768753  -0.300021
