25
Energy: -607288.695266 eV PBE+vdW (tier 2 basis)
N    -1.105830  -0.441929  0.161113
C    -0.261794  -0.191735  1.370811
C    1.260483  -0.359140  1.143099
O    2.033007  -0.408057  2.061619
H    -0.812829  0.190703  -0.593672
H    -0.913294  -1.383027  -0.205246
H    -0.395910  0.870517  1.632647
C    -0.714202  -1.076624  2.548694
C    -2.178363  -0.929429  2.883147
C    -2.723776  0.286488  3.378785
C    -3.091299  -2.006781  2.703454
C    -4.079453  0.403929  3.739974
C    -4.451001  -1.897777  3.050822
C    -4.952722  -0.704718  3.627800
O    -6.225517  -0.711990  4.003107
H    -0.094639  -0.810090  3.416698
H    -0.490232  -2.130330  2.328205
H    -2.070485  1.146001  3.542452
H    -2.723728  -2.966725  2.334524
H    -4.440353  1.348515  4.151344
H    -5.122750  -2.749235  2.934648
H    -6.504708  0.110893  4.447929
O    1.552853  -0.405634  -0.171062
H    2.525876  -0.473659  -0.277984
Pb    -3.540434  -0.181308  0.759168
