25
Energy: -607288.264995 eV PBE+vdW (tier 2 basis)
N    0.616103  0.314092  0.315130
C    0.208586  0.045047  1.732728
C    1.498282  0.056547  2.572007
O    2.391484  0.913999  2.323026
H    -0.206032  0.599996  -0.228166
H    0.951076  -0.554684  -0.121190
H    -0.316437  0.957210  2.068893
C    -0.768525  -1.148576  1.934118
C    -0.134851  -2.496323  2.180315
C    -0.197539  -3.073352  3.466889
C    0.537106  -3.207062  1.164594
C    0.407883  -4.298816  3.741695
C    1.145133  -4.423698  1.420783
C    1.093257  -4.980235  2.718756
O    1.700238  -6.161585  2.883283
H    -1.436480  -1.177615  1.059103
H    -1.416763  -0.888999  2.782763
H    -0.777875  -2.587147  4.255449
H    0.538713  -2.835231  0.137137
H    0.327366  -4.734742  4.738155
H    1.645362  -4.986095  0.633602
H    1.594830  -6.504747  3.789718
O    1.684269  -0.733495  3.569443
H    1.037894  -1.511293  3.570482
Pb    2.435602  2.044790  0.364597
