25
Energy: -607287.906991 eV PBE+vdW (tier 2 basis)
N    0.440323  -1.446562  0.494435
C    -0.160925  -0.485766  1.420440
C    0.938359  0.309343  2.126261
O    1.572106  -0.131411  3.075555
H    1.457871  -1.406863  0.472468
H    0.100074  -1.329025  -0.458920
H    -0.818426  0.211721  0.886274
C    -1.059344  -1.228617  2.481391
C    -0.264517  -2.318418  3.114510
C    0.423675  -2.133637  4.346178
C    0.015381  -3.513494  2.386198
C    1.360636  -3.074025  4.825720
C    0.974378  -4.455710  2.844139
C    1.748557  -4.183054  4.009772
O    2.770317  -4.904974  4.432839
H    -1.918140  -1.633884  1.931261
H    -1.433650  -0.509189  3.220253
H    0.212639  -1.255122  4.955044
H    -0.530884  -3.725133  1.469167
H    1.892856  -2.899235  5.761712
H    1.182532  -5.342619  2.242190
H    3.023851  -5.624843  3.822157
O    1.142064  1.494097  1.556935
H    1.882068  1.954346  2.007575
Pb    -0.981409  -4.409309  4.720945
