25
Energy: -607288.875301 eV PBE+vdW (tier 2 basis)
N    -0.126653  -0.476038  -0.269212
C    -0.087449  0.065054  1.143800
C    1.318289  0.574992  1.419221
O    1.597632  1.017392  2.580825
H    0.688240  -0.134707  -0.805738
H    -0.992141  -0.225421  -0.763441
H    -0.746676  0.944150  1.193161
C    -0.607816  -1.022130  2.137736
C    -0.057010  -2.391466  1.845505
C    1.203985  -2.796274  2.329956
C    -0.795372  -3.304474  1.065155
C    1.709317  -4.054006  2.050548
C    -0.300582  -4.572216  0.771603
C    0.960478  -4.955894  1.263436
O    1.513090  -6.157881  1.045183
H    -1.704163  -1.025322  2.070716
H    -0.356312  -0.675811  3.148438
H    1.772012  -2.131248  2.983146
H    -1.803754  -3.047233  0.731328
H    2.666423  -4.385338  2.450720
H    -0.901051  -5.272380  0.189593
H    0.922573  -6.740890  0.534376
O    2.187484  0.591217  0.478179
H    -0.072462  -1.520686  -0.201671
Pb    3.742920  1.648610  1.938438
