25
Energy: -607289.339414 eV PBE+vdW (tier 2 basis)
N    -0.687972  2.575784  2.269704
C    -0.222378  1.326487  2.999280
C    0.593940  0.500586  2.007844
O    1.345679  -0.412517  2.444224
H    -1.491879  3.019219  2.735768
H    0.062571  3.279588  2.204863
H    0.370528  1.647510  3.863099
C    -1.430870  0.432312  3.455712
C    -1.855263  -0.563659  2.399987
C    -1.253578  -1.826915  2.361107
C    -2.739377  -0.228221  1.358156
C    -1.415115  -2.679436  1.245849
C    -2.965485  -1.070800  0.273368
C    -2.292141  -2.301234  0.189851
O    -2.433425  -3.182557  -0.807291
H    -2.260823  1.083971  3.769099
H    -1.094823  -0.091065  4.359613
H    -0.645027  -2.168708  3.199796
H    -3.287766  0.715720  1.394198
H    -1.066289  -3.715065  1.277680
H    -3.681934  -0.785802  -0.498243
H    -3.107859  -2.904041  -1.454227
O    0.315436  0.640975  0.764946
H    -0.942304  2.311764  1.300320
Pb    1.017153  -1.616898  0.389298
