25
Energy: -607289.622383 eV PBE+vdW (tier 2 basis)
N    1.258166  -1.880407  0.792065
C    0.174122  -0.878978  0.965370
C    0.843462  0.443510  1.308603
O    1.880010  0.495964  1.997229
H    0.856815  -2.811750  0.642333
H    1.815410  -1.674753  -0.045210
H    -0.424907  -0.749223  0.053266
C    -0.772910  -1.321360  2.128183
C    -0.079804  -1.735006  3.414993
C    0.254169  -0.795876  4.434353
C    0.164057  -3.104953  3.708366
C    0.792419  -1.197516  5.657932
C    0.696366  -3.519137  4.932569
C    0.994400  -2.569605  5.935700
O    1.461245  -2.870308  7.144719
H    -1.369935  -2.162481  1.748966
H    -1.485340  -0.507229  2.318084
H    0.050754  0.265048  4.282014
H    -0.114558  -3.869475  2.980619
H    1.016685  -0.466198  6.434308
H    0.840345  -4.583870  5.122740
H    1.520922  -3.831094  7.302337
O    0.212394  1.496299  0.861570
H    0.655532  2.331165  1.134509
Pb    2.544178  -1.614768  2.961383
