25
Energy: -607287.943939 eV PBE+vdW (tier 2 basis)
N    -0.177840  0.452559  0.303374
C    0.300154  -0.043578  1.556634
C    1.740599  -0.584263  1.507398
O    2.395507  -0.920688  0.581265
H    -0.217006  -0.255346  -0.430810
H    0.352574  1.250111  -0.045259
H    0.300270  0.794305  2.277668
C    -0.666989  -1.156472  2.077078
C    -0.682393  -1.422191  3.560555
C    -0.137522  -2.607221  4.124283
C    -1.334187  -0.531851  4.464343
C    -0.263302  -2.905669  5.496329
C    -1.502267  -0.833632  5.827521
C    -1.021640  -2.059215  6.353369
O    -1.200862  -2.479878  7.596264
H    -0.475719  -2.092838  1.534868
H    -1.666885  -0.813263  1.774240
H    0.375179  -3.324853  3.480854
H    -1.765898  0.395470  4.081528
H    0.141106  -3.834647  5.901202
H    -2.049645  -0.136991  6.465404
H    -1.774441  -1.895284  8.128817
O    2.353718  -0.653316  2.849931
H    3.286515  -0.921598  2.687888
Pb    1.368566  -0.610079  5.105278
