25
Energy: -607288.183855 eV PBE+vdW (tier 2 basis)
N    -1.276007  -1.372858  -0.042697
C    -0.896917  -0.608770  1.134406
C    0.528120  -0.186551  0.771767
O    1.513796  -1.006830  0.900715
H    -2.233396  -1.226280  -0.350113
H    -1.051208  -2.364253  0.006762
H    -1.496681  0.310384  1.142846
C    -1.037940  -1.391952  2.451955
C    -0.789312  -0.585536  3.788084
C    -1.792676  0.483608  4.016020
C    -0.648040  -1.537050  4.916106
C    -2.550272  0.552015  5.138252
C    -1.409875  -1.472836  6.038658
C    -2.379310  -0.431087  6.163425
O    -3.157705  -0.304313  7.208914
H    -0.340353  -2.241344  2.437871
H    -2.055006  -1.805185  2.482414
H    -1.923018  1.244388  3.245004
H    0.096535  -2.329089  4.817309
H    -3.291657  1.334910  5.295080
H    -1.290013  -2.199669  6.843942
H    -3.008808  -0.992336  7.889898
O    0.731401  0.956679  0.216029
H    0.200415  -0.093599  3.662709
Pb    2.838273  0.347126  -0.416814
