25
Energy: -607288.98985 eV PBE+vdW (tier 2 basis)
N    -0.056953  0.124026  0.350392
C    -0.226438  0.560017  1.786486
C    1.129793  0.734641  2.425384
O    1.216059  1.383397  3.520510
H    -0.903990  -0.439668  0.099125
H    0.788316  -0.462427  0.256048
H    -0.769746  1.512225  1.789836
C    -1.080424  -0.526072  2.542007
C    -2.316961  -0.868522  1.762128
C    -3.441461  -0.015341  1.774438
C    -2.369151  -2.040874  0.978888
C    -4.578283  -0.326098  1.052060
C    -3.505908  -2.366793  0.246421
C    -4.622339  -1.509264  0.280191
O    -5.762524  -1.745831  -0.381000
H    -1.313915  -0.101588  3.526896
H    -0.459473  -1.419389  2.702265
H    -3.436337  0.888152  2.386783
H    -1.533781  -2.745172  0.991001
H    -5.459410  0.313403  1.077948
H    -3.541248  -3.294021  -0.326634
H    -5.732940  -2.589975  -0.867094
O    2.158676  0.168037  1.908713
H    0.029376  0.912949  -0.302983
Pb    3.491060  0.957188  3.710195
