25
Energy: -607289.339373 eV PBE+vdW (tier 2 basis)
N    0.744170  -0.970900  0.469225
C    -0.293296  -0.073595  1.123731
C    0.437194  0.791878  2.147830
O    1.509426  0.310345  2.658124
H    0.316706  -1.792141  0.018737
H    1.283780  -0.466008  -0.249630
H    -0.763420  0.522174  0.333284
C    -1.371036  -0.903663  1.909865
C    -0.972354  -1.175043  3.343073
C    -1.311196  -0.253134  4.340354
C    -0.148787  -2.256773  3.705194
C    -0.734392  -0.324530  5.628358
C    0.388956  -2.388008  4.982463
C    0.120669  -1.413950  5.958974
O    0.587076  -1.441609  7.213052
H    -1.583776  -1.830742  1.355830
H    -2.292825  -0.309433  1.877159
H    -2.030179  0.540221  4.130106
H    0.073431  -3.038214  2.975127
H    -1.104572  0.303448  6.443105
H    0.998332  -3.258038  5.230679
H    1.095423  -2.252363  7.400691
O    -0.131638  1.824951  2.593364
H    1.416692  -1.276244  1.196250
Pb    1.077275  1.559348  4.654620
