25
Energy: -607287.431638 eV PBE+vdW (tier 2 basis)
N    -0.839824  0.766838  -0.245116
C    -0.423558  0.350310  1.076946
C    1.078488  0.188812  0.842337
O    1.861879  1.165602  1.042173
H    -1.404525  1.609446  -0.284466
H    -1.187085  0.030976  -0.854381
H    -0.528792  1.195521  1.768323
C    -1.132695  -0.882412  1.706345
C    -1.131422  -2.141393  0.877633
C    -0.207611  -3.183353  1.137060
C    -2.073768  -2.334132  -0.158497
C    -0.197359  -4.347422  0.381415
C    -2.082533  -3.491023  -0.920098
C    -1.135575  -4.508128  -0.662291
O    -1.078938  -5.656626  -1.343738
H    -2.166803  -0.557359  1.891610
H    -0.682383  -1.073317  2.691629
H    0.468648  -3.107440  1.991912
H    -2.843708  -1.582132  -0.336767
H    0.493216  -5.161395  0.597245
H    -2.831525  -3.627966  -1.701456
H    -1.780642  -5.717326  -2.018992
O    1.600141  -0.904997  0.346656
H    0.935518  -1.656439  0.322757
Pb    4.009872  1.541978  0.564325
