25
Energy: -607289.156611 eV PBE+vdW (tier 2 basis)
N    0.268644  -0.266992  -0.103904
C    0.704735  -0.780144  1.251905
C    2.191663  -1.176902  1.017699
O    2.882862  -1.485201  2.076520
H    1.114533  -0.532398  -0.705858
H    0.146842  0.752747  -0.128729
H    0.642257  0.048056  1.968100
C    -0.175269  -1.976353  1.684236
C    0.127783  -2.591950  3.036712
C    0.040918  -1.853584  4.244248
C    0.394273  -3.977209  3.152626
C    0.158175  -2.472917  5.496199
C    0.496053  -4.615233  4.404064
C    0.326809  -3.876585  5.594595
O    0.342687  -4.391303  6.822451
H    -0.106980  -2.761190  0.916315
H    -1.226124  -1.643082  1.704411
H    -0.161649  -0.781568  4.221417
H    0.477231  -4.588557  2.252287
H    0.060207  -1.891374  6.413310
H    0.664918  -5.692789  4.440357
H    0.396703  -5.365302  6.827970
O    2.604605  -1.173898  -0.133592
H    -0.587569  -0.702057  -0.468374
Pb    2.776696  -2.624216  3.934032
