25
Energy: -607288.495258 eV PBE+vdW (tier 2 basis)
N    2.070176  -0.724582  0.345566
C    0.844143  -0.341496  1.011590
C    0.708948  1.143969  1.327902
O    1.746892  1.897781  1.398415
H    2.060963  -0.556576  -0.658769
H    2.903921  -0.291610  0.744483
H    -0.004188  -0.575659  0.350520
C    0.686030  -1.159076  2.330216
C    0.928146  -2.667719  2.032036
C    1.615907  -3.407988  3.099991
C    -0.198347  -3.385163  1.409666
C    1.308004  -4.696152  3.416971
C    -0.510880  -4.669399  1.726146
C    0.243025  -5.347733  2.729761
O    -0.111945  -6.589528  2.973191
H    -0.298673  -0.992814  2.783266
H    1.446697  -0.825546  3.050800
H    2.430826  -2.908546  3.626994
H    -0.782716  -2.874330  0.642606
H    1.861587  -5.231048  4.190308
H    -1.328114  -5.204480  1.244025
H    0.431299  -7.014123  3.667228
O    -0.456599  1.652536  1.525939
H    1.708896  -2.559653  1.200378
Pb    0.431003  3.750934  1.807772
