25
Energy: -607288.6985 eV PBE+vdW (tier 2 basis)
N    -0.968608  -0.254004  0.163837
C    -0.821179  -0.167260  1.581653
C    0.046806  0.968379  2.145230
O    0.047984  1.301517  3.359570
H    -0.111737  -0.474659  -0.341607
H    -1.412501  0.557807  -0.260865
H    -1.821441  0.007951  2.019968
C    -0.282055  -1.532320  2.130446
C    -0.469803  -1.821366  3.599775
C    -1.751542  -2.119053  4.141585
C    0.628520  -1.897878  4.497429
C    -1.923263  -2.537805  5.473100
C    0.468423  -2.295078  5.839806
C    -0.804490  -2.688690  6.327492
O    -0.851329  -3.147337  7.572585
H    0.779478  -1.637796  1.866143
H    -0.826851  -2.289910  1.548549
H    -2.631082  -2.074643  3.495941
H    1.635783  -1.679690  4.137610
H    -2.924148  -2.792260  5.826797
H    1.332508  -2.374656  6.500694
H    -1.737263  -3.460504  7.837161
O    0.801013  1.582305  1.276630
H    1.327392  2.300046  1.694516
Pb    -0.807589  0.265273  5.274073
