25
Energy: -607288.850508 eV PBE+vdW (tier 2 basis)
N    -0.844687  1.127880  0.985406
C    -0.103964  0.235890  1.933158
C    1.288843  0.000019  1.307001
O    1.477896  0.212987  0.128215
H    -0.412213  0.934783  0.056199
H    -0.579897  2.102349  1.176025
H    0.002401  0.750010  2.896615
C    -0.805828  -1.133003  2.112816
C    -2.286728  -1.052310  2.399782
C    -3.220641  -1.814512  1.644151
C    -2.823630  -0.230325  3.431155
C    -4.596680  -1.819557  1.935807
C    -4.200267  -0.198912  3.705953
C    -5.101616  -1.037685  2.996863
O    -6.370318  -1.000191  3.384082
H    -0.300729  -1.662686  2.934935
H    -0.649490  -1.744764  1.212622
H    -2.855747  -2.459476  0.842188
H    -2.159256  0.366256  4.059325
H    -5.264202  -2.453429  1.349407
H    -4.590522  0.423482  4.512271
H    -6.940798  -1.630360  2.903867
O    2.152938  -0.476475  2.195616
H    3.018649  -0.642298  1.763496
Pb    -3.308161  0.904533  1.013804
