25
Energy: -607288.851932 eV PBE+vdW (tier 2 basis)
N    -0.477965  -0.404952  -0.211572
C    -0.038183  -0.263056  1.229697
C    1.477168  -0.138925  1.255234
O    2.128702  -0.051546  0.155590
H    -1.330472  0.131005  -0.417285
H    0.279334  -0.104723  -0.847730
H    -0.426639  0.692296  1.612592
C    -0.626915  -1.431111  2.083773
C    -0.522240  -2.769644  1.404844
C    0.615981  -3.585136  1.550417
C    -1.578642  -3.237384  0.592391
C    0.701997  -4.817572  0.918214
C    -1.503241  -4.461694  -0.058556
C    -0.357623  -5.265137  0.101572
O    -0.357026  -6.443875  -0.537324
H    -1.678198  -1.184862  2.286320
H    -0.108318  -1.410263  3.050649
H    1.425343  -3.272985  2.212732
H    -2.508217  -2.666066  0.522204
H    1.575172  -5.453106  1.072094
H    -2.328506  -4.835092  -0.662957
H    0.443587  -6.963190  -0.341492
O    2.072688  -0.079374  2.379699
H    -0.677732  -1.420443  -0.379677
Pb    4.144704  0.276089  1.379772
