29
Energy: -569029.399047 eV PBE+vdW (tier 2 basis)
C    -0.012397  -1.246948  2.632996
C    -0.502469  -0.551955  3.851404
O    0.216943  -0.390826  4.921424
H    1.028681  -0.973480  2.422711
H    -0.631441  -1.042279  1.753240
H    -0.041117  -2.336051  2.807730
N    -1.665905  0.039088  4.057669
C    -2.375715  0.816496  3.102747
C    -3.024086  1.952574  3.876218
O    -3.243332  1.765193  5.150323
H    -2.791703  0.921453  5.410276
H    -1.774337  1.188927  2.262690
C    -3.537538  -0.178803  2.464351
C    -4.579553  -0.603662  3.486756
C    -4.131896  0.480027  1.221650
H    -2.945760  -1.052426  2.156691
H    -5.217558  0.228435  3.813693
H    -4.147435  -1.091939  4.368320
H    -5.242779  -1.340287  3.010948
H    -4.755834  -0.280384  0.726378
H    -3.379484  0.797318  0.488835
H    -4.789820  1.322467  1.466549
N    -3.397497  3.102203  3.380596
C    -3.224097  3.653802  2.033876
H    -3.828913  3.731464  4.064953
H    -2.727998  4.627385  2.124888
H    -4.204748  3.796957  1.564694
H    -2.615772  2.994332  1.412650
Hg    1.648558  -1.885081  5.783745
