29
Energy: -569030.143533 eV PBE+vdW (tier 2 basis)
C    -0.531919  0.791697  -0.605876
C    -0.528172  1.439877  0.740332
O    -0.045622  2.631620  0.771409
H    0.467753  0.857369  -1.053158
H    -1.214959  1.357124  -1.259425
H    -0.866116  -0.251340  -0.564798
N    -1.010089  0.758530  1.793534
C    -1.616518  1.246536  3.056614
C    -0.645509  1.171844  4.265804
O    0.247159  2.091287  4.473244
H    -1.289440  -0.197754  1.571564
H    -1.823285  2.325995  2.938359
C    -3.012387  0.577048  3.253864
C    -4.043081  1.257927  2.342017
C    -3.027201  -0.949023  3.049245
H    -3.293601  0.804897  4.295201
H    -3.803891  1.119519  1.277720
H    -4.125986  2.333775  2.545607
H    -5.033744  0.817973  2.507126
H    -2.232321  -1.510004  3.564389
H    -2.985023  -1.226506  1.984140
H    -3.981081  -1.348829  3.413964
N    -0.746215  0.209908  5.150349
C    0.087558  0.074011  6.353475
H    -1.500528  -0.462649  5.019978
H    -0.326439  0.687018  7.164936
H    1.108196  0.401983  6.135642
H    0.085188  -0.977443  6.653974
Hg    0.510275  3.306611  2.728773
