29
Energy: -569029.43495 eV PBE+vdW (tier 2 basis)
C    0.167520  0.992658  0.715666
C    -0.274845  -0.033989  1.703484
O    0.526593  -0.775208  2.360309
H    0.715392  1.787037  1.249637
H    -0.665913  1.458099  0.179308
H    0.853683  0.535343  -0.009483
N    -1.592777  -0.229663  1.887309
C    -2.188810  -1.220849  2.752028
C    -3.314480  -1.892202  1.897940
O    -3.947382  -1.139267  1.153133
H    -2.245420  0.225316  1.239515
H    -1.416254  -1.933329  3.059296
C    -2.885063  -0.558046  4.025435
C    -3.795529  0.602913  3.676236
C    -3.532379  -1.595320  4.936007
H    -1.987138  -0.157067  4.539036
H    -4.288501  0.978224  4.583204
H    -4.613564  0.300521  2.993958
H    -3.269895  1.441162  3.199888
H    -3.778536  -1.118388  5.894943
H    -2.866474  -2.436909  5.165966
H    -4.476293  -1.981954  4.529359
N    -3.575029  -3.209031  1.990129
C    -2.844171  -4.269107  2.663809
H    -4.308068  -3.510214  1.341404
H    -2.279881  -4.873633  1.937823
H    -3.575697  -4.930681  3.151324
H    -2.167997  -3.872741  3.422954
Hg    2.685990  -0.115423  2.907894
