29
Energy: -569029.499689 eV PBE+vdW (tier 2 basis)
C    0.439073  -0.572456  2.128541
C    -0.019678  -0.269513  3.544909
O    0.845134  -0.404738  4.452285
H    1.436769  -0.142427  1.986904
H    -0.256851  -0.193737  1.374356
H    0.524104  -1.664705  2.040915
N    -1.259768  0.140101  3.842761
C    -2.450897  0.121290  3.020841
C    -3.153517  1.474495  3.131544
O    -4.217869  1.636508  3.879920
H    -4.510569  0.793871  4.286800
H    -2.114733  0.046402  1.968797
C    -3.398148  -1.104551  3.245888
C    -2.799748  -2.343764  2.569068
C    -3.739727  -1.410047  4.713418
H    -4.327568  -0.852781  2.705361
H    -1.852988  -2.646985  3.038588
H    -2.626722  -2.184131  1.496478
H    -3.488384  -3.191779  2.664539
H    -4.088041  -0.561229  5.328996
H    -2.884728  -1.855907  5.242403
H    -4.543279  -2.156064  4.749717
N    -2.750988  2.542270  2.495134
C    -1.609659  2.670207  1.579509
H    -3.319485  3.380431  2.648255
H    -1.593158  3.698422  1.208888
H    -1.725622  1.997501  0.720600
H    -0.667801  2.470248  2.102614
Hg    -0.712154  0.156070  6.087971
