29
Energy: -569029.465267 eV PBE+vdW (tier 2 basis)
C    0.654404  -1.036644  1.566648
C    0.308420  -0.657122  2.959107
O    1.210916  -0.768076  3.862879
H    1.450781  -0.384273  1.179323
H    -0.219056  -1.042708  0.907728
H    1.088703  -2.050367  1.593965
N    -0.929116  -0.227694  3.319466
C    -1.781802  0.774250  2.688189
C    -1.416835  2.162671  3.270718
O    -0.842029  2.347327  4.419915
H    -1.221238  -0.487146  4.266347
H    -1.562720  0.790748  1.611209
C    -3.290016  0.426951  2.905466
C    -3.657806  -0.798878  2.062376
C    -3.641802  0.248405  4.388461
H    -3.860111  1.288099  2.526643
H    -3.105971  -1.694703  2.379971
H    -3.471458  -0.636233  0.992130
H    -4.725623  -1.019884  2.178695
H    -3.192607  -0.658631  4.825711
H    -4.724844  0.107858  4.487921
H    -3.376702  1.115459  5.009511
N    -1.771636  3.265828  2.635353
C    -2.590588  3.432632  1.432608
H    -1.505437  4.129766  3.116610
H    -2.159686  4.253689  0.846839
H    -3.619262  3.702980  1.707784
H    -2.598569  2.524734  0.824430
Hg    0.690217  0.963627  5.190500
