29
Energy: -569029.772517 eV PBE+vdW (tier 2 basis)
C    0.961642  0.141676  3.134447
C    0.046251  -0.599555  4.090496
O    0.552120  -1.349305  4.952878
H    0.997446  -0.440744  2.199781
H    1.968650  0.175234  3.559412
H    0.600022  1.153254  2.922127
N    -1.298729  -0.428729  4.037875
C    -2.099186  0.020231  2.935819
C    -2.471040  1.487041  3.126810
O    -2.342770  2.017627  4.317767
H    -1.914231  1.356889  4.909230
H    -1.558597  -0.101620  1.984060
C    -3.427275  -0.867815  2.788281
C    -3.074995  -2.298463  2.394871
C    -4.366471  -0.784035  3.985022
H    -3.940250  -0.402710  1.931313
H    -2.577739  -2.856863  3.208857
H    -2.424559  -2.349273  1.512309
H    -3.993497  -2.856153  2.170808
H    -4.660167  0.239801  4.250356
H    -3.955720  -1.261494  4.899238
H    -5.283114  -1.349174  3.770160
N    -2.935727  2.268386  2.190594
C    -3.172331  1.973655  0.772774
H    -3.160265  3.221065  2.494791
H    -4.250697  1.891624  0.586342
H    -2.671208  1.049695  0.472607
H    -2.772252  2.802942  0.178571
Hg    -1.606310  -2.036186  5.660405
