29
Energy: -569029.604386 eV PBE+vdW (tier 2 basis)
C    -1.350966  -0.076003  -0.311563
C    -0.796270  0.284901  1.019919
O    0.181280  1.079166  1.178548
H    -1.729800  0.843108  -0.787023
H    -2.167575  -0.800886  -0.275025
H    -0.548898  -0.465792  -0.952170
N    -1.268050  -0.225472  2.187293
C    -1.983336  -1.431199  2.425631
C    -2.747132  -1.207474  3.787628
O    -2.250767  -0.484039  4.636561
H    -0.880929  0.210908  3.036489
H    -2.663927  -1.643101  1.592773
C    -1.072365  -2.740043  2.675722
C    -0.549218  -3.190298  1.303296
C    0.022484  -2.499742  3.698643
H    -1.770450  -3.504741  3.049332
H    0.172352  -2.476764  0.882996
H    -1.351068  -3.374243  0.577365
H    -0.016731  -4.142016  1.449306
H    0.500001  -3.460831  3.937781
H    -0.345537  -2.102661  4.657104
H    0.800035  -1.821287  3.321514
N    -3.915538  -1.873448  3.905628
C    -4.838958  -1.630561  5.004702
H    -4.244872  -2.433209  3.121110
H    -5.408089  -2.551444  5.183635
H    -5.553925  -0.828159  4.760300
H    -4.265892  -1.331059  5.889757
Hg    0.594140  3.045385  0.001750
