29
Energy: -569029.157565 eV PBE+vdW (tier 2 basis)
C    -1.554396  0.567153  0.194019
C    -0.979266  0.600445  1.585256
O    -0.240934  1.626024  1.804758
H    -1.175374  1.411561  -0.388960
H    -2.650878  0.637458  0.248188
H    -1.261008  -0.369231  -0.300826
N    -1.217759  -0.347622  2.478057
C    -2.042827  -1.550582  2.344857
C    -2.802757  -1.615755  3.683445
O    -2.246164  -1.172672  4.693077
H    -0.904532  -0.215321  3.448924
H    -2.698962  -1.450098  1.472203
C    -1.145099  -2.849958  2.192196
C    -1.980099  -4.131524  2.184816
C    -0.260807  -2.753141  0.952430
H    -0.508302  -2.853129  3.096016
H    -1.308898  -4.991557  2.068893
H    -2.679970  -4.165137  1.336442
H    -2.542277  -4.290607  3.113558
H    0.385772  -3.640853  0.904064
H    0.403623  -1.879993  0.956193
H    -0.851645  -2.755658  0.023275
N    -4.048204  -2.161598  3.782568
C    -4.990823  -2.527455  2.753048
H    -4.394567  -2.163276  4.747828
H    -5.827764  -1.806826  2.723325
H    -5.431751  -3.505021  3.009490
H    -4.519787  -2.582781  1.770170
Hg    0.596388  2.514221  3.693867
