29
Energy: -569030.164197 eV PBE+vdW (tier 2 basis)
C    -0.977328  2.004936  1.272527
C    -0.732196  0.592205  1.699321
O    0.463623  0.168987  1.493219
H    -2.021567  2.312184  1.395348
H    -0.695248  2.103661  0.213799
H    -0.315172  2.674092  1.839290
N    -1.741325  -0.096038  2.258613
C    -2.041847  -1.559005  2.407246
C    -1.564602  -2.148937  3.756227
O    -0.335645  -2.453768  4.016537
H    -2.572001  0.479112  2.381245
H    -3.140425  -1.573259  2.449442
C    -1.676887  -2.460416  1.193380
C    -2.237286  -3.868915  1.429778
C    -2.166364  -1.855903  -0.127113
H    -0.567906  -2.566123  1.105920
H    -1.973295  -4.518324  0.587217
H    -3.335294  -3.847567  1.491074
H    -1.847503  -4.344298  2.339747
H    -1.945016  -2.548076  -0.947880
H    -1.689325  -0.900044  -0.375055
H    -3.255637  -1.706530  -0.107998
N    -2.469529  -2.414389  4.673300
C    -2.189320  -3.025558  5.980151
H    -3.445864  -2.244333  4.439229
H    -2.156507  -4.118818  5.883131
H    -2.991427  -2.745245  6.668677
H    -1.227098  -2.665783  6.356599
Hg    1.009449  -1.597380  2.577375
