29
Energy: -569029.077681 eV PBE+vdW (tier 2 basis)
C    0.305289  -0.529747  -0.220881
C    0.148939  -0.357858  1.267059
O    0.934152  -1.106012  1.953737
H    1.293975  -0.154278  -0.519466
H    -0.484503  0.003249  -0.765348
H    0.269000  -1.598011  -0.470699
N    -0.742290  0.513853  1.716864
C    -1.261469  0.786054  3.062592
C    -2.797715  0.971155  2.822666
O    -3.131995  1.561539  1.797400
H    -1.283673  1.007371  0.998702
H    -1.088584  -0.089179  3.718639
C    -0.656319  2.064564  3.709227
C    -1.284713  2.385825  5.065041
C    0.869492  2.034420  3.782404
H    -0.894183  2.891568  3.008560
H    -0.817690  3.281357  5.491372
H    -1.145836  1.568889  5.790816
H    -2.358935  2.596359  4.987561
H    1.284915  2.971160  4.181796
H    1.363909  1.836193  2.823471
H    1.190496  1.274158  4.558134
N    -3.716663  0.524348  3.714666
C    -3.570544  -0.181745  4.969895
H    -4.670568  0.786743  3.447390
H    -4.297197  -1.007558  4.995673
H    -3.799577  0.482743  5.818976
H    -2.563642  -0.587118  5.092478
Hg    1.425927  -0.945041  4.094272
