29
Energy: -569030.182792 eV PBE+vdW (tier 2 basis)
C    0.116374  0.310499  -0.294339
C    -0.237856  1.121474  0.910651
O    0.090664  2.361672  0.849392
H    -0.521465  0.638925  -1.130255
H    -0.041955  -0.762280  -0.131935
H    1.156319  0.504051  -0.583112
N    -0.862799  0.521291  1.937374
C    -1.724574  1.112877  2.988821
C    -0.935142  1.327173  4.305506
O    -0.339312  2.448952  4.557321
H    -0.993755  -0.481409  1.808677
H    -2.026459  2.121964  2.652648
C    -3.047332  0.312807  3.137692
C    -3.972888  1.009369  4.146458
C    -3.749783  0.153416  1.780638
H    -2.794777  -0.701157  3.507225
H    -4.293589  1.991834  3.772104
H    -3.525371  1.153152  5.138397
H    -4.878369  0.407488  4.286507
H    -3.989317  1.131546  1.339430
H    -4.697415  -0.378025  1.926811
H    -3.174572  -0.426893  1.047789
N    -0.876252  0.370735  5.202543
C    -0.162377  0.445857  6.483685
H    -1.457792  -0.451286  5.040038
H    0.700129  1.110898  6.385973
H    0.162231  -0.563097  6.755776
H    -0.833408  0.833790  7.261949
Hg    0.089838  3.468377  2.702236
