29
Energy: -569029.599925 eV PBE+vdW (tier 2 basis)
C    0.467909  1.037802  0.742702
C    -0.123370  -0.043343  1.582639
O    0.479502  -1.112933  1.882836
H    1.312798  1.487088  1.291558
H    -0.241989  1.835581  0.500403
H    0.863542  0.608482  -0.186995
N    -1.398785  0.112281  2.028457
C    -2.128724  -0.850658  2.786562
C    -3.289935  -1.443523  1.853113
O    -4.014348  -0.635837  1.286241
H    -1.935001  0.890827  1.637722
H    -1.441332  -1.667730  3.047820
C    -2.842945  -0.243302  4.050197
C    -3.571974  1.056012  3.774857
C    -3.690977  -1.277441  4.783518
H    -1.951470  -0.017346  4.677339
H    -4.124464  1.382316  4.665381
H    -4.333614  0.919997  2.977899
H    -2.913640  1.879171  3.462114
H    -3.935889  -0.895198  5.783413
H    -3.169318  -2.233796  4.922357
H    -4.648211  -1.462541  4.276740
N    -3.368307  -2.774901  1.779030
C    -4.289960  -3.458254  0.870093
H    -2.684076  -3.333031  2.282841
H    -5.179291  -2.832648  0.732175
H    -4.554640  -4.423257  1.317451
H    -3.824560  -3.637852  -0.109545
Hg    2.841699  -1.212081  2.204357
