29
Energy: -569029.739664 eV PBE+vdW (tier 2 basis)
C    -0.392199  2.507515  0.982480
C    -0.224000  1.317844  1.856938
O    0.437915  1.309565  2.884809
H    -1.428265  2.617289  0.635083
H    0.226272  2.352953  0.079202
H    -0.046962  3.409123  1.496603
N    -0.832627  0.034413  1.448945
C    -2.302394  -0.131464  1.485980
C    -2.798309  -0.728911  2.842839
O    -2.076172  -1.388619  3.655361
H    -0.500463  -0.237335  0.510986
H    -2.770363  0.865455  1.417401
C    -2.777335  -1.006507  0.282315
C    -2.438282  -0.321361  -1.047358
C    -2.251932  -2.445661  0.353452
H    -3.875128  -1.037962  0.365839
H    -2.896454  -0.879929  -1.872601
H    -1.356619  -0.312183  -1.267068
H    -2.812406  0.709949  -1.099742
H    -2.665639  -3.026360  -0.479583
H    -2.539164  -2.961309  1.279350
H    -1.157044  -2.501419  0.250542
N    -4.083618  -0.571050  3.099421
C    -4.781282  -1.130828  4.264471
H    -4.653364  -0.097237  2.400113
H    -4.103075  -1.148952  5.122782
H    -5.122699  -2.151901  4.049497
H    -5.646462  -0.497380  4.481432
Hg    0.116238  -1.056385  3.398893
