29
Energy: -569029.448233 eV PBE+vdW (tier 2 basis)
C    -0.819541  0.497114  0.372371
C    -1.107162  0.637124  1.821947
O    -1.336929  1.785180  2.390706
H    0.251138  0.702398  0.199820
H    -1.398778  1.222733  -0.210031
H    -1.014094  -0.514279  0.002994
N    -1.235832  -0.299333  2.747309
C    -1.870829  -1.559735  2.575326
C    -2.801478  -1.717755  3.771236
O    -2.498079  -1.095100  4.875313
H    -1.752839  -0.473638  4.668888
H    -2.417759  -1.695983  1.628940
C    -0.710664  -2.724742  2.671090
C    -1.365496  -4.099304  2.557369
C    0.358845  -2.510843  1.607746
H    -0.271307  -2.586575  3.670308
H    -0.555359  -4.845156  2.549816
H    -1.915227  -4.230852  1.614196
H    -2.013336  -4.354041  3.403384
H    1.112097  -3.302814  1.715963
H    0.885038  -1.555473  1.714248
H    -0.044271  -2.597681  0.588985
N    -3.873943  -2.458185  3.732784
C    -4.810069  -2.681122  4.845418
H    -4.061936  -2.954783  2.862703
H    -4.644018  -3.682103  5.264373
H    -5.831514  -2.615081  4.456477
H    -4.650164  -1.926482  5.618632
Hg    -0.263500  3.691510  1.949689
