29
Energy: -569029.771657 eV PBE+vdW (tier 2 basis)
C    -0.052348  -0.205896  -0.013898
C    -0.024995  -0.024678  1.471936
O    1.038269  0.514897  1.937600
H    -0.191660  0.780713  -0.482134
H    -0.866865  -0.869479  -0.329245
H    0.910288  -0.600269  -0.359520
N    -1.086679  -0.422062  2.191999
C    -1.390749  -0.058640  3.576535
C    -0.679101  -0.951482  4.626053
O    0.191735  -0.378237  5.401236
H    -1.861362  -0.804286  1.650158
H    -0.924151  0.927182  3.753427
C    -2.904088  0.270824  3.812435
C    -3.206072  1.616477  3.128885
C    -3.921695  -0.796020  3.397135
H    -2.980666  0.420455  4.901986
H    -4.221448  1.937943  3.387733
H    -3.162098  1.542464  2.032747
H    -2.521259  2.412633  3.452443
H    -4.926508  -0.364901  3.484793
H    -3.908336  -1.684769  4.033180
H    -3.829597  -1.108473  2.344178
N    -0.880221  -2.237014  4.835578
C    -1.774873  -3.207690  4.207875
H    -0.301567  -2.610037  5.595090
H    -1.192923  -4.120812  4.028639
H    -2.165811  -2.834310  3.261674
H    -2.603256  -3.454000  4.884749
Hg    1.425454  0.872794  4.078567
