29
Energy: -569030.02034 eV PBE+vdW (tier 2 basis)
C    -0.495681  1.678932  -1.407701
C    -0.704182  1.183924  -0.010708
O    -0.258238  0.001158  0.215087
H    -0.835556  0.903849  -2.109079
H    0.582082  1.809817  -1.582990
H    -1.026845  2.613751  -1.615650
N    -1.303067  1.999896  0.872376
C    -2.065108  1.830310  2.159918
C    -1.211075  1.906188  3.439466
O    -0.225118  1.122601  3.731848
H    -1.490773  2.911441  0.460839
H    -2.659344  2.753599  2.162227
C    -3.163528  0.706659  2.200151
C    -4.020880  0.759358  0.930736
C    -2.743635  -0.732596  2.533065
H    -3.793595  1.037200  3.044153
H    -3.484614  0.377924  0.050924
H    -4.374690  1.775054  0.708594
H    -4.909215  0.129745  1.062613
H    -3.642104  -1.353213  2.673982
H    -2.203875  -0.828363  3.491003
H    -2.218380  -1.234240  1.698175
N    -1.554575  2.806447  4.339310
C    -0.925893  2.956881  5.658871
H    -2.281885  3.475358  4.094771
H    -0.632666  1.975022  6.042032
H    -1.650555  3.422406  6.332845
H    -0.036992  3.596192  5.579890
Hg    0.110987  -0.422301  2.283251
