29
Energy: -569030.163025 eV PBE+vdW (tier 2 basis)
C    1.111202  0.624593  0.670296
C    -0.027290  0.231435  1.557681
O    -1.071926  -0.186847  0.936937
H    1.953176  1.055585  1.222779
H    0.746250  1.359777  -0.062023
H    1.442293  -0.253199  0.097854
N    0.130256  0.328033  2.888230
C    -0.824104  0.452995  4.039917
C    -1.182935  -0.906229  4.687629
O    -2.025790  -1.746110  4.182681
H    1.072880  0.618026  3.139677
H    -0.224195  0.989399  4.789079
C    -2.068836  1.355301  3.804191
C    -2.812679  1.538805  5.133381
C    -1.684624  2.694201  3.165199
H    -2.782841  0.858629  3.102408
H    -3.702399  2.159470  4.976864
H    -2.179373  2.058997  5.866984
H    -3.151452  0.592481  5.575739
H    -2.578110  3.322622  3.073055
H    -1.257083  2.593563  2.160328
H    -0.965575  3.235918  3.796617
N    -0.645379  -1.201070  5.851505
C    -0.921953  -2.421528  6.622055
H    -0.040718  -0.505313  6.284268
H    -1.822462  -2.281679  7.234614
H    -0.065607  -2.616989  7.273689
H    -1.074872  -3.262051  5.938718
Hg    -2.476856  -1.274817  2.135653
