29
Energy: -569029.894179 eV PBE+vdW (tier 2 basis)
C    -3.077252  2.548986  2.690116
C    -2.139149  1.436408  3.049505
O    -0.957606  1.826839  3.364021
H    -4.050456  2.191835  2.336107
H    -2.610255  3.162585  1.906886
H    -3.213156  3.198935  3.565894
N    -2.618132  0.181080  3.027085
C    -2.080693  -1.227109  3.007279
C    -1.582939  -1.787027  4.354111
O    -0.434054  -1.508395  4.890667
H    -3.607838  0.182065  2.790926
H    -2.999381  -1.789465  2.808720
C    -1.172245  -1.597450  1.786544
C    0.194109  -0.913374  1.649841
C    -1.026722  -3.126562  1.729045
H    -1.775766  -1.280357  0.920474
H    0.137085  0.183275  1.577507
H    0.666186  -1.227504  0.706966
H    0.918557  -1.246238  2.419628
H    -0.423144  -3.519719  2.559794
H    -0.517726  -3.412924  0.801098
H    -2.000066  -3.634903  1.727409
N    -2.290005  -2.704167  4.986961
C    -3.543703  -3.373760  4.614787
H    -1.838195  -3.051498  5.837947
H    -3.979053  -3.787977  5.529482
H    -3.351395  -4.195313  3.913054
H    -4.261299  -2.666197  4.187586
Hg    0.328296  0.385931  4.269555
