29
Energy: -569028.851449 eV PBE+vdW (tier 2 basis)
C    0.200506  0.631035  2.025693
C    -0.940302  1.014958  2.893485
O    -0.836074  2.092927  3.591280
H    0.133343  1.251414  1.113617
H    0.148146  -0.414507  1.705445
H    1.157832  0.862698  2.504272
N    -2.094163  0.319416  2.961331
C    -2.278360  -1.147611  3.143965
C    -1.597481  -1.432853  4.512194
O    -1.939692  -0.675166  5.520644
H    -2.878304  0.874995  3.305171
H    -3.349316  -1.233129  3.394156
C    -2.081765  -2.032910  1.890290
C    -2.833327  -3.361226  2.091450
C    -2.623583  -1.317789  0.643234
H    -1.009005  -2.224456  1.731083
H    -2.561507  -4.073156  1.303268
H    -3.917341  -3.194792  2.021622
H    -2.643453  -3.850679  3.055360
H    -2.576522  -2.002103  -0.212124
H    -2.054603  -0.420012  0.374050
H    -3.676978  -1.030766  0.770566
N    -0.743530  -2.394508  4.824538
C    -0.224051  -3.577114  4.138658
H    -0.456226  -2.327458  5.807609
H    0.848018  -3.642521  4.367286
H    -0.375914  -3.526528  3.063537
H    -0.711061  -4.476129  4.545120
Hg    -1.584697  1.525998  5.626269
