29
Energy: -569029.655478 eV PBE+vdW (tier 2 basis)
C    0.637588  0.803847  2.549071
C    0.125694  -0.174315  3.594719
O    0.956006  -0.916632  4.173465
H    0.194775  1.796644  2.688633
H    0.367078  0.412677  1.556923
H    1.726090  0.864525  2.622192
N    -1.179173  -0.253181  3.893277
C    -2.310816  0.373329  3.274854
C    -2.689823  1.655479  3.999500
O    -2.596936  1.566325  5.307779
H    -2.849594  2.374098  5.800652
H    -2.067384  0.606316  2.227454
C    -3.544464  -0.637802  3.178491
C    -4.147774  -1.044042  4.519085
C    -4.616407  -0.105017  2.223924
H    -3.069519  -1.516370  2.712127
H    -4.728961  -0.237362  4.984442
H    -3.408984  -1.386920  5.267537
H    -4.825802  -1.893323  4.364503
H    -4.206636  0.151020  1.238122
H    -5.146401  0.767134  2.632316
H    -5.374902  -0.881593  2.066183
N    -3.096899  2.749539  3.406876
C    -3.226025  3.047732  1.969749
H    -3.374138  3.528173  4.011627
H    -2.783052  4.033125  1.786906
H    -4.287131  3.069565  1.695080
H    -2.709020  2.299783  1.365881
Hg    -0.823389  -1.927755  5.375631
