29
Energy: -569029.568254 eV PBE+vdW (tier 2 basis)
C    -1.270850  0.705608  0.020700
C    -0.947979  0.778722  1.470127
O    -0.074859  1.564342  1.955897
H    -1.594211  1.702443  -0.318445
H    -2.059659  -0.010251  -0.224908
H    -0.362240  0.455051  -0.544723
N    -1.521712  -0.030329  2.395462
C    -2.139076  -1.302428  2.209966
C    -2.885506  -1.573153  3.560303
O    -2.419041  -1.110636  4.593972
H    -1.276506  0.169393  3.378182
H    -2.807896  -1.283492  1.339876
C    -1.081270  -2.514011  1.971820
C    -0.061076  -2.627001  3.085867
C    -1.787642  -3.821365  1.637948
H    -0.589603  -2.137260  1.053766
H    0.511328  -1.706186  3.251851
H    0.658338  -3.418328  2.822120
H    -0.504108  -2.937659  4.044802
H    -2.209093  -4.310496  2.524946
H    -1.049413  -4.517397  1.215217
H    -2.572639  -3.702841  0.877659
N    -4.018494  -2.300679  3.476136
C    -4.929085  -2.453090  4.599616
H    -4.322986  -2.633347  2.563161
H    -5.695446  -1.660224  4.606313
H    -4.355944  -2.388760  5.532053
H    -5.440809  -3.418660  4.501543
Hg    0.289478  3.772036  1.362771
