29
Energy: -569029.811054 eV PBE+vdW (tier 2 basis)
C    1.129659  0.453037  1.171080
C    0.908681  -0.674478  2.130568
O    1.919789  -0.974613  2.858144
H    0.313836  0.537284  0.442968
H    2.086323  0.318579  0.652687
H    1.195242  1.390368  1.744870
N    -0.297120  -1.264640  2.166108
C    -0.852321  -2.126643  3.214964
C    -0.490078  -3.628654  3.033003
O    0.346261  -4.157371  3.875384
H    -0.985817  -0.873796  1.522894
H    -0.325430  -1.876766  4.152729
C    -2.333592  -1.752318  3.574946
C    -3.313167  -1.493915  2.425170
C    -2.886077  -2.759994  4.590339
H    -2.201481  -0.789261  4.096300
H    -4.171417  -0.945125  2.833627
H    -3.711263  -2.410457  1.979965
H    -2.924139  -0.851834  1.618448
H    -2.220415  -2.899920  5.453335
H    -3.076004  -3.742995  4.136186
H    -3.844511  -2.397836  4.980540
N    -0.966664  -4.443530  2.115151
C    -1.976272  -4.252855  1.075838
H    -0.586636  -5.392502  2.187008
H    -2.950411  -4.628535  1.415428
H    -1.663607  -4.837458  0.202749
H    -2.058763  -3.201995  0.795632
Hg    1.933397  -2.694778  4.208940
