29
Energy: -569029.998456 eV PBE+vdW (tier 2 basis)
C    1.229573  0.786708  1.700965
C    0.907196  -0.407414  2.543161
O    1.773309  -0.684514  3.446798
H    0.559069  0.875072  0.837637
H    2.272655  0.736393  1.366807
H    1.128090  1.688374  2.324808
N    -0.234301  -1.075195  2.307901
C    -0.952454  -2.005687  3.198026
C    -0.518146  -3.478769  2.982627
O    0.256438  -4.041465  3.858774
H    -0.790081  -0.693919  1.543493
H    -0.639240  -1.781776  4.234653
C    -2.483133  -1.734411  3.203546
C    -3.197131  -2.772530  4.079281
C    -2.756461  -0.308378  3.703500
H    -2.853465  -1.817827  2.169086
H    -2.863020  -2.714243  5.125086
H    -3.062378  -3.807409  3.737132
H    -4.274910  -2.571958  4.075516
H    -3.837170  -0.123259  3.694369
H    -2.296690  0.470953  3.081529
H    -2.411011  -0.174544  4.738827
N    -0.901772  -4.235501  1.974470
C    -1.869220  -3.980730  0.902736
H    -0.512515  -5.182229  2.004705
H    -1.622767  -4.652567  0.074171
H    -1.802511  -2.949535  0.546890
H    -2.891208  -4.199449  1.239516
Hg    1.660255  -2.542189  4.574990
