29
Energy: -569029.998049 eV PBE+vdW (tier 2 basis)
C    1.116968  1.348223  0.266862
C    0.143448  0.795574  1.259797
O    -0.040376  1.519967  2.301441
H    1.376205  0.615873  -0.507254
H    2.021857  1.690750  0.782602
H    0.660130  2.227565  -0.213425
N    -0.457698  -0.375598  0.992625
C    -1.691542  -0.928117  1.581198
C    -1.405180  -1.820479  2.816836
O    -1.653133  -1.353372  4.002064
H    -0.176003  -0.796065  0.108058
H    -2.272585  -0.080790  1.990138
C    -2.627167  -1.534099  0.497716
C    -3.858934  -2.164250  1.161013
C    -3.035998  -0.444670  -0.504357
H    -2.069440  -2.314529  -0.044553
H    -3.617853  -2.976854  1.859414
H    -4.510659  -2.589004  0.388544
H    -4.451092  -1.413900  1.704188
H    -3.604479  0.357972  -0.012673
H    -3.687586  -0.883574  -1.269275
H    -2.186440  0.006720  -1.033595
N    -0.946523  -3.054496  2.762525
C    -0.699825  -3.932531  1.614607
H    -0.823434  -3.484157  3.683925
H    0.025099  -4.688982  1.932253
H    -0.276932  -3.375662  0.774664
H    -1.623437  -4.439707  1.305682
Hg    -1.170388  0.767193  4.001979
