29
Energy: -569030.011794 eV PBE+vdW (tier 2 basis)
C    0.702856  -0.305220  0.134391
C    0.541663  -0.074285  1.606479
O    1.640519  -0.125513  2.269494
H    -0.247739  -0.282887  -0.409454
H    1.178998  -1.285420  -0.013933
H    1.388655  0.448288  -0.275932
N    -0.693519  0.173399  2.072817
C    -1.422028  0.153146  3.395221
C    -1.204747  1.371190  4.319674
O    -0.150965  1.589224  5.039970
H    -1.362051  0.219160  1.306929
H    -2.458331  0.265251  3.051103
C    -1.441745  -1.224378  4.138867
C    -0.122042  -1.775416  4.695003
C    -2.516819  -1.175621  5.236004
H    -1.780335  -1.927453  3.360536
H    -0.298043  -2.769774  5.131742
H    0.261011  -1.186348  5.552145
H    0.649233  -1.943559  3.928405
H    -2.658625  -2.178350  5.656205
H    -3.492226  -0.851607  4.848294
H    -2.232406  -0.515608  6.068134
N    -2.218026  2.200346  4.473019
C    -2.228481  3.356892  5.376722
H    -3.087049  1.987049  3.987625
H    -2.552820  3.046736  6.379140
H    -2.931058  4.095753  4.980307
H    -1.223606  3.784428  5.439036
Hg    1.570410  0.580621  4.277962
