29
Energy: -569029.650911 eV PBE+vdW (tier 2 basis)
C    0.791328  0.819663  2.767373
C    0.227346  -0.164724  3.776458
O    1.043139  -0.876486  4.415375
H    1.667435  0.366144  2.293204
H    1.122240  1.712384  3.316653
H    0.051280  1.099068  2.010557
N    -1.087469  -0.267035  4.011333
C    -2.213163  0.348398  3.373627
C    -2.561634  1.675343  4.029530
O    -2.441841  1.661069  5.338969
H    -2.678416  2.498098  5.789117
H    -1.980439  0.517850  2.311535
C    -3.463127  -0.647099  3.350941
C    -4.062786  -0.953810  4.719421
C    -4.533619  -0.162419  2.369733
H    -3.004595  -1.561512  2.940383
H    -4.627813  -0.108543  5.133583
H    -3.323629  -1.256927  5.484600
H    -4.755362  -1.800241  4.626382
H    -4.128063  0.016706  1.365417
H    -5.045173  0.745180  2.720131
H    -5.306580  -0.934643  2.272140
N    -2.966576  2.739158  3.383191
C    -3.123240  2.958681  1.934869
H    -3.215989  3.556454  3.947773
H    -4.190065  3.025637  1.691248
H    -2.671941  2.146347  1.362900
H    -2.631991  3.904220  1.678798
Hg    -0.754260  -1.885960  5.569760
