29
Energy: -569029.850174 eV PBE+vdW (tier 2 basis)
C    0.546554  1.588024  0.584035
C    -0.193858  0.803573  1.621817
O    -0.236559  1.345969  2.782373
H    -0.004796  2.520790  0.391096
H    0.651216  1.032844  -0.355617
H    1.534704  1.868761  0.969162
N    -0.743913  -0.369759  1.269898
C    -1.795538  -1.132238  1.955385
C    -1.238645  -2.138566  2.995539
O    -1.339085  -1.859788  4.258674
H    -0.620840  -0.615885  0.287145
H    -2.361618  -0.414240  2.574534
C    -2.876074  -1.730128  0.965505
C    -4.233788  -1.077572  1.266274
C    -2.517667  -1.602476  -0.519046
H    -2.965432  -2.799778  1.205607
H    -4.536014  -1.226008  2.312030
H    -5.014379  -1.522953  0.638091
H    -4.215166  0.001006  1.051963
H    -1.561470  -2.070574  -0.803068
H    -2.522281  -0.557101  -0.860826
H    -3.282920  -2.121387  -1.109387
N    -0.703870  -3.305178  2.697594
C    -0.560930  -3.984937  1.409083
H    -0.409167  -3.842847  3.518024
H    0.353256  -4.587350  1.453557
H    -0.470881  -3.267606  0.591241
H    -1.412305  -4.655254  1.228586
Hg    -1.047534  0.284656  4.501732
