29
Energy: -569029.574592 eV PBE+vdW (tier 2 basis)
C    -0.810404  -0.198887  -1.265773
C    -0.106795  0.211234  -0.021358
O    1.065879  0.544378  0.032519
H    -1.810936  0.248302  -1.337671
H    -0.956734  -1.293819  -1.228769
H    -0.202915  0.046566  -2.141722
N    -0.840263  0.166608  1.263290
C    -1.895696  1.168170  1.565212
C    -1.266644  2.547539  1.871764
O    -0.225801  2.658157  2.604394
H    -1.246685  -0.767097  1.434150
H    -2.549143  1.273944  0.684935
C    -2.736494  0.647853  2.776925
C    -3.819837  1.649558  3.195745
C    -3.355037  -0.722928  2.466928
H    -2.027532  0.539598  3.617828
H    -4.353929  1.251974  4.066648
H    -4.565399  1.800668  2.403590
H    -3.411415  2.622214  3.497255
H    -3.945969  -1.054163  3.329881
H    -2.626504  -1.535461  2.302762
H    -4.032527  -0.680333  1.602634
N    -1.833624  3.663612  1.441684
C    -3.088611  3.892535  0.722031
H    -1.351346  4.510079  1.757115
H    -3.838879  4.310294  1.404986
H    -3.479222  2.973597  0.279920
H    -2.892830  4.616040  -0.078907
Hg    1.117293  0.864767  2.492004
