29
Energy: -569029.374447 eV PBE+vdW (tier 2 basis)
C    -0.659652  -0.086180  -1.062161
C    -0.244756  -0.047967  0.362719
O    1.003340  -0.192594  0.635644
H    -0.227195  0.763386  -1.610755
H    -1.747140  -0.126121  -1.177208
H    -0.218612  -0.989277  -1.515761
N    -1.122239  0.098069  1.380870
C    -2.202391  1.081411  1.533393
C    -1.535376  2.418662  1.915365
O    -0.494723  2.479898  2.692760
H    -0.804661  -0.292639  2.272298
H    -2.730643  1.187797  0.576588
C    -3.184614  0.564134  2.634512
C    -4.228727  1.597108  3.066478
C    -3.846550  -0.733692  2.153986
H    -2.551130  0.343515  3.514663
H    -4.842290  1.164234  3.865384
H    -4.914290  1.854889  2.248319
H    -3.788818  2.515963  3.476621
H    -4.455133  -1.152898  2.964299
H    -3.124536  -1.506046  1.859292
H    -4.516311  -0.544888  1.303143
N    -2.029959  3.586721  1.540536
C    -3.275098  3.914347  0.848836
H    -1.485170  4.388753  1.873848
H    -3.993308  4.348489  1.557619
H    -3.717944  3.032645  0.381979
H    -3.045696  4.666041  0.082141
Hg    1.299630  1.215784  2.354372
