29
Energy: -569029.680866 eV PBE+vdW (tier 2 basis)
C    0.747695  0.888360  3.208683
C    0.079295  0.034162  4.273814
O    0.801973  -0.523926  5.130063
H    1.767652  1.119505  3.526796
H    0.186772  1.810293  3.021833
H    0.790359  0.287036  2.286990
N    -1.262231  -0.110382  4.304550
C    -2.229480  0.168156  3.273477
C    -2.717628  1.602659  3.407369
O    -2.842036  2.125854  4.606604
H    -2.450645  1.531300  5.279185
H    -1.792911  0.006796  2.276047
C    -3.447586  -0.862629  3.400194
C    -4.664791  -0.450005  2.572433
C    -2.974010  -2.264859  3.020741
H    -3.724693  -0.830885  4.469986
H    -5.077828  0.524876  2.860197
H    -5.460997  -1.187479  2.737128
H    -4.453616  -0.453816  1.494992
H    -3.768741  -2.990360  3.236062
H    -2.081038  -2.602453  3.570357
H    -2.743570  -2.333377  1.948684
N    -3.043173  2.387383  2.416895
C    -3.054314  2.126017  0.974125
H    -3.365502  3.318655  2.701016
H    -2.550706  1.186074  0.738283
H    -2.540882  2.952678  0.469999
H    -4.092073  2.080477  0.621691
Hg    -1.068294  -1.628111  6.044807
