29
Energy: -569029.892444 eV PBE+vdW (tier 2 basis)
C    -0.060514  -1.789823  -0.368342
C    -0.277944  -0.637514  0.565419
O    0.628497  -0.512961  1.465565
H    -0.894854  -1.943672  -1.061307
H    0.088559  -2.701359  0.227261
H    0.867980  -1.622031  -0.932212
N    -1.355241  0.139473  0.361681
C    -2.159617  1.166567  1.117133
C    -1.557522  2.583228  1.195052
O    -0.607326  2.938548  2.005212
H    -1.866915  -0.170387  -0.461406
H    -3.019478  1.279217  0.448088
C    -2.815762  0.676666  2.452148
C    -1.904751  0.312926  3.631725
C    -3.881175  1.698827  2.879629
H    -3.333575  -0.248656  2.151267
H    -2.516894  -0.079471  4.457461
H    -1.410376  1.197672  4.079532
H    -1.191752  -0.495733  3.409941
H    -3.438710  2.651485  3.204753
H    -4.449233  1.303898  3.730223
H    -4.605766  1.899970  2.079441
N    -2.088748  3.563648  0.489229
C    -3.254682  3.578050  -0.404683
H    -1.652337  4.473713  0.663110
H    -4.184924  3.659958  0.171723
H    -3.277392  2.689223  -1.043187
H    -3.163009  4.457131  -1.050067
Hg    0.640461  1.305405  2.580612
