29
Energy: -569029.710085 eV PBE+vdW (tier 2 basis)
C    0.860946  -0.023138  2.491139
C    0.483790  1.384277  2.194151
O    1.264025  2.245494  1.821248
H    0.139878  -0.737381  2.071020
H    0.835671  -0.158885  3.587721
H    1.873977  -0.226552  2.132177
N    -0.916930  1.809406  2.412412
C    -1.992354  1.356894  1.499004
C    -1.931648  2.120105  0.149267
O    -1.673098  3.363534  0.069058
H    -1.224743  1.611360  3.378044
H    -1.847422  0.285423  1.271792
C    -3.372466  1.550630  2.206484
C    -4.534916  1.115406  1.304595
C    -3.411591  0.794317  3.542942
H    -3.473768  2.633160  2.403161
H    -5.477303  1.228684  1.852928
H    -4.457823  0.055110  1.021285
H    -4.626214  1.724584  0.397218
H    -4.393743  0.938125  4.009798
H    -2.692017  1.151117  4.300049
H    -3.267984  -0.286632  3.405677
N    -2.245176  1.441212  -0.939252
C    -2.366675  2.019602  -2.281783
H    -2.548779  0.475718  -0.818205
H    -1.659836  2.847658  -2.388457
H    -3.387100  2.392877  -2.443866
H    -2.148319  1.236404  -3.014083
Hg    -0.392380  4.084489  1.772474
