29
Energy: -569029.191958 eV PBE+vdW (tier 2 basis)
C    0.036272  -0.880123  2.506555
C    -0.561982  -0.694916  3.875869
O    0.074785  -1.308200  4.803998
H    -0.734052  -1.237720  1.808311
H    0.847557  -1.612526  2.547215
H    0.443488  0.078812  2.152030
N    -1.650369  0.032652  4.076246
C    -2.444280  0.755374  3.081237
C    -3.042844  1.928420  3.878623
O    -3.200587  1.790032  5.097385
H    -1.989873  0.207681  5.032807
H    -1.794065  1.088470  2.263505
C    -3.597155  -0.161769  2.477197
C    -4.571716  -0.659048  3.537068
C    -4.291185  0.486076  1.281334
H    -3.019775  -1.026619  2.099876
H    -5.187555  0.148814  3.961334
H    -4.080187  -1.186303  4.364301
H    -5.275389  -1.366787  3.075921
H    -4.933019  -0.262083  0.797120
H    -3.584577  0.834302  0.515973
H    -4.948071  1.316209  1.572300
N    -3.423170  3.087052  3.276324
C    -3.094853  3.615300  1.971978
H    -3.854336  3.741191  3.937675
H    -4.018958  3.986547  1.497170
H    -2.631896  2.863678  1.331405
H    -2.422233  4.484454  2.071794
Hg    0.077027  -1.110969  7.046449
