29
Energy: -569029.698554 eV PBE+vdW (tier 2 basis)
C    -0.334381  2.424177  -0.728766
C    0.048909  1.612963  0.456256
O    1.139370  1.661398  1.002604
H    -1.354027  2.823263  -0.643621
H    -0.329199  1.757454  -1.610778
H    0.393327  3.224866  -0.890553
N    -0.919969  0.628532  0.995784
C    -2.117730  1.099079  1.732974
C    -1.783688  1.440773  3.213197
O    -0.898856  0.837965  3.902311
H    -1.218026  -0.032224  0.264859
H    -2.467350  2.040378  1.274895
C    -3.257614  0.030901  1.608247
C    -2.917927  -1.303610  2.282536
C    -4.609593  0.577295  2.079447
H    -3.340443  -0.130489  0.517569
H    -3.722827  -2.022053  2.084102
H    -2.836802  -1.207378  3.373849
H    -1.997118  -1.770493  1.901690
H    -5.401741  -0.119452  1.779346
H    -4.855390  1.547278  1.623046
H    -4.669534  0.662964  3.172865
N    -2.535281  2.363668  3.785277
C    -2.459282  2.747965  5.199368
H    -3.294005  2.761419  3.233359
H    -3.107784  2.101443  5.805704
H    -2.795737  3.785067  5.290769
H    -1.427148  2.651820  5.549223
Hg    0.692137  -0.113205  2.653794
