29
Energy: -569029.683872 eV PBE+vdW (tier 2 basis)
C    0.802927  1.079117  3.128227
C    0.258385  -0.096395  3.923049
O    1.070319  -0.875797  4.470131
H    1.862966  1.206135  3.362066
H    0.251586  2.000301  3.346543
H    0.699505  0.831492  2.060235
N    -1.072637  -0.287122  4.053793
C    -2.144689  0.268997  3.267288
C    -2.563114  1.617992  3.833694
O    -2.472935  1.825749  5.127944
H    -2.040269  1.063205  5.564759
H    -1.838094  0.377495  2.216976
C    -3.384361  -0.751460  3.248702
C    -4.057381  -0.931425  4.607017
C    -4.395814  -0.384339  2.163785
H    -2.886716  -1.690211  2.950675
H    -4.622701  -0.041774  4.916010
H    -3.367158  -1.193413  5.427361
H    -4.773911  -1.760771  4.545095
H    -4.964374  0.522883  2.408042
H    -5.130821  -1.195753  2.082472
H    -3.932681  -0.269514  1.175745
N    -3.034665  2.617728  3.138895
C    -3.212193  2.767435  1.690130
H    -3.294570  3.435539  3.700674
H    -2.735898  3.705882  1.383123
H    -4.282068  2.817097  1.455417
H    -2.760835  1.934476  1.148133
Hg    -0.699803  -2.255552  5.203021
