21
Energy: -605076.979421 eV PBE+vdW (tier 2 basis)
N    0.095566  -0.064619  -0.037394
C    -0.007592  0.303015  1.347046
C    1.216945  -0.070407  2.262001
O    1.146112  -0.835775  3.245419
H    0.565747  0.639173  -0.603487
H    0.525233  -0.972473  -0.211192
H    -0.134228  1.393946  1.418593
C    -1.149008  -0.411219  2.069990
C    -2.609846  -0.598221  1.897509
N    -3.070503  -1.417643  2.927645
C    -3.656248  -0.261744  1.087757
C    -4.388170  -1.568859  2.741796
N    -4.760922  -0.884387  1.645384
H    -1.062239  0.021155  3.098798
H    -0.768881  -1.467150  2.061631
H    -3.716771  0.339092  0.188512
H    -5.069027  -2.144314  3.360210
H    -5.711018  -0.835036  1.281072
O    2.338239  0.470498  1.854047
H    3.093915  0.200529  2.421284
Pb    -1.050055  -1.971512  4.286907
