21
Energy: -605078.828412 eV PBE+vdW (tier 2 basis)
N    -0.057033  0.947037  0.740948
C    0.390990  -0.245089  1.403441
C    1.084565  -1.283509  0.511084
O    1.277343  -1.032370  -0.731983
H    0.699049  1.544208  0.412556
H    -0.705632  0.779956  -0.027444
H    1.167179  0.047945  2.132766
C    -0.791117  -0.903495  2.199498
C    -0.467041  -1.368963  3.576710
N    0.454251  -2.366996  3.871178
C    -0.976375  -0.971000  4.786843
C    0.511169  -2.576391  5.192741
N    -0.357873  -1.732946  5.756867
H    -1.247608  -1.722821  1.624173
H    -1.551658  -0.118536  2.286540
H    -1.722356  -0.223631  5.026930
H    1.140429  -3.291320  5.709405
H    -0.532627  -1.670572  6.758009
O    1.505096  -2.411944  0.988564
H    1.015549  -2.848700  3.169535
Pb    2.373698  -2.994862  -1.107359
