21
Energy: -605078.782851 eV PBE+vdW (tier 2 basis)
N    -0.615996  0.013038  2.008367
C    0.807916  -0.212797  1.950639
C    1.009047  -0.923821  0.611640
O    0.840160  -2.192775  0.467219
H    -0.911073  0.935545  2.308542
H    -1.178922  -0.733944  2.401725
H    1.298100  0.760506  1.819907
C    1.494937  -0.901934  3.171404
C    0.705729  -1.952588  3.883960
N    0.164911  -1.741624  5.149008
C    0.374996  -3.246819  3.565084
C    -0.451876  -2.842842  5.592355
N    -0.332420  -3.763686  4.631586
H    1.734119  -0.106538  3.890485
H    2.462739  -1.323824  2.863445
H    0.595248  -3.828734  2.680617
H    -0.949863  -2.965501  6.547365
H    -0.701177  -4.710208  4.697092
O    1.284719  -0.207876  -0.423063
H    0.246462  -0.882132  5.688399
Pb    1.162244  -1.972449  -1.833775
