21
Energy: -605078.181513 eV PBE+vdW (tier 2 basis)
N    0.280137  -0.034413  -0.210778
C    -0.020332  0.157607  1.237731
C    1.214957  0.663380  1.967006
O    2.367451  0.425067  1.527050
H    -0.434648  -0.827331  -0.545923
H    0.038278  0.817018  -0.733303
H    -0.849542  0.872192  1.356953
C    -0.428312  -1.218167  1.865747
C    -1.574545  -1.833633  1.135210
N    -1.540463  -1.887298  -0.247400
C    -2.724212  -2.439626  1.590254
C    -2.651235  -2.507545  -0.628464
N    -3.379005  -2.860243  0.458260
H    -0.668262  -1.086795  2.928538
H    0.455386  -1.884140  1.826900
H    -3.113813  -2.615307  2.585720
H    -2.954924  -2.713801  -1.648784
H    -4.264901  -3.359575  0.438828
O    1.137318  1.281836  3.109784
H    0.223157  1.476995  3.401613
Pb    2.603937  -0.538898  -0.523177
