21
Energy: -605079.286538 eV PBE+vdW (tier 2 basis)
N    -0.085577  -3.494982  2.111942
C    0.203844  -2.149071  1.627053
C    1.004896  -2.081634  0.322900
O    1.340688  -3.157643  -0.289551
H    -0.740578  -3.985629  1.501807
H    0.758847  -4.069391  2.161239
H    -0.754913  -1.658266  1.384294
C    0.898023  -1.303736  2.730129
C    0.047000  -1.127906  3.947478
N    -0.698188  -2.164277  4.487464
C    -0.148081  -0.051700  4.775593
C    -1.329760  -1.756626  5.590477
N    -0.997628  -0.473293  5.778817
H    1.162461  -0.315081  2.336903
H    1.841620  -1.798713  3.014304
H    0.244825  0.956348  4.739519
H    -1.989350  -2.346956  6.215381
H    -1.327488  0.099426  6.552583
O    1.323046  -0.940177  -0.179174
H    -0.755396  -3.068241  3.989547
Pb    2.291707  -1.939452  -2.010702
