21
Energy: -605078.617725 eV PBE+vdW (tier 2 basis)
N    -0.974744  -0.639141  1.023576
C    0.213727  -0.258686  1.859999
C    1.268414  0.295044  0.869201
O    0.952576  0.584474  -0.263659
H    -1.001545  0.047460  0.244317
H    -0.753516  -1.523946  0.543295
H    -0.075531  0.597050  2.492848
C    0.678886  -1.419638  2.741932
C    -0.198860  -1.710378  3.921748
N    -1.598806  -1.636039  3.913068
C    0.181949  -2.121462  5.172710
C    -2.028662  -1.998971  5.140842
N    -0.973826  -2.295992  5.903794
H    1.683247  -1.183635  3.115251
H    0.801827  -2.325915  2.123048
H    1.163936  -2.304691  5.593593
H    -3.059095  -2.047995  5.477323
H    -1.020121  -2.599061  6.875973
O    2.460539  0.435936  1.439972
H    3.086612  0.839126  0.800451
Pb    -3.026007  -0.901535  2.246718
