21
Energy: -605079.396472 eV PBE+vdW (tier 2 basis)
N    0.827671  -1.436240  -0.165825
C    0.443186  -0.543973  0.963183
C    1.724878  -0.081221  1.667106
O    2.760938  -0.763360  1.635659
H    0.003892  -1.951175  -0.494703
H    1.151491  -0.882167  -0.966991
H    -0.098178  0.334661  0.578054
C    -0.495567  -1.279678  1.951751
C    0.077631  -2.403138  2.770231
N    1.090322  -3.270022  2.357144
C    -0.366806  -2.828702  3.998157
C    1.243985  -4.186711  3.324177
N    0.373839  -3.942425  4.315179
H    -1.352979  -1.642345  1.359340
H    -0.922532  -0.537087  2.639531
H    -1.145104  -2.448672  4.649821
H    1.954708  -5.006375  3.328337
H    0.278124  -4.497119  5.164020
O    1.734967  1.024771  2.365302
H    0.914581  1.553384  2.297719
Pb    2.682160  -2.898584  0.643251
