21
Energy: -605078.989157 eV PBE+vdW (tier 2 basis)
N    -0.349735  1.076879  1.101081
C    0.459501  0.107819  1.940986
C    1.912599  0.334388  1.423515
O    2.846975  -0.432217  1.909890
H    -0.952106  0.615603  0.407912
H    -0.925500  1.723070  1.652999
H    0.398704  0.452463  2.981779
C    -0.050820  -1.349276  1.821446
C    0.127108  -2.214093  3.034223
N    1.344801  -2.702175  3.515601
C    -0.872493  -2.738855  3.816644
C    1.064021  -3.497514  4.559478
N    -0.261374  -3.532075  4.758931
H    0.399364  -1.828431  0.938042
H    -1.133235  -1.326773  1.631112
H    -1.949926  -2.631612  3.768546
H    1.779591  -4.043138  5.166039
H    -0.734575  -4.069015  5.483617
O    2.092011  1.218575  0.600587
H    0.423358  1.605023  0.583111
Pb    3.586115  -2.201354  2.878033
