21
Energy: -605078.824859 eV PBE+vdW (tier 2 basis)
N    -0.409671  0.392091  0.175291
C    0.153857  -0.179271  1.387309
C    1.493271  -0.699341  0.865605
O    2.557700  0.010297  1.006990
H    -0.909853  1.264703  0.320856
H    -0.962066  -0.258023  -0.379476
H    0.380208  0.649026  2.071615
C    -0.730845  -1.235199  2.083772
C    -0.331478  -1.611783  3.475422
N    -0.981263  -2.624293  4.174631
C    0.586849  -1.097897  4.356841
C    -0.497895  -2.726327  5.418459
N    0.458720  -1.803884  5.538810
H    -0.784621  -2.138234  1.455064
H    -1.749768  -0.816526  2.116995
H    1.300596  -0.290990  4.253607
H    -0.822454  -3.424486  6.181739
H    0.999068  -1.644615  6.386633
O    1.546006  -1.780871  0.166607
H    -1.733891  -3.204905  3.810190
Pb    3.646529  -1.222470  -0.585960
