21
Energy: -605078.77756 eV PBE+vdW (tier 2 basis)
N    -0.978133  -0.203394  0.354705
C    -0.102172  -0.915975  1.259525
C    0.792073  -1.863653  0.487939
O    1.335048  -2.887447  1.052037
H    -0.541846  -0.013005  -0.546686
H    -1.294589  0.682150  0.747433
H    0.637198  -0.264714  1.784036
C    -0.956768  -1.642760  2.353397
C    -0.396435  -1.664888  3.738936
N    -1.058202  -1.078492  4.812890
C    0.745753  -2.206925  4.274495
C    -0.370279  -1.252204  5.947234
N    0.732122  -1.935405  5.628016
H    -1.182188  -2.668169  2.031211
H    -1.922992  -1.122642  2.364934
H    1.543309  -2.766250  3.805212
H    -0.653730  -0.906093  6.934539
H    1.445969  -2.214601  6.297602
O    1.037356  -1.632201  -0.752584
H    -1.954737  -0.598896  4.762857
Pb    2.293241  -3.523433  -0.968729
