21
Energy: -605078.784405 eV PBE+vdW (tier 2 basis)
N    -0.746006  -0.370670  -0.038750
C    -0.211487  -0.118020  1.264292
C    1.054960  0.722167  1.150196
O    1.525677  1.032773  0.000921
H    -0.223465  -1.040722  -0.599140
H    -1.733318  -0.612178  -0.032676
H    -0.927241  0.531535  1.798587
C    0.053594  -1.381987  2.190987
C    -0.263286  -1.217295  3.637388
N    0.320410  -0.263496  4.462357
C    -1.129932  -1.915774  4.441287
C    -0.156122  -0.367336  5.709282
N    -1.036770  -1.372086  5.706053
H    1.087208  -1.739134  2.066797
H    -0.591925  -2.178106  1.802049
H    -1.784261  -2.749392  4.218863
H    0.115120  0.246022  6.560295
H    -1.557303  -1.684123  6.523601
O    1.678583  1.136086  2.209435
H    0.996460  0.427516  4.134365
Pb    3.201025  2.300437  0.852306
