23
Energy: -99209.2564023 eV PBE+vdW (tier 2 basis)
N    0.633224  -0.498760  0.146122
C    0.047372  -0.082241  1.455094
C    1.211075  0.259181  2.384608
O    2.327181  -0.264275  2.219252
H    -0.126493  -0.841268  -0.452040
H    0.987144  0.332855  -0.340665
H    -0.582091  0.815301  1.338251
C    -0.861496  -1.208939  2.033068
C    -0.353905  -2.671734  1.990888
C    0.688597  -3.037975  3.069349
C    -1.550167  -3.633266  2.096893
H    -1.797648  -1.159065  1.457999
H    -1.140609  -0.949329  3.065422
H    0.058948  -2.860634  0.967555
H    1.514330  -2.318048  3.225254
H    1.098443  -4.048707  2.910783
H    0.207813  -3.074332  4.057343
H    -2.085045  -3.469704  3.042529
H    -1.222623  -4.680096  2.077402
H    -2.260394  -3.485041  1.274394
O    1.045560  1.068594  3.397963
H    0.160526  1.484943  3.436706
Sr    2.551259  -2.152462  0.845829
