23
Energy: -99209.0333218 eV PBE+vdW (tier 2 basis)
N    -0.298483  0.150118  -0.119206
C    0.026215  -0.160447  1.316713
C    1.511450  0.112683  1.509114
O    2.309483  -0.047476  0.559579
H    -1.185442  -0.318984  -0.336569
H    -0.521329  1.150279  -0.196105
H    -0.555790  0.490506  1.986674
C    -0.348161  -1.638719  1.600560
C    -0.154765  -2.208587  3.028261
C    1.265542  -2.720160  3.303543
C    -0.682311  -1.274688  4.125267
H    0.192897  -2.281596  0.881707
H    -1.418494  -1.707029  1.345567
H    -0.810139  -3.094090  3.039135
H    1.296352  -3.235119  4.271682
H    2.023846  -1.927095  3.351171
H    1.582722  -3.449516  2.545316
H    -0.711706  -1.799887  5.087398
H    -1.699002  -0.912916  3.919031
H    -0.043045  -0.389290  4.301468
O    1.988142  0.511923  2.652521
H    1.301376  0.568017  3.353273
Sr    1.760345  -0.437549  -1.630489
