23
Energy: -99209.1373436 eV PBE+vdW (tier 2 basis)
N    0.014411  0.667271  0.616089
C    0.203715  -0.051195  1.919181
C    1.603715  -0.634107  1.957743
O    2.239700  -0.846175  0.901759
H    -0.993027  0.632837  0.411514
H    0.199337  1.665928  0.766232
H    0.072930  0.648382  2.760321
C    -0.821918  -1.204110  2.066676
C    -2.298286  -0.751200  2.127239
C    -3.188937  -1.998961  2.219632
C    -2.566628  0.222056  3.278760
H    -0.587279  -1.760940  2.987311
H    -0.677204  -1.919550  1.237678
H    -2.559362  -0.245273  1.175221
H    -4.247235  -1.713204  2.194628
H    -3.013341  -2.538434  3.160789
H    -3.012409  -2.696808  1.390021
H    -3.632237  0.478012  3.318885
H    -2.023594  1.174869  3.185283
H    -2.305266  -0.227614  4.247740
O    2.162523  -0.984152  3.084076
H    1.625861  -0.775823  3.875994
Sr    1.631533  -0.263302  -1.225243
