23
Energy: -99209.0343056 eV PBE+vdW (tier 2 basis)
N    0.815685  -0.163896  0.221530
C    0.091109  -0.042872  1.532623
C    0.989359  0.745534  2.475752
O    2.232473  0.662995  2.374762
H    0.366405  -0.923765  -0.302781
H    0.624627  0.674228  -0.341600
H    -0.862429  0.491803  1.396865
C    -0.211653  -1.460511  2.077949
C    -0.891523  -1.555039  3.465543
C    -1.833353  -2.766926  3.496290
C    0.128134  -1.629259  4.611031
H    0.727869  -2.045771  2.094982
H    -0.860641  -1.928090  1.320416
H    -1.522205  -0.655065  3.600099
H    -2.318979  -2.850959  4.475795
H    -1.280015  -3.701147  3.323132
H    -2.623571  -2.689990  2.737984
H    -0.382296  -1.615796  5.581579
H    0.851370  -0.801755  4.625940
H    0.693536  -2.571177  4.558015
O    0.498066  1.504133  3.414463
H    -0.480844  1.507625  3.442778
Sr    3.383778  -0.393066  0.692488
