23
Energy: -99209.053471 eV PBE+vdW (tier 2 basis)
N    0.618052  0.581241  0.468852
C    0.403229  -0.252899  1.702726
C    1.770595  -0.594823  2.292100
O    2.815964  -0.074365  1.846732
H    0.456887  -0.044215  -0.331726
H    -0.174549  1.230305  0.404489
H    -0.069444  0.399627  2.460403
C    -0.517038  -1.474264  1.467611
C    -2.034616  -1.198425  1.547250
C    -2.522448  -0.093536  0.601557
C    -2.788372  -2.510159  1.292836
H    -0.286627  -2.264919  2.200617
H    -0.255403  -1.919678  0.490495
H    -2.247918  -0.877351  2.582167
H    -2.260237  -0.303155  -0.447299
H    -2.153198  0.909474  0.875214
H    -3.616000  -0.018555  0.643541
H    -2.468535  -3.307170  1.977268
H    -2.637111  -2.865925  0.263401
H    -3.865869  -2.366387  1.436647
O    1.883930  -1.398602  3.311514
H    1.031875  -1.790780  3.594604
Sr    3.033221  1.560569  0.265494
