23
Energy: -99209.2710553 eV PBE+vdW (tier 2 basis)
N    -0.515180  0.395639  0.069392
C    0.123183  -0.096170  1.357118
C    1.592648  0.397251  1.223472
O    2.377928  0.097473  2.217569
H    -0.826350  -0.371592  -0.538515
H    -1.307388  1.030638  0.218381
H    -0.359990  0.447756  2.180915
C    -0.035661  -1.622566  1.545371
C    -0.337373  -2.134216  2.972993
C    -0.739337  -3.614596  2.904448
C    0.801541  -1.954573  3.995339
H    0.843389  -2.142310  1.132380
H    -0.887127  -1.950094  0.929497
H    -1.199210  -1.563291  3.358593
H    -1.008634  -3.995895  3.896912
H    0.078273  -4.238260  2.514237
H    -1.609335  -3.759597  2.251804
H    0.531024  -2.409028  4.956435
H    1.000437  -0.882608  4.181917
H    1.706210  -2.490385  3.632396
O    1.914830  1.012618  0.216507
H    0.290220  0.911399  -0.399201
Sr    3.659710  -0.580462  3.801346
