23
Energy: -99209.7173468 eV PBE+vdW (tier 2 basis)
N    -0.365407  -0.185279  -0.089012
C    -0.461120  -0.032317  1.425665
C    0.873538  0.538536  1.899735
O    1.898353  0.436952  1.130544
H    -0.928144  -0.984138  -0.414032
H    -0.682171  0.652869  -0.594985
H    -1.263195  0.684906  1.640721
C    -0.785920  -1.406521  2.050232
C    -1.096723  -1.410816  3.562284
C    -2.242361  -0.459424  3.925189
C    -1.407336  -2.852869  3.987559
H    0.038963  -2.104499  1.831374
H    -1.679284  -1.785749  1.522575
H    -0.190909  -1.087244  4.101420
H    -2.489598  -0.554972  4.989363
H    -3.156073  -0.698110  3.360825
H    -1.994875  0.598498  3.756318
H    -1.568975  -2.902871  5.070889
H    -0.588828  -3.542744  3.740750
H    -2.321235  -3.223523  3.501938
O    0.951513  1.065701  3.051399
H    0.630223  -0.343459  -0.331641
Sr    3.261218  1.456285  2.835105
