23
Energy: -99209.7658471 eV PBE+vdW (tier 2 basis)
N    1.230945  -1.638369  -0.521402
C    0.291977  -0.747934  0.281260
C    1.142670  0.063220  1.261851
O    0.560273  0.858739  2.060858
H    2.199355  -1.291438  -0.397834
H    1.184951  -2.609371  -0.160753
H    -0.113605  -0.006296  -0.424503
C    -0.886768  -1.531398  0.882090
C    -0.603981  -2.719984  1.832210
C    0.034875  -3.946831  1.153731
C    0.158472  -2.333657  3.105306
H    -1.507716  -1.878447  0.041928
H    -1.496130  -0.781819  1.406908
H    -1.612391  -3.034704  2.143356
H    -0.415827  -4.178419  0.177298
H    -0.100329  -4.841443  1.774842
H    1.135309  -3.867721  1.048891
H    -0.315698  -1.489149  3.622568
H    1.211692  -2.080845  2.892440
H    0.184739  -3.178104  3.805238
O    2.422663  -0.033339  1.212256
H    0.992390  -1.656466  -1.520408
Sr    2.592136  1.593776  2.973866
