23
Energy: -99209.2382491 eV PBE+vdW (tier 2 basis)
N    0.546259  -0.596432  0.259960
C    0.081934  -0.055691  1.580827
C    1.306840  0.194164  2.453637
O    2.392511  -0.363479  2.209612
H    -0.250122  -1.080441  -0.167972
H    0.716083  0.199379  -0.366729
H    -0.432794  0.905090  1.418492
C    -0.930903  -1.002828  2.286115
C    -0.446880  -2.233777  3.082304
C    -1.684940  -2.985429  3.597597
C    0.477248  -3.211778  2.324013
H    -1.651814  -1.316399  1.511811
H    -1.522468  -0.382504  2.974899
H    0.113844  -1.877063  3.962392
H    -2.261255  -3.423397  2.770106
H    -2.353183  -2.317127  4.155309
H    -1.393750  -3.798031  4.274023
H    0.205676  -3.324293  1.258667
H    0.423739  -4.218817  2.757030
H    1.541561  -2.927622  2.465808
O    1.232101  0.967302  3.505449
H    0.363007  1.402084  3.620605
Sr    2.750306  -1.954912  0.551044
