23
Energy: -99209.112647 eV PBE+vdW (tier 2 basis)
N    -0.251785  -0.884722  -0.228522
C    -0.106786  -0.201717  1.100369
C    1.369088  0.020576  1.368409
O    2.234632  -0.694355  0.817331
H    -1.157258  -1.371125  -0.211038
H    -0.378117  -0.163937  -0.949854
H    -0.626599  0.770651  1.090879
C    -0.694916  -1.073165  2.245530
C    -2.220098  -0.931636  2.468921
C    -2.591356  0.458240  2.995986
C    -3.070090  -1.323118  1.253200
H    -0.186103  -0.816901  3.186717
H    -0.428310  -2.126057  2.039847
H    -2.434860  -1.658549  3.269133
H    -3.655591  0.494804  3.259241
H    -2.435876  1.250484  2.245878
H    -2.025768  0.718738  3.901096
H    -4.129017  -1.383158  1.533441
H    -2.804997  -2.316243  0.853702
H    -3.022707  -0.574358  0.445005
O    1.774825  0.919737  2.223504
H    1.050789  1.457516  2.605005
Sr    1.879165  -2.297801  -0.780275
