23
Energy: -99209.8156488 eV PBE+vdW (tier 2 basis)
N    -0.258343  0.591937  1.487446
C    0.645538  0.064132  2.590339
C    2.093629  0.260716  2.148408
O    3.018452  0.125140  3.009682
H    0.152310  0.356162  0.569893
H    -1.197194  0.163014  1.582616
H    0.459853  0.669941  3.488489
C    0.340592  -1.420078  2.872485
C    -0.952106  -1.710922  3.668806
C    -2.234528  -1.167980  3.017432
C    -1.055793  -3.225574  3.888944
H    1.193937  -1.807836  3.445946
H    0.334798  -1.971192  1.914847
H    -0.841949  -1.227789  4.654240
H    -2.347260  -1.505738  1.971568
H    -2.332338  -0.069456  3.078950
H    -3.119870  -1.546131  3.544069
H    -0.158162  -3.627965  4.376194
H    -1.197979  -3.760945  2.938987
H    -1.912985  -3.460461  4.531563
O    2.345885  0.517624  0.916962
H    -0.368171  1.614031  1.520152
Sr    4.700686  0.495369  1.412983
