23
Energy: -99209.1136137 eV PBE+vdW (tier 2 basis)
N    0.930511  -0.644441  0.479892
C    0.359872  -0.228137  1.806482
C    1.429003  -0.425859  2.879857
O    2.626116  -0.616457  2.571815
H    0.547625  -1.581111  0.285931
H    0.495409  -0.057252  -0.239766
H    0.233856  0.869326  1.775149
C    -1.027197  -0.844081  2.101527
C    -1.154798  -2.374784  1.970060
C    -0.172316  -3.151814  2.853397
C    -2.607166  -2.781988  2.260231
H    -1.745982  -0.355553  1.427080
H    -1.354672  -0.532307  3.110161
H    -0.965001  -2.650009  0.912697
H    -0.326306  -2.934306  3.920224
H    0.888209  -2.950530  2.622191
H    -0.312208  -4.232097  2.724679
H    -2.746303  -3.857051  2.096286
H    -3.316831  -2.250961  1.612939
H    -2.874539  -2.567670  3.304711
O    1.138931  -0.306262  4.143734
H    0.179071  -0.192657  4.305210
Sr    3.545717  -0.776998  0.490509
