23
Energy: -99209.1406616 eV PBE+vdW (tier 2 basis)
N    0.180120  0.106452  0.234964
C    0.039575  -0.105268  1.720320
C    1.433673  -0.102892  2.338119
O    2.441169  0.199048  1.654494
H    0.049439  -0.811744  -0.208705
H    -0.640953  0.636280  -0.076662
H    -0.465482  0.791078  2.122211
C    -0.811824  -1.356322  2.090502
C    -1.817067  -1.185585  3.256614
C    -1.161594  -0.958409  4.625432
C    -2.873881  -0.118450  2.955542
H    -0.149022  -2.215957  2.275616
H    -1.399621  -1.611402  1.195615
H    -2.329660  -2.159059  3.308182
H    -1.906665  -1.017101  5.429401
H    -0.737419  0.059033  4.733521
H    -0.414850  -1.733201  4.875895
H    -2.453145  0.900341  2.922764
H    -3.639132  -0.103201  3.741441
H    -3.388892  -0.310176  2.004608
O    1.609691  -0.390409  3.588866
H    0.764768  -0.603617  4.070336
Sr    2.549586  0.987349  -0.472220
