23
Energy: -99209.1351415 eV PBE+vdW (tier 2 basis)
N    -0.041040  -0.372944  -0.326344
C    -0.186433  -0.179215  1.158091
C    1.190036  -0.287490  1.795246
O    2.128333  -0.868964  1.205166
H    -0.921620  -0.776697  -0.665915
H    -0.010136  0.552932  -0.769740
H    -0.594093  0.822128  1.364559
C    -1.154277  -1.240602  1.744635
C    -1.425756  -1.193135  3.263972
C    -1.883916  0.190125  3.748519
C    -2.475465  -2.259688  3.609564
H    -0.781384  -2.244704  1.477538
H    -2.111295  -1.100287  1.214100
H    -0.498913  -1.473538  3.793824
H    -2.798724  0.515099  3.232113
H    -1.149937  1.008338  3.607384
H    -2.102096  0.166339  4.822595
H    -2.161417  -3.260871  3.285787
H    -3.442520  -2.034776  3.138102
H    -2.636134  -2.299688  4.693358
O    1.415080  0.191339  2.983880
H    0.613833  0.597298  3.388417
Sr    2.149216  -1.692647  -0.924241
