23
Energy: -99209.1038129 eV PBE+vdW (tier 2 basis)
N    -0.298462  -0.478550  -0.059613
C    -0.182133  0.070690  1.332042
C    1.277332  0.405077  1.589226
O    2.184557  -0.191610  0.969620
H    -1.169973  -1.023777  -0.086371
H    -0.479690  0.302272  -0.702601
H    -0.796736  0.979754  1.440496
C    -0.633861  -0.975702  2.388305
C    -2.153919  -1.046836  2.659431
C    -3.003745  -1.319447  1.411645
C    -2.406863  -2.102822  3.743119
H    -0.126577  -0.762151  3.341048
H    -0.256445  -1.967178  2.070543
H    -2.451415  -0.064481  3.064968
H    -4.055783  -1.453399  1.692750
H    -2.703977  -2.254381  0.906980
H    -3.000311  -0.489075  0.687558
H    -3.467102  -2.112443  4.023657
H    -1.826688  -1.904158  4.653702
H    -2.151667  -3.112358  3.388798
O    1.628825  1.268151  2.503174
H    0.874891  1.717242  2.937224
Sr    1.914366  -1.686779  -0.748321
