23
Energy: -99209.1308589 eV PBE+vdW (tier 2 basis)
N    0.304967  0.288680  0.181980
C    0.261158  0.022450  1.665678
C    1.699999  -0.078629  2.170993
O    2.665719  0.199892  1.421100
H    0.099321  -0.604696  -0.283575
H    -0.509946  0.866663  -0.049794
H    -0.158730  0.927146  2.139746
C    -0.626579  -1.198247  2.047100
C    -1.531921  -1.038178  3.290788
C    -2.432267  -2.274570  3.409492
C    -0.769238  -0.798335  4.601012
H    -0.001243  -2.101195  2.144431
H    -1.291312  -1.383871  1.189765
H    -2.175599  -0.159319  3.111859
H    -3.140726  -2.155522  4.238099
H    -1.843630  -3.182356  3.605383
H    -3.017799  -2.440614  2.495934
H    -1.460217  -0.774671  5.453631
H    -0.260994  0.182912  4.646944
H    -0.070108  -1.624538  4.831517
O    1.956678  -0.437547  3.388241
H    1.139239  -0.618578  3.927693
Sr    2.656757  1.084345  -0.670953
