19
Energy: -12425.3286183 eV PBE+vdW (tier 2 basis)
C    -2.233239  -1.200649  1.671959
C    -1.078388  -0.229973  1.796548
O    0.087807  -0.567082  1.561016
H    -2.045989  -2.060439  2.326882
H    -2.264952  -1.575757  0.641350
H    -3.207800  -0.763940  1.921565
N    -1.399562  1.038772  2.176181
C    -0.406274  2.098058  2.303500
C    0.369375  2.080620  3.638035
O    0.236005  2.978269  4.468351
H    -2.354485  1.244411  2.441946
H    0.297335  2.006698  1.463545
H    -0.914206  3.064928  2.241407
N    1.189786  1.005896  3.775317
C    1.968317  0.763314  4.973061
H    1.167638  0.311593  3.024475
H    3.037413  0.673253  4.735619
H    1.643773  -0.156159  5.481720
H    1.823446  1.613186  5.648523
