19
Energy: -12425.2227167 eV PBE+vdW (tier 2 basis)
C    0.209223  -0.033144  0.090359
C    -0.095805  0.579886  1.444608
O    0.595229  1.471764  1.937672
H    -0.499279  -0.815019  -0.209033
H    1.221079  -0.456277  0.115319
H    0.206081  0.762400  -0.665010
N    -1.189795  0.076313  2.082751
C    -1.607817  0.554355  3.372276
C    -2.855891  -0.218711  3.790515
O    -3.348202  -1.088975  3.070497
H    -1.773407  -0.660400  1.690789
H    -0.808829  0.426292  4.123149
H    -1.819462  1.637498  3.346603
N    -3.389337  0.109189  4.999035
C    -2.894572  1.111582  5.928587
H    -4.216140  -0.423560  5.246637
H    -1.877656  0.883209  6.280163
H    -3.554451  1.130912  6.801513
H    -2.891969  2.118684  5.486571
