19
Energy: -12425.1276711 eV PBE+vdW (tier 2 basis)
C    -0.453534  -0.545845  0.137698
C    -0.664358  -0.547839  1.639294
O    -0.196313  -1.423897  2.364759
H    0.623975  -0.508863  -0.064904
H    -0.942730  0.289078  -0.379090
H    -0.830455  -1.490792  -0.272563
N    -1.416635  0.488384  2.126835
C    -1.689232  0.672770  3.541856
C    -3.192506  0.674857  3.855119
O    -3.768755  1.724249  4.142409
H    -1.764950  1.186961  1.481020
H    -1.150216  -0.124843  4.069960
H    -1.309950  1.643368  3.884808
N    -3.857984  -0.514866  3.795310
C    -3.364006  -1.822120  3.396787
H    -4.855588  -0.415481  3.961147
H    -3.823097  -2.595871  4.025144
H    -2.277565  -1.885757  3.518311
H    -3.595101  -2.045494  2.343100
