19
Energy: -12425.1888716 eV PBE+vdW (tier 2 basis)
C    0.207102  0.007871  2.712362
C    -0.591918  0.727167  1.643011
O    -0.339132  1.871923  1.281156
H    0.932702  0.713482  3.124221
H    0.748430  -0.850066  2.288388
H    -0.432278  -0.373751  3.520101
N    -1.646260  0.033060  1.083880
C    -2.061774  -1.327427  1.368070
C    -3.033348  -1.535454  2.545514
O    -3.349588  -2.672918  2.882143
H    -2.105946  0.535291  0.330147
H    -2.555215  -1.741982  0.478991
H    -1.196435  -1.974860  1.561619
N    -3.484325  -0.398176  3.137636
C    -4.407978  -0.407483  4.254876
H    -3.147710  0.483763  2.765649
H    -3.969741  0.081451  5.135828
H    -4.623825  -1.453778  4.496976
H    -5.347760  0.100886  3.998431
