19
Energy: -12425.1132558 eV PBE+vdW (tier 2 basis)
C    -0.461917  -0.514929  0.111661
C    -0.656869  -0.518162  1.617950
O    -0.177015  -1.380863  2.351016
H    0.159012  -1.371437  -0.162779
H    0.032266  0.407757  -0.222585
H    -1.425642  -0.588405  -0.411367
N    -1.420564  0.513949  2.098916
C    -1.692414  0.712209  3.512179
C    -3.194814  0.700749  3.829232
O    -3.781704  1.745577  4.111712
H    -1.778620  1.203124  1.447370
H    -1.144192  -0.072994  4.049166
H    -1.323383  1.690640  3.844186
N    -3.848154  -0.496265  3.777650
C    -3.340079  -1.800422  3.386977
H    -4.846530  -0.406601  3.944115
H    -3.801331  -2.576044  4.011339
H    -2.254869  -1.856302  3.522330
H    -3.556441  -2.028003  2.330995
