19
Energy: -12424.9669692 eV PBE+vdW (tier 2 basis)
C    -0.704326  0.424308  0.321653
C    -0.229916  0.264784  1.753579
O    0.871611  0.648773  2.129737
H    -1.041118  -0.527053  -0.113960
H    0.130185  0.811424  -0.268348
H    -1.538609  1.137829  0.271213
N    -1.086208  -0.369859  2.630632
C    -2.473113  -0.682447  2.405765
C    -3.422741  0.531084  2.527067
O    -3.011360  1.663534  2.747000
H    -0.773739  -0.300928  3.594770
H    -2.600900  -1.137295  1.411839
H    -2.780654  -1.456150  3.125529
N    -4.753172  0.258394  2.362828
C    -5.368869  -1.035129  2.115515
H    -5.352985  1.071724  2.454394
H    -4.998606  -1.501152  1.190402
H    -6.447961  -0.889838  2.001738
H    -5.213519  -1.740005  2.946647
