19
Energy: -12425.3285506 eV PBE+vdW (tier 2 basis)
C    -2.357938  -0.331343  0.972276
C    -1.083327  0.290414  1.501695
O    -0.689166  1.399042  1.121341
H    -2.584274  -1.313616  1.404378
H    -2.271272  -0.432982  -0.116745
H    -3.194114  0.350278  1.171103
N    -0.392032  -0.445793  2.416615
C    0.871631  -0.002043  2.992186
C    0.718427  0.991597  4.163552
O    1.033685  0.682183  5.311532
H    -0.798342  -1.306439  2.761660
H    1.405916  -0.874142  3.380367
H    1.467392  0.457383  2.190374
N    0.224198  2.200855  3.788790
C    -0.051638  3.261619  4.736555
H    -0.039808  2.305025  2.806045
H    0.284431  2.928573  5.724295
H    -1.127045  3.487168  4.782915
H    0.487275  4.180221  4.466066
