19
Energy: -12425.2810032 eV PBE+vdW (tier 2 basis)
C    0.439516  0.085524  0.058325
C    -0.170886  0.545420  1.369454
O    -0.109688  1.713648  1.753798
H    1.513016  0.311140  0.071358
H    -0.006382  0.664605  -0.759817
H    0.300163  -0.983855  -0.141744
N    -0.793992  -0.423281  2.097611
C    -1.423406  -0.144517  3.360853
C    -2.030588  -1.443939  3.895972
O    -1.941382  -2.503576  3.276011
H    -0.856944  -1.392953  1.793689
H    -0.695758  0.259661  4.085114
H    -2.207830  0.623474  3.250763
N    -2.663979  -1.322179  5.093581
C    -3.302432  -2.437222  5.768496
H    -2.686760  -0.408747  5.531961
H    -2.840735  -2.626355  6.747447
H    -3.173662  -3.322782  5.138055
H    -4.376271  -2.253066  5.910074
