19
Energy: -12425.2340984 eV PBE+vdW (tier 2 basis)
C    -2.375113  -0.309790  0.939920
C    -0.984993  0.181963  1.297487
O    -0.298667  0.837440  0.521248
H    -2.286180  -1.058150  0.141647
H    -2.955557  0.528442  0.537381
H    -2.919761  -0.755876  1.781621
N    -0.548919  -0.154568  2.560223
C    0.799723  0.120896  3.017942
C    0.961783  1.243618  4.053003
O    1.994561  1.329472  4.711442
H    -1.138138  -0.750423  3.129326
H    1.255013  -0.778990  3.450275
H    1.387276  0.408084  2.133912
N    -0.086511  2.105637  4.150586
C    -0.059831  3.276377  5.004371
H    -0.863946  1.965096  3.515542
H    -0.938289  3.304144  5.663267
H    -0.028190  4.203762  4.414393
H    0.846737  3.217867  5.616415
