19
Energy: -12425.0481296 eV PBE+vdW (tier 2 basis)
C    -0.519995  -0.101190  0.377411
C    0.112004  0.113318  1.738467
O    1.092515  0.830305  1.906350
H    -1.523331  0.344682  0.349298
H    -0.610112  -1.167312  0.124807
H    0.112993  0.388507  -0.366891
N    -0.441906  -0.563704  2.807102
C    -1.697692  -1.268432  2.839622
C    -2.928998  -0.356912  3.046143
O    -2.957018  0.806455  2.661989
H    -0.044851  -0.273232  3.696342
H    -1.845065  -1.802647  1.889548
H    -1.654003  -2.040465  3.623121
N    -3.989168  -0.965030  3.648551
C    -5.256420  -0.279052  3.844302
H    -3.894577  -1.920017  3.970143
H    -5.691018  0.026974  2.883051
H    -5.122105  0.623363  4.455405
H    -5.951252  -0.955609  4.352238
