19
Energy: -12425.1109936 eV PBE+vdW (tier 2 basis)
C    -0.398447  0.969216  -0.179178
C    0.110776  0.138992  0.988287
O    1.308496  -0.003569  1.218881
H    -0.995294  0.361546  -0.874896
H    0.464567  1.376786  -0.711595
H    -1.034826  1.798472  0.162450
N    -0.842019  -0.448409  1.777446
C    -2.272371  -0.375791  1.637185
C    -2.915762  -1.210678  2.756477
O    -2.238176  -1.798741  3.594209
H    -0.520108  -1.010954  2.566168
H    -2.647284  0.660820  1.714974
H    -2.616212  -0.769953  0.663967
N    -4.276565  -1.233818  2.730316
C    -5.072149  -1.963768  3.701073
H    -4.753325  -0.718969  1.999242
H    -5.685485  -2.733650  3.213076
H    -5.729273  -1.287488  4.264891
H    -4.380539  -2.449045  4.397028
