19
Energy: -12425.0511455 eV PBE+vdW (tier 2 basis)
C    -0.421669  -2.335406  1.196993
C    -0.007667  -0.885100  1.365921
O    1.104312  -0.559190  1.765052
H    0.449671  -2.961741  1.403567
H    -0.783829  -2.546538  0.180847
H    -1.223300  -2.596156  1.902749
N    -0.939518  0.071554  1.020721
C    -2.332716  -0.156220  0.734324
C    -3.196093  -0.471971  1.978606
O    -2.825429  -0.208062  3.115005
H    -0.665310  1.007464  1.303492
H    -2.741627  0.753157  0.269105
H    -2.442059  -0.958034  -0.011792
N    -4.401909  -1.040935  1.681692
C    -5.397255  -1.348914  2.692489
H    -4.614968  -1.242549  0.711766
H    -4.972778  -1.073984  3.663817
H    -5.638176  -2.420791  2.699576
H    -6.321683  -0.776582  2.532068
