19
Energy: -12425.1772127 eV PBE+vdW (tier 2 basis)
C    -0.918755  1.350531  1.756779
C    -0.165351  0.053327  1.978158
O    0.950149  0.010836  2.487587
H    -0.334456  2.160648  2.199877
H    -1.918950  1.329934  2.210878
H    -1.048739  1.552641  0.683922
N    -0.799483  -1.107568  1.583974
C    -2.097872  -1.237409  0.950246
C    -3.325704  -1.313054  1.877081
O    -4.458279  -1.337577  1.402909
H    -0.227575  -1.939199  1.697812
H    -2.283964  -0.409731  0.253199
H    -2.107285  -2.151404  0.341603
N    -3.060056  -1.355210  3.206935
C    -4.117516  -1.432415  4.199188
H    -2.090048  -1.325470  3.499304
H    -4.772978  -0.552262  4.146384
H    -3.666475  -1.483518  5.195207
H    -4.739663  -2.323101  4.038959
