24
Energy: -240235.027028 eV PBE+vdW (tier 2 basis)
N    -0.273754  0.479358  0.158531
C    0.040904  0.019163  1.564432
C    1.493203  -0.476064  1.564987
O    1.947758  -1.035577  2.608762
H    -0.835865  1.337799  0.132657
H    -0.808453  -0.290026  -0.314310
H    0.010049  0.899668  2.223347
C    -0.998923  -1.030186  2.026898
C    -1.206499  -2.102610  0.984827
C    -0.394590  -3.246685  0.946878
C    -2.191903  -1.939325  -0.006817
C    -0.561152  -4.198988  -0.058735
C    -2.349717  -2.890358  -1.021041
C    -1.529406  -4.017103  -1.050398
H    -1.940790  -0.507044  2.243033
H    -0.640529  -1.442360  2.978338
H    0.332020  -3.417304  1.743534
H    -2.896224  -1.104460  0.055135
H    0.047896  -5.102594  -0.057951
H    -3.131924  -2.761342  -1.767983
H    -1.662319  -4.768251  -1.827632
O    2.215189  -0.268528  0.528006
H    0.619400  0.619802  -0.347090
Ba    4.254627  -1.301980  1.694589
