24
Energy: -240235.155523 eV PBE+vdW (tier 2 basis)
N    -0.234151  1.352043  1.064783
C    0.094901  0.661874  2.318386
C    1.597227  0.327425  2.209996
O    2.235025  -0.244826  3.126932
H    -0.534451  2.317378  1.196690
H    -0.934091  0.871325  0.499094
H    -0.017717  1.346236  3.172930
C    -0.764436  -0.608944  2.545923
C    -0.467708  -1.435434  3.779227
C    -0.112475  -2.793644  3.656817
C    -0.623622  -0.907695  5.078485
C    0.048344  -3.609314  4.789788
C    -0.453660  -1.714879  6.213129
C    -0.122854  -3.073500  6.074652
H    -0.685869  -1.250756  1.656300
H    -1.813070  -0.278495  2.602020
H    -0.010104  -3.235350  2.664242
H    -0.930160  0.131096  5.212153
H    0.266749  -4.670509  4.663624
H    -0.627412  -1.294300  7.204312
H    -0.045337  -3.713059  6.954146
O    2.138772  0.679706  1.102186
H    1.307677  1.129741  0.621887
Ba    2.538419  -1.654119  5.049299
