24
Energy: -240235.261501 eV PBE+vdW (tier 2 basis)
N    0.039643  -0.609537  -0.159560
C    -0.090860  -0.343619  1.323684
C    1.367148  0.010619  1.747782
O    1.506940  0.435475  2.955830
H    1.111994  -0.582789  -0.262933
H    -0.378846  0.124179  -0.742597
H    -0.745016  0.524965  1.464571
C    -0.644102  -1.590101  2.050246
C    -0.711086  -1.490209  3.561923
C    -1.567915  -0.574268  4.202867
C    0.036870  -2.374103  4.361444
C    -1.684421  -0.553013  5.599988
C    -0.086298  -2.365780  5.760633
C    -0.949547  -1.455251  6.386311
H    -0.024001  -2.458667  1.782538
H    -1.659646  -1.792340  1.674079
H    -2.185982  0.103541  3.611981
H    0.689753  -3.109312  3.888556
H    -2.387425  0.134376  6.071493
H    0.460260  -3.099516  6.354221
H    -1.083916  -1.477066  7.467957
O    2.250183  -0.164899  0.909744
H    -0.336372  -1.515885  -0.461396
Ba    1.430645  0.447203  5.284637
