24
Energy: -240235.265944 eV PBE+vdW (tier 2 basis)
N    -0.547722  -0.469052  0.193835
C    -0.816400  -0.138857  1.615260
C    0.196698  0.923876  2.042153
O    1.319177  0.968745  1.526111
H    -0.867612  0.307722  -0.394529
H    -1.140164  -1.259617  -0.077221
H    -1.839360  0.245406  1.763609
C    -0.655568  -1.410558  2.511847
C    0.645165  -2.152657  2.299936
C    1.813311  -1.798064  3.004910
C    0.724583  -3.209585  1.369165
C    3.029441  -2.451800  2.760119
C    1.937956  -3.867281  1.122216
C    3.099055  -3.480223  1.808181
H    -1.505671  -2.070742  2.289396
H    -0.764761  -1.115419  3.564425
H    1.775255  -1.017610  3.766182
H    -0.177232  -3.549648  0.857215
H    3.914181  -2.180009  3.336292
H    1.969213  -4.703168  0.422928
H    4.037305  -4.009000  1.640152
O    -0.089306  1.760853  3.015020
H    -1.014184  1.699475  3.326719
Ba    2.308641  -0.819784  0.013080
