24
Energy: -240233.774835 eV PBE+vdW (tier 2 basis)
N    0.113073  1.101220  0.288728
C    0.028381  0.379518  1.558264
C    1.449125  -0.153530  1.579077
O    2.416170  0.452409  2.096886
H    -0.166631  2.076560  0.349516
H    -0.357237  0.624474  -0.479610
H    -0.034410  1.095972  2.387088
C    -1.105841  -0.662067  1.698986
C    -1.140304  -1.694423  0.595213
C    -1.759129  -1.422237  -0.636044
C    -0.512993  -2.948816  0.765982
C    -1.726018  -2.356106  -1.672813
C    -0.485639  -3.886145  -0.277641
C    -1.077682  -3.582712  -1.502347
H    -2.043723  -0.089246  1.714090
H    -1.020094  -1.147293  2.682403
H    -2.316655  -0.493321  -0.769711
H    -0.145114  -3.238051  1.754676
H    -2.228657  -2.133779  -2.613552
H    -0.034228  -4.864324  -0.114139
H    -1.070532  -4.313291  -2.309907
O    1.788824  -1.270615  0.901624
H    0.969405  -1.830279  0.623419
Ba    4.473541  -0.483667  1.161803
