24
Energy: -240233.469514 eV PBE+vdW (tier 2 basis)
N    -0.968986  -0.686917  0.274103
C    -0.150861  -0.637498  1.458432
C    1.365903  -0.467798  1.234766
O    1.811729  -0.223181  0.064913
H    -0.661586  -1.384543  -0.401874
H    -1.044270  0.209261  -0.201368
H    -0.447528  0.264794  2.022560
C    -0.468342  -1.883438  2.322306
C    -0.002901  -1.825399  3.818565
C    -0.670378  -0.830913  4.661807
C    0.221656  -3.134131  4.434263
C    -1.012287  -1.103492  5.964705
C    -0.129261  -3.391930  5.738923
C    -0.751911  -2.382282  6.496811
H    -0.019435  -2.775651  1.862718
H    -1.555419  -2.021456  2.293601
H    -0.883504  0.152740  4.240881
H    0.695234  -3.910019  3.830114
H    -1.500033  -0.349833  6.581364
H    0.054703  -4.369182  6.183081
H    -1.044768  -2.596540  7.526211
O    2.181941  -0.541216  2.236300
H    1.048841  -1.402921  3.691779
Ba    4.134465  0.140549  0.757042
