24
Energy: -240234.012982 eV PBE+vdW (tier 2 basis)
N    -0.874666  -0.576239  1.643704
C    0.442434  -0.644698  2.218989
C    1.599942  -0.329763  1.247980
O    1.368347  -0.289613  -0.009036
H    -0.875682  -0.861375  0.664077
H    -1.278909  0.355642  1.701653
H    0.528948  0.090252  3.033334
C    0.730930  -2.073094  2.838495
C    -0.148993  -2.352975  4.006999
C    0.392793  -2.213539  5.375847
C    -1.479006  -2.711999  3.856417
C    -0.514226  -2.426601  6.513142
C    -2.292427  -2.909117  4.982855
C    -1.822526  -2.770163  6.309557
H    1.789018  -2.121768  3.126486
H    0.546272  -2.813209  2.046474
H    0.926546  -1.246896  5.491880
H    -1.903252  -2.828767  2.861577
H    -0.107965  -2.319525  7.519819
H    -3.337309  -3.184589  4.826591
H    -2.498028  -2.939858  7.146428
O    2.772145  -0.106123  1.714474
H    1.247318  -2.919644  5.491494
Ba    3.683294  0.444663  -0.532236
