24
Energy: -240233.510117 eV PBE+vdW (tier 2 basis)
N    -1.236495  -1.055448  0.293152
C    -0.462936  -0.614469  1.422547
C    0.860675  -0.006819  0.958686
O    0.993848  0.335431  -0.266268
H    -0.976243  -0.608143  -0.582369
H    -2.242422  -1.030854  0.434025
H    -0.949536  0.198263  2.004439
C    -0.280586  -1.855426  2.338752
C    0.311604  -1.597252  3.802744
C    -0.547061  -0.739286  4.628622
C    0.665225  -2.893401  4.392052
C    -1.054322  -1.169858  5.828931
C    0.153458  -3.306915  5.598488
C    -0.714943  -2.453842  6.306403
H    0.364334  -2.581878  1.828061
H    -1.263071  -2.327881  2.455692
H    -0.778721  0.264644  4.271230
H    1.329340  -3.548219  3.825278
H    -1.705289  -0.529094  6.422115
H    0.409887  -4.282375  6.009349
H    -1.127525  -2.789709  7.259397
O    1.815208  0.185101  1.796983
H    1.243099  -1.030240  3.565095
Ba    3.249473  1.277670  0.018593
