24
Energy: -240234.285664 eV PBE+vdW (tier 2 basis)
N    -0.368539  -0.926125  2.837310
C    1.082293  -0.588122  3.086696
C    1.747513  -0.109261  1.805516
O    1.108152  -0.182124  0.698905
H    -0.556299  -0.859923  1.824061
H    -1.000919  -0.279738  3.324630
H    1.124930  0.212418  3.836599
C    1.695716  -1.887670  3.657276
C    0.513772  -2.563969  4.376093
C    0.206461  -1.981165  5.728926
C    -0.649926  -2.390192  3.394705
C    -1.062558  -1.770142  6.130867
C    -2.021158  -2.445665  3.975732
C    -2.189640  -2.116168  5.274345
H    2.538512  -1.663480  4.319141
H    2.065847  -2.530027  2.845764
H    1.043248  -1.813195  6.408615
H    -0.533692  -3.039566  2.519024
H    -1.265770  -1.402331  7.135915
H    -2.855918  -2.733221  3.338890
H    -3.188493  -2.124773  5.710867
O    2.936855  0.336937  1.874535
H    0.735047  -3.638824  4.498257
Ba    3.100565  0.851324  -0.551672
