24
Energy: -240233.759109 eV PBE+vdW (tier 2 basis)
N    0.415821  1.088179  0.101641
C    0.255717  0.447798  1.377499
C    1.633793  -0.100418  1.764712
O    2.284197  0.513695  2.677817
H    -0.227067  1.856003  -0.070510
H    0.472772  0.467795  -0.701548
H    0.036563  1.226643  2.117765
C    -0.919908  -0.619233  1.566608
C    -1.056831  -1.659953  0.522197
C    -1.727441  -1.402050  -0.667110
C    -0.453478  -2.996487  0.708028
C    -1.853409  -2.394558  -1.648567
C    -0.649309  -4.002804  -0.344337
C    -1.323711  -3.697314  -1.494579
H    -1.837930  -0.015660  1.586579
H    -0.795948  -1.066444  2.562826
H    -2.195777  -0.431762  -0.831443
H    -0.717538  -3.420744  1.697231
H    -2.397830  -2.156493  -2.564520
H    -0.238897  -5.000490  -0.182640
H    -1.469482  -4.439057  -2.278130
O    2.163769  -1.081252  1.127055
H    0.645000  -2.832984  0.837503
Ba    4.450924  -0.375413  2.008922
