33
Energy: -106971.223229 eV PBE+vdW (tier 2 basis)
C    0.295110  -1.763472  2.726750
C    -0.978855  -0.991239  2.765786
O    -1.378985  -0.431881  3.827640
H    0.532063  -2.159508  1.733912
H    0.232724  -2.595001  3.442293
H    1.115026  -1.115642  3.065271
N    -1.715412  -0.892066  1.624086
C    -2.932649  -0.100592  1.686382
C    -4.143410  -0.897083  2.213177
O    -4.524312  -0.641825  3.397119
H    -1.378670  -1.330022  0.771615
H    -2.677623  0.530479  2.535039
C    -3.268089  1.003391  0.649331
C    -3.970164  2.058409  1.496134
C    -5.362104  2.156648  1.553024
C    -3.203410  2.801907  2.421470
C    -5.986152  2.929443  2.540911
C    -3.824555  3.577630  3.410554
C    -5.226347  3.619817  3.486673
H    -3.897162  0.658958  -0.178935
H    -2.330072  1.389899  0.226511
H    -5.975025  1.611919  0.833817
H    -2.112564  2.818226  2.332871
H    -7.073460  2.992067  2.567636
H    -3.221706  4.208549  4.067535
H    -5.716430  4.234664  4.240912
N    -4.759722  -1.810996  1.480126
C    -4.438303  -2.276231  0.132452
H    -5.531884  -2.281989  1.954778
H    -3.701338  -1.622410  -0.340690
H    -5.346417  -2.271558  -0.481361
H    -4.043099  -3.299364  0.170096
Sr    -3.257003  0.739873  4.810079
