33
Energy: -106971.222108 eV PBE+vdW (tier 2 basis)
C    -0.110300  -2.360309  1.628004
C    -1.060315  -1.383497  2.235584
O    -0.920953  -1.003487  3.440437
H    0.900543  -1.928783  1.652008
H    -0.360132  -2.624569  0.595447
H    -0.081843  -3.272183  2.239072
N    -2.063252  -0.901342  1.487543
C    -2.971792  0.173821  1.913087
C    -3.991561  -0.335750  2.961230
O    -3.713205  -0.117667  4.190169
H    -2.117277  -1.206054  0.518101
H    -2.361536  0.880566  2.492846
C    -3.532922  0.945998  0.705864
C    -4.557062  1.986682  1.109958
C    -4.267860  2.950520  2.087761
C    -5.806930  2.021527  0.479429
C    -5.215778  3.910260  2.441786
C    -6.755731  2.983141  0.830077
C    -6.464931  3.923900  1.818240
H    -3.974986  0.259698  -0.028614
H    -2.671637  1.418743  0.206758
H    -3.279961  2.988449  2.553579
H    -6.031018  1.315293  -0.322476
H    -4.973037  4.663633  3.190317
H    -7.717696  3.005538  0.319619
H    -7.201714  4.679072  2.088058
N    -5.087249  -1.010237  2.661676
C    -5.619184  -1.442174  1.368517
H    -5.660776  -1.233886  3.475781
H    -6.227582  -2.336069  1.537538
H    -4.813214  -1.706026  0.678917
H    -6.249192  -0.658906  0.930269
Sr    -1.789147  -0.241470  5.407245
