33
Energy: -106970.948361 eV PBE+vdW (tier 2 basis)
C    -0.754063  -0.837943  0.178384
C    -0.276074  -0.450273  1.539391
O    0.941854  -0.610389  1.870100
H    -0.531247  -0.042509  -0.550003
H    -1.827655  -1.048623  0.146344
H    -0.195257  -1.726599  -0.139085
N    -1.130394  0.088196  2.437658
C    -2.102605  1.120967  2.090865
C    -1.308204  2.440769  1.835441
O    -0.026651  2.431818  1.851948
H    -0.749687  0.159587  3.382593
H    -2.575580  0.842683  1.137937
C    -3.201710  1.223301  3.178128
C    -4.337304  2.162016  2.830828
C    -4.572105  3.310153  3.603778
C    -5.179560  1.895641  1.737842
C    -5.621393  4.176683  3.288435
C    -6.223422  2.764538  1.420655
C    -6.443991  3.907713  2.193775
H    -2.743252  1.531173  4.130270
H    -3.583001  0.201483  3.321880
H    -3.942823  3.516992  4.471360
H    -5.042778  0.989253  1.143788
H    -5.802930  5.054777  3.906938
H    -6.877219  2.540587  0.578772
H    -7.266179  4.579242  1.950472
N    -2.008894  3.525588  1.590307
C    -1.482601  4.861641  1.323518
H    -3.029173  3.428945  1.679333
H    -1.883611  5.562169  2.065724
H    -1.798377  5.186370  0.324575
H    -0.392314  4.850631  1.379202
Sr    2.025202  1.425417  2.072846
