33
Energy: -106972.208758 eV PBE+vdW (tier 2 basis)
C    0.271280  0.474387  0.791804
C    -0.610080  0.766070  1.967364
O    -0.405155  0.204851  3.071942
H    1.300520  0.765844  1.043086
H    -0.029016  0.987208  -0.127650
H    0.283007  -0.608875  0.613937
N    -1.615694  1.648461  1.777739
C    -2.623857  2.180121  2.720950
C    -1.975857  2.804902  3.971907
O    -1.609049  2.093417  4.947307
H    -1.681733  2.026167  0.837087
H    -3.080227  3.001745  2.157182
C    -3.822664  1.237765  3.037097
C    -3.631147  0.027939  3.923861
C    -3.982935  0.077277  5.288171
C    -3.150246  -1.190507  3.407663
C    -3.818503  -1.039280  6.120051
C    -2.975647  -2.308177  4.235134
C    -3.300232  -2.234660  5.598290
H    -4.215808  0.910014  2.063926
H    -4.601530  1.876572  3.477725
H    -4.395132  0.996944  5.704351
H    -2.917364  -1.273538  2.346159
H    -4.120025  -0.984264  7.166193
H    -2.615881  -3.245064  3.810027
H    -3.193936  -3.112068  6.235903
N    -1.832112  4.127109  4.016251
C    -2.175716  5.131308  3.003191
H    -1.417321  4.469747  4.882626
H    -3.259671  5.185062  2.840847
H    -1.658424  4.937135  2.055978
H    -1.843300  6.105527  3.372166
Sr    -1.041760  -0.158998  5.278030
