33
Energy: -106971.287831 eV PBE+vdW (tier 2 basis)
C    -2.933805  -1.867904  0.603450
C    -1.868131  -1.373500  1.521781
O    -0.642869  -1.393963  1.170932
H    -2.734532  -2.916396  0.343499
H    -2.891499  -1.293087  -0.332084
H    -3.938177  -1.786504  1.030625
N    -2.216240  -0.902197  2.723022
C    -1.282430  -0.213131  3.620458
C    -0.218698  -1.178850  4.174093
O    0.967256  -1.086368  3.705131
H    -3.210280  -0.718578  2.901535
H    -0.706437  0.497116  3.006808
C    -2.049580  0.624974  4.682324
C    -3.190575  1.381404  4.045411
C    -2.965506  2.568993  3.336075
C    -4.494366  0.862171  4.111006
C    -4.022492  3.223631  2.704522
C    -5.552300  1.516878  3.473907
C    -5.315044  2.695331  2.766398
H    -1.321260  1.305975  5.142826
H    -2.436052  -0.014733  5.482814
H    -1.964831  3.004854  3.302752
H    -4.698400  -0.028690  4.711305
H    -3.842014  4.158588  2.175373
H    -6.562945  1.117776  3.550958
H    -6.139667  3.214826  2.280347
N    -0.477884  -2.089991  5.099877
C    -1.739981  -2.466528  5.743303
H    0.346308  -2.611827  5.400308
H    -1.710240  -3.543670  5.938704
H    -2.590089  -2.261332  5.088598
H    -1.864564  -1.941843  6.698814
Sr    1.595323  -1.198424  1.504130
