33
Energy: -106971.424561 eV PBE+vdW (tier 2 basis)
C    -0.485449  -0.688995  0.111294
C    -0.754642  0.088773  1.357193
O    -0.297396  -0.313254  2.472038
H    -0.780869  -0.164718  -0.803225
H    -1.052119  -1.630359  0.172114
H    0.577519  -0.952540  0.057919
N    -1.492051  1.202017  1.256801
C    -2.124494  2.002345  2.326178
C    -1.115039  2.826346  3.138609
O    -0.319488  2.270206  3.958667
H    -1.836532  1.403820  0.322314
H    -2.765063  2.706772  1.779671
C    -3.066894  1.177982  3.245638
C    -4.082765  0.393967  2.451495
C    -5.204481  1.036276  1.908853
C    -3.901977  -0.975327  2.217832
C    -6.122874  0.321613  1.140158
C    -4.822809  -1.692168  1.452129
C    -5.931362  -1.042213  0.907760
H    -3.556802  1.891531  3.924985
H    -2.485971  0.490016  3.878805
H    -5.380963  2.095986  2.106237
H    -3.050127  -1.497119  2.660473
H    -6.998619  0.826739  0.734897
H    -4.683847  -2.760836  1.292516
H    -6.655158  -1.600963  0.316182
N    -1.155600  4.142007  2.994509
C    -0.333985  5.105435  3.727822
H    -1.807603  4.520609  2.311873
H    0.458941  5.496563  3.077629
H    0.111691  4.614431  4.595713
H    -0.967248  5.935699  4.058628
Sr    0.483138  0.208066  4.522344
