33
Energy: -106971.362592 eV PBE+vdW (tier 2 basis)
C    1.765061  1.349624  1.516434
C    0.430395  0.706765  1.313590
O    0.195162  0.055193  0.250213
H    2.557507  0.601643  1.386062
H    1.878749  1.830658  2.493237
H    1.907639  2.104896  0.729927
N    -0.488285  0.849883  2.280209
C    -1.928698  0.513851  2.286811
C    -2.193412  -0.994331  2.391109
O    -1.775440  -1.785971  1.483182
H    -0.179103  1.387785  3.085211
H    -2.305984  0.988446  3.198980
C    -2.741083  1.126823  1.114401
C    -4.224480  0.998871  1.370521
C    -4.950644  -0.096622  0.885848
C    -4.885054  1.958696  2.151028
C    -6.306415  -0.241601  1.182757
C    -6.241144  1.818102  2.446869
C    -6.951908  0.714909  1.968768
H    -2.470898  0.650615  0.159969
H    -2.445626  2.181774  1.030478
H    -4.460081  -0.841000  0.252452
H    -4.343317  2.834370  2.514262
H    -6.864139  -1.090033  0.788187
H    -6.747303  2.578730  3.039914
H    -8.012614  0.610507  2.192720
N    -2.903731  -1.470443  3.398173
C    -3.565456  -0.750969  4.493899
H    -3.081686  -2.473689  3.342224
H    -4.436425  -0.197185  4.121785
H    -2.870456  -0.070393  4.997801
H    -3.898171  -1.492391  5.225406
Sr    -0.723963  -1.856510  -0.531429
