33
Energy: -106971.477231 eV PBE+vdW (tier 2 basis)
C    -2.154661  -2.971065  0.773029
C    -1.550516  -2.028141  1.760082
O    -0.454969  -1.434917  1.498509
H    -3.085361  -3.426222  1.126020
H    -1.433610  -3.761789  0.527734
H    -2.355010  -2.420140  -0.156839
N    -2.190890  -1.819970  2.913910
C    -1.907364  -0.758419  3.894379
C    -0.664663  -1.093251  4.747486
O    0.495009  -0.868324  4.271390
H    -3.132753  -2.214491  2.984600
H    -1.631965  0.148116  3.331423
C    -3.202042  -0.462665  4.690574
C    -4.385966  -0.259346  3.773215
C    -5.318703  -1.292470  3.595322
C    -4.542843  0.933944  3.055306
C    -6.385903  -1.139273  2.706210
C    -5.610206  1.087137  2.171274
C    -6.528884  0.049301  1.990734
H    -3.021408  0.422318  5.316337
H    -3.436007  -1.301296  5.367138
H    -5.244997  -2.205884  4.192247
H    -3.847084  1.761867  3.207096
H    -7.115693  -1.939731  2.591332
H    -5.736681  2.025543  1.632705
H    -7.367094  0.177042  1.307218
N    -0.832215  -1.582866  5.961404
C    0.237390  -1.931811  6.896763
H    -1.789079  -1.719836  6.278829
H    0.377098  -3.020214  6.922064
H    -0.039139  -1.584456  7.897831
H    1.165675  -1.448549  6.583921
Sr    1.516528  -0.630141  2.240756
