33
Energy: -106971.238217 eV PBE+vdW (tier 2 basis)
C    1.299933  -1.165676  2.136506
C    0.024022  -0.397262  2.295226
O    0.005890  0.649550  3.024283
H    2.013062  -0.531562  1.589215
H    1.175304  -2.106031  1.589734
H    1.744329  -1.368124  3.118652
N    -1.047414  -0.863950  1.655586
C    -2.382677  -0.338703  1.351587
C    -3.040537  0.601964  2.352782
O    -2.812810  0.585737  3.602981
H    -0.900967  -1.740318  1.136375
H    -2.301974  0.200851  0.392721
C    -3.322960  -1.579368  1.123827
C    -2.711065  -2.569439  0.163478
C    -2.737016  -2.332671  -1.219785
C    -2.073201  -3.724717  0.646037
C    -2.139603  -3.232045  -2.100686
C    -1.473872  -4.625084  -0.239224
C    -1.503497  -4.376709  -1.611413
H    -4.282027  -1.205689  0.741289
H    -3.516739  -2.049930  2.097884
H    -3.248001  -1.452895  -1.616552
H    -2.084890  -3.946098  1.715619
H    -2.180702  -3.047817  -3.173416
H    -1.002302  -5.529348  0.143560
H    -1.045351  -5.082150  -2.303245
N    -3.968525  1.401068  1.836807
C    -4.864949  2.259097  2.610668
H    -4.092843  1.392994  0.827358
H    -5.025996  1.824077  3.601148
H    -5.824551  2.326238  2.088730
H    -4.450127  3.271336  2.708429
Sr    -1.070941  1.298678  4.892839
