33
Energy: -106971.467976 eV PBE+vdW (tier 2 basis)
C    0.864689  2.464533  1.548451
C    0.289549  1.087004  1.483207
O    0.847381  0.125966  2.100939
H    0.814638  2.808802  2.591954
H    0.341197  3.186637  0.913487
H    1.926397  2.439465  1.272820
N    -0.829256  0.898165  0.772699
C    -1.689675  -0.299570  0.749288
C    -1.121149  -1.358077  -0.223477
O    0.015234  -1.877698  0.042445
H    -1.210601  1.716843  0.303045
H    -1.618420  -0.766410  1.744711
C    -3.138955  0.182876  0.516370
C    -4.175226  -0.909870  0.370274
C    -4.381540  -1.861347  1.379020
C    -4.949493  -0.978867  -0.798423
C    -5.331850  -2.868720  1.214470
C    -5.901562  -1.989229  -0.962397
C    -6.088208  -2.938944  0.041349
H    -3.163205  0.824697  -0.379473
H    -3.390077  0.833694  1.368431
H    -3.825266  -1.802166  2.317023
H    -4.840766  -0.212572  -1.570605
H    -5.496501  -3.593013  2.011386
H    -6.507695  -2.020251  -1.866907
H    -6.835378  -3.721968  -0.079477
N    -1.814671  -1.711936  -1.282956
C    -1.404529  -2.721028  -2.257581
H    -2.783843  -1.377913  -1.338396
H    -1.801043  -3.705280  -1.974302
H    -0.314093  -2.766540  -2.309588
H    -1.808745  -2.444394  -3.236358
Sr    1.631659  -1.952891  1.639571
