33
Energy: -106971.197652 eV PBE+vdW (tier 2 basis)
C    -0.655322  -0.142630  -0.229272
C    -0.360181  -0.198593  1.230919
O    0.701164  -0.756504  1.664186
H    0.145379  0.418538  -0.731698
H    -1.616842  0.329265  -0.455179
H    -0.641092  -1.158783  -0.645177
N    -1.218993  0.354101  2.094934
C    -0.946826  0.422198  3.530516
C    -0.985427  -0.986598  4.160148
O    0.130781  -1.437683  4.602904
H    -2.074969  0.793208  1.751156
H    0.113081  0.698651  3.629511
C    -1.715590  1.567172  4.246570
C    -3.216200  1.590904  4.131785
C    -4.017632  1.175418  5.203101
C    -3.838872  2.041899  2.954940
C    -5.407744  1.167438  5.087201
C    -5.229699  2.018288  2.831457
C    -6.015084  1.570033  3.895199
H    -1.290406  2.497615  3.840053
H    -1.413759  1.530509  5.302589
H    -3.551306  0.867702  6.140779
H    -3.244447  2.486393  2.150473
H    -6.020769  0.859773  5.933705
H    -5.701194  2.381043  1.918956
H    -7.100600  1.566710  3.807229
N    -2.058013  -1.758572  4.222736
C    -3.404226  -1.620866  3.661795
H    -1.877158  -2.646422  4.694641
H    -4.143895  -1.640792  4.469180
H    -3.585747  -2.466633  2.986565
H    -3.516846  -0.680472  3.122125
Sr    2.003434  -1.687310  3.298972
