33
Energy: -106972.306897 eV PBE+vdW (tier 2 basis)
C    -0.762558  1.039471  1.875628
C    -1.656802  -0.106920  2.236688
O    -1.696901  -0.533782  3.417362
H    -1.059703  1.917732  2.465079
H    -0.781273  1.301145  0.812763
H    0.266733  0.793990  2.168620
N    -2.399229  -0.642029  1.243627
C    -3.388097  -1.744184  1.247691
C    -4.552018  -1.492011  2.228097
O    -4.412986  -1.630153  3.472553
H    -2.273196  -0.202720  0.336481
H    -3.810846  -1.695971  0.235627
C    -2.795730  -3.183523  1.333530
C    -2.270264  -3.711419  2.650000
C    -3.096024  -4.480880  3.494728
C    -0.935143  -3.499237  3.043243
C    -2.617864  -4.986010  4.712257
C    -0.452136  -3.995918  4.261521
C    -1.294735  -4.734328  5.106528
H    -1.996397  -3.231465  0.580521
H    -3.588698  -3.857397  0.978628
H    -4.122022  -4.695997  3.194546
H    -0.260478  -2.947296  2.388995
H    -3.267651  -5.599030  5.337011
H    0.589695  -3.832813  4.537061
H    -0.911510  -5.147252  6.039461
N    -5.717770  -1.153254  1.684762
C    -6.943018  -0.892153  2.440855
H    -5.763682  -1.039791  0.676132
H    -6.887569  -1.402345  3.405795
H    -7.798738  -1.270126  1.872466
H    -7.068734  0.185818  2.605840
Sr    -2.640535  -1.964471  4.978618
