33
Energy: -106971.576163 eV PBE+vdW (tier 2 basis)
C    -0.607610  -0.101193  4.652904
C    -0.673487  0.222327  3.197052
O    0.250089  -0.158522  2.406382
H    -1.434238  0.328925  5.227395
H    0.345993  0.250505  5.067256
H    -0.622394  -1.194401  4.769302
N    -1.725506  0.905907  2.739120
C    -2.011087  1.194808  1.328324
C    -1.113092  2.356192  0.851016
O    0.033317  2.071748  0.365547
H    -2.428500  1.233742  3.407221
H    -1.674599  0.325184  0.744840
C    -3.541801  1.331948  1.101066
C    -4.264598  2.324802  1.984354
C    -4.617078  3.597699  1.502026
C    -4.617521  1.990406  3.304017
C    -5.256992  4.524554  2.329537
C    -5.250909  2.919114  4.132344
C    -5.558030  4.192968  3.651173
H    -3.962360  0.326760  1.248485
H    -3.694156  1.576568  0.040951
H    -4.449173  3.845699  0.450783
H    -4.472607  0.969442  3.669251
H    -5.543586  5.497382  1.931641
H    -5.532617  2.636759  5.146077
H    -6.064051  4.912130  4.293476
N    -1.531496  3.596751  0.982957
C    -0.779989  4.786784  0.587034
H    -2.469479  3.732806  1.382403
H    -0.110754  4.545241  -0.243264
H    -0.192812  5.168725  1.432612
H    -1.489772  5.558319  0.273226
Sr    1.566892  0.398921  0.644494
