33
Energy: -106970.82889 eV PBE+vdW (tier 2 basis)
C    -0.181482  1.773160  0.779642
C    0.038315  0.804858  1.895339
O    1.180959  0.712358  2.448036
H    -1.122258  2.321594  0.899264
H    -0.225792  1.247692  -0.187440
H    0.656283  2.475942  0.748811
N    -0.955820  0.000741  2.342859
C    -1.874649  -0.771855  1.492322
C    -1.015139  -1.727626  0.613966
O    0.245931  -1.832507  0.815146
H    -0.710544  -0.468504  3.214165
H    -2.420632  -1.420916  2.193894
C    -2.951566  0.049270  0.735333
C    -4.103943  -0.804581  0.243202
C    -4.946576  -1.468139  1.149133
C    -4.350203  -0.935073  -1.133572
C    -6.001292  -2.253933  0.687648
C    -5.409582  -1.722653  -1.594864
C    -6.231262  -2.387092  -0.684861
H    -2.510031  0.584848  -0.113707
H    -3.317568  0.805469  1.445161
H    -4.803136  -1.350351  2.225663
H    -3.730693  -0.391582  -1.850241
H    -6.656393  -2.752559  1.400819
H    -5.599721  -1.801385  -2.664547
H    -7.061094  -2.995618  -1.041441
N    -1.629501  -2.442623  -0.301837
C    -0.981278  -3.425992  -1.170120
H    -2.635702  -2.264246  -0.431440
H    -1.740860  -3.845023  -1.834916
H    -0.542746  -4.234348  -0.572816
H    -0.197062  -2.953532  -1.773791
Sr    2.224036  -1.259797  1.831189
