33
Energy: -106971.401993 eV PBE+vdW (tier 2 basis)
C    -1.356603  -1.075849  -0.226901
C    -0.952938  -0.740538  1.171295
O    0.268321  -0.510980  1.453851
H    -1.129272  -0.212669  -0.869356
H    -2.419960  -1.317811  -0.322227
H    -0.755169  -1.915607  -0.597284
N    -1.901569  -0.675288  2.107134
C    -1.763071  -0.172971  3.481057
C    -1.137683  -1.224291  4.427723
O    0.100561  -1.498559  4.299034
H    -2.866370  -0.882293  1.834715
H    -1.007097  0.628337  3.455775
C    -3.099254  0.460424  3.921533
C    -4.391140  -0.259364  3.556568
C    -4.521466  -1.653591  3.418734
C    -5.534648  0.533563  3.370521
C    -5.759304  -2.231156  3.115289
C    -6.768458  -0.042710  3.077773
C    -6.885385  -1.428660  2.949509
H    -3.134789  1.460762  3.468538
H    -3.045967  0.652578  5.005828
H    -3.668927  -2.326635  3.533841
H    -5.458655  1.617944  3.463278
H    -5.837464  -3.312704  3.011566
H    -7.641762  0.594343  2.944141
H    -7.849260  -1.878730  2.716890
N    -1.879041  -1.767610  5.373332
C    -1.422937  -2.733273  6.371795
H    -2.866821  -1.514140  5.393086
H    -0.335494  -2.818659  6.324990
H    -1.878810  -3.712487  6.177877
H    -1.726028  -2.391018  7.367799
Sr    1.884463  -1.048358  2.938299
