25
Energy: -566923.463353 eV PBE+vdW (tier 2 basis)
N    0.651473  0.082346  0.721975
C    -0.130612  0.188774  1.892779
C    0.698725  -0.483664  3.134129
O    0.217737  -0.522244  4.256787
H    0.418616  -0.635281  0.040128
H    1.026410  0.933452  0.310347
H    -0.172660  1.240032  2.218702
C    -1.552754  -0.403090  1.861946
C    -1.739501  -1.803347  1.290444
C    -3.197338  -2.292928  1.317669
C    -4.125868  -1.506328  0.353557
N    -4.347216  -0.154506  0.738153
H    -2.146981  0.313110  1.251735
H    -1.944982  -0.356107  2.888074
H    -1.165489  -2.531017  1.892348
H    -1.358059  -1.881082  0.259599
H    -3.603599  -2.249875  2.339458
H    -3.239748  -3.344521  1.006703
H    -5.096097  -2.057201  0.374651
H    -3.763937  -1.534712  -0.681801
H    -4.483611  0.559665  0.024341
H    -4.803399  0.041002  1.628950
O    1.893497  -0.905562  2.839868
H    2.041489  -0.735264  1.869744
Hg    1.554389  -1.332427  6.230331
