25
Energy: -566924.191569 eV PBE+vdW (tier 2 basis)
N    -0.781340  0.134297  -0.460314
C    -0.518419  0.009796  0.999838
C    0.719122  0.825156  1.432798
O    1.021829  1.979762  0.883333
H    -0.149239  -0.444917  -1.022637
H    -1.742251  -0.124616  -0.701270
H    -1.375723  0.485532  1.505442
C    -0.412790  -1.468025  1.465689
C    -0.748509  -1.636209  2.960698
C    -0.484465  -3.043347  3.531167
C    0.992001  -3.294085  3.828076
N    1.185133  -4.626534  4.543160
H    0.598192  -1.833208  1.232976
H    -1.119109  -2.066848  0.871897
H    -1.814309  -1.413020  3.111223
H    -0.189896  -0.896648  3.551484
H    -0.873679  -3.815681  2.847865
H    -1.056763  -3.134287  4.467887
H    1.410557  -2.529893  4.494857
H    1.615354  -3.343905  2.927361
H    0.845426  -5.416132  3.975330
H    2.177751  -4.802505  4.756024
O    1.439332  0.445555  2.348366
H    0.669993  -4.649413  5.435535
Hg    -0.160201  2.452170  -0.866789
