25
Energy: -566923.680876 eV PBE+vdW (tier 2 basis)
N    1.175472  -0.876596  0.353386
C    0.478454  -0.693844  1.695394
C    1.582001  -1.018856  2.761040
O    1.323752  -0.592118  3.929940
H    0.534422  -1.215627  -0.375627
H    1.616500  -0.009044  0.018622
H    0.194645  0.361426  1.790746
C    -0.728299  -1.623043  1.853374
C    -2.040417  -1.182913  1.158590
C    -2.125121  -1.393924  -0.356068
C    -3.614710  -1.192735  -0.853826
N    -3.777878  -1.383509  -2.248232
H    -0.937042  -1.664229  2.931170
H    -0.447711  -2.648988  1.563721
H    -2.256325  -0.133843  1.412451
H    -2.833705  -1.773770  1.640087
H    -1.817411  -2.413245  -0.635169
H    -1.507025  -0.676296  -0.921265
H    -3.928188  -0.173663  -0.585277
H    -4.239547  -1.918244  -0.312331
H    -4.001619  -2.295202  -2.637380
H    -3.745721  -0.606699  -2.902076
O    2.573170  -1.661039  2.376124
H    1.940903  -1.566986  0.519148
Hg    3.173656  -1.393498  5.031843
