25
Energy: -566923.816663 eV PBE+vdW (tier 2 basis)
N    -0.199634  0.708659  0.350091
C    -0.161454  0.115395  1.755398
C    1.339477  0.172740  2.188350
O    1.604949  -0.387165  3.293638
H    -0.271651  -0.019324  -0.373613
H    -0.968278  1.376152  0.212456
H    -0.687705  0.828258  2.407797
C    -0.792096  -1.275095  1.842123
C    -2.302699  -1.272217  1.568475
C    -2.975504  -2.656331  1.580632
C    -3.134157  -3.255366  3.033810
N    -3.869537  -4.465319  3.029914
H    -0.571536  -1.634463  2.857661
H    -0.267123  -1.961275  1.156463
H    -2.514006  -0.858743  0.566016
H    -2.808813  -0.600874  2.280254
H    -2.418336  -3.376415  0.964622
H    -3.979907  -2.568425  1.146816
H    -3.657539  -2.518848  3.658816
H    -2.132897  -3.446158  3.450054
H    -3.433700  -5.354618  2.799431
H    -4.879969  -4.472659  3.144148
O    2.121246  0.789192  1.436066
H    0.722491  1.188915  0.227617
Hg    3.870476  0.186036  3.351393
