25
Energy: -566924.253519 eV PBE+vdW (tier 2 basis)
N    0.505171  0.512717  0.318293
C    -0.245273  0.057678  1.520260
C    0.677801  -0.311870  2.711313
O    1.819021  0.288703  2.905364
H    0.871381  -0.263867  -0.242835
H    -0.067037  1.103822  -0.292817
H    -0.811801  0.935984  1.871787
C    -1.259022  -1.076970  1.219328
C    -0.648264  -2.458127  0.912824
C    -1.533020  -3.651070  1.329048
C    -1.929294  -3.756026  2.800596
N    -0.734842  -3.786870  3.739909
H    -1.906811  -0.746168  0.395907
H    -1.911559  -1.115942  2.100343
H    0.340665  -2.557126  1.387729
H    -0.463950  -2.562387  -0.165551
H    -1.034201  -4.581595  1.018322
H    -2.479345  -3.629338  0.767754
H    -2.494698  -4.678853  2.974935
H    -2.548650  -2.917899  3.141958
H    -1.033126  -3.968745  4.707834
H    -0.068014  -4.526986  3.483133
O    0.311530  -1.145649  3.541536
H    -0.238366  -2.868303  3.731319
Hg    2.368980  1.635630  1.283321
