25
Energy: -566923.682361 eV PBE+vdW (tier 2 basis)
N    1.473257  0.682525  0.628965
C    0.229892  0.238930  1.390458
C    0.675538  0.007209  2.866973
O    -0.189027  -0.513158  3.627380
H    1.949295  -0.117480  0.188007
H    1.254324  1.368745  -0.105592
H    -0.427921  1.119903  1.431891
C    -0.496929  -0.917803  0.701888
C    0.240997  -2.266311  0.670132
C    -0.400736  -3.303398  -0.275769
C    -1.747552  -3.886619  0.185597
N    -1.640267  -4.794842  1.277334
H    -0.735841  -0.589167  -0.323733
H    -1.462124  -1.013760  1.217375
H    0.311808  -2.678185  1.688301
H    1.280272  -2.138027  0.319917
H    0.307679  -4.131243  -0.427455
H    -0.554283  -2.860084  -1.270056
H    -2.176832  -4.424834  -0.696319
H    -2.499215  -3.122290  0.432924
H    -2.454284  -4.996948  1.853564
H    -0.927608  -5.522662  1.261590
O    1.819901  0.409395  3.181440
H    2.135323  1.093147  1.316976
Hg    1.143133  -0.250955  5.567842
