25
Energy: -566923.333563 eV PBE+vdW (tier 2 basis)
N    -0.232615  0.715945  0.737146
C    0.041047  0.256419  2.093492
C    1.576609  0.168733  2.399036
O    2.443284  0.041053  1.543400
H    -0.970582  0.191171  0.266158
H    -0.408679  1.720039  0.657624
H    -0.340360  1.015780  2.799062
C    -0.585449  -1.126029  2.381926
C    -2.058796  -1.096028  2.858593
C    -3.095559  -0.691843  1.813266
C    -4.570358  -0.970794  2.374377
N    -5.594484  -0.669126  1.456440
H    -0.000350  -1.632905  3.162237
H    -0.475091  -1.755559  1.484202
H    -2.145810  -0.451634  3.747146
H    -2.270569  -2.117329  3.209364
H    -2.985445  -1.276001  0.887066
H    -3.060010  0.379265  1.564576
H    -4.693183  -0.364990  3.283064
H    -4.610409  -2.040020  2.628116
H    -5.942595  -1.363065  0.799927
H    -6.048686  0.240139  1.438599
O    1.938745  0.188754  3.663400
H    1.200963  0.334108  4.288092
Hg    1.764088  0.330997  -0.758610
