25
Energy: -566924.238272 eV PBE+vdW (tier 2 basis)
N    -0.963107  0.652268  -0.128982
C    -0.488593  0.114011  1.176354
C    1.016377  0.370716  1.394186
O    1.606714  1.458415  0.958487
H    -0.724484  0.035822  -0.913407
H    -1.977703  0.792619  -0.140312
H    -0.997957  0.707816  1.953849
C    -0.882667  -1.379890  1.346997
C    -0.831193  -1.913211  2.804295
C    0.268418  -2.962588  3.037365
C    0.320209  -3.386100  4.500947
N    1.411119  -4.423470  4.736529
H    -0.253036  -1.992179  0.684623
H    -1.910935  -1.477027  0.975607
H    -1.809087  -2.352367  3.045227
H    -0.692942  -1.078882  3.507648
H    1.239674  -2.537777  2.738796
H    0.074727  -3.841400  2.401114
H    -0.615445  -3.848633  4.839850
H    0.554449  -2.546405  5.167282
H    2.339185  -4.056658  4.480331
H    1.453143  -4.709951  5.725293
O    1.704537  -0.406906  2.047604
H    1.251272  -5.272744  4.175781
Hg    0.378321  2.648518  -0.377466
