25
Energy: -566923.331128 eV PBE+vdW (tier 2 basis)
N    0.127825  0.419131  0.241741
C    0.030865  0.257745  1.696111
C    1.441033  0.338730  2.349022
O    2.452510  -0.108322  1.816612
H    -0.634508  -0.042468  -0.260506
H    0.178149  1.397207  -0.058585
H    -0.560767  1.098001  2.103093
C    -0.646922  -1.091098  2.047875
C    -0.854458  -1.342798  3.550063
C    -1.524990  -2.677276  3.906696
C    -3.079297  -2.716543  3.590525
N    -3.694997  -3.903837  4.047186
H    -0.045847  -1.907008  1.613728
H    -1.616624  -1.091019  1.525154
H    -1.422488  -0.511751  4.000052
H    0.121116  -1.364232  4.062303
H    -1.412900  -2.851773  4.984149
H    -1.044149  -3.518288  3.387730
H    -3.218630  -2.641262  2.501342
H    -3.546556  -1.854777  4.088237
H    -4.080599  -3.975413  4.986181
H    -3.695189  -4.756213  3.492018
O    1.540458  0.855064  3.556431
H    0.702869  1.235456  3.886827
Hg    2.234492  -0.616435  -0.560008
