25
Energy: -566923.346861 eV PBE+vdW (tier 2 basis)
N    0.272875  0.842452  0.510656
C    0.111818  0.466271  1.918359
C    1.494452  0.248964  2.599322
O    2.467745  -0.212261  2.012318
H    0.383092  1.851047  0.369736
H    -0.492832  0.508820  -0.079823
H    -0.376120  1.305803  2.447277
C    -0.751489  -0.816323  2.050521
C    -1.161849  -1.152643  3.493225
C    -2.271953  -2.204604  3.632947
C    -1.781330  -3.685747  3.340933
N    -2.778804  -4.644302  3.629076
H    -0.210286  -1.652533  1.580714
H    -1.661510  -0.640518  1.454857
H    -1.563042  -0.241532  3.971972
H    -0.288942  -1.458310  4.090162
H    -3.120064  -1.987226  2.968685
H    -2.650374  -2.184150  4.662884
H    -0.903403  -3.877766  3.975240
H    -1.503292  -3.766235  2.280193
H    -3.482698  -4.909332  2.944106
H    -2.894339  -5.024263  4.566104
O    1.598754  0.512417  3.886108
H    0.801517  0.934116  4.262572
Hg    2.334283  -0.161879  -0.428882
