25
Energy: -566923.185689 eV PBE+vdW (tier 2 basis)
N    -0.003729  -1.139827  0.479899
C    0.000156  -0.319122  1.623451
C    1.556424  0.040959  1.978731
O    1.773090  0.895823  2.827791
H    -0.325193  -2.130618  0.567978
H    -0.253263  -0.700436  -0.406388
H    -0.428106  0.674179  1.424805
C    -0.639237  -0.945682  2.886960
C    -0.300124  -2.424976  3.153958
C    -1.499392  -3.401188  3.173950
C    -2.362301  -3.402205  1.911224
N    -1.611420  -3.578298  0.682762
H    -1.719686  -0.807612  2.734520
H    -0.379013  -0.312144  3.743105
H    0.212350  -2.512528  4.119671
H    0.425482  -2.800078  2.410357
H    -2.158952  -3.173945  4.023253
H    -1.109886  -4.412864  3.358655
H    -2.976059  -2.497018  1.804749
H    -3.094689  -4.236921  2.009656
H    -2.158333  -3.492328  -0.176513
H    -1.009169  -4.405724  0.649012
O    2.487271  -0.595051  1.334142
H    2.061158  -1.189711  0.666035
Hg    3.993969  1.673200  3.479011
