25
Energy: -566923.215856 eV PBE+vdW (tier 2 basis)
N    0.526271  -0.403103  0.205868
C    0.407999  -0.380394  1.666742
C    1.802117  -0.576192  2.327387
O    2.665021  -1.316833  1.865125
H    -0.333011  -0.709795  -0.257329
H    0.827302  0.487687  -0.200688
H    0.045060  0.617919  1.973340
C    -0.562992  -1.494539  2.134949
C    -0.829454  -1.600717  3.647839
C    -1.754512  -0.534501  4.265171
C    -3.262076  -0.867687  4.100541
N    -4.113343  0.047794  4.770884
H    -0.157800  -2.456642  1.782538
H    -1.508585  -1.338639  1.591306
H    0.121754  -1.612916  4.199538
H    -1.255229  -2.597871  3.830586
H    -1.583485  0.467869  3.839757
H    -1.535468  -0.457641  5.339742
H    -3.408058  -1.886450  4.535154
H    -3.576315  -0.936833  3.050460
H    -5.010633  0.323250  4.379013
H    -3.953557  0.294550  5.746070
O    2.041975  0.033157  3.469983
H    1.329212  0.645856  3.736536
Hg    2.270786  -2.042787  -0.421747
