25
Energy: -566923.492276 eV PBE+vdW (tier 2 basis)
N    0.302550  0.340176  0.042309
C    0.339424  -0.355149  1.319705
C    1.757147  -0.941291  1.650877
O    2.646012  -1.099611  0.827246
H    -0.355676  -0.061417  -0.627061
H    0.144084  1.346403  0.118572
H    0.155430  0.391126  2.111591
C    -0.693152  -1.518239  1.400653
C    -2.135590  -1.028199  1.637821
C    -3.087741  -2.219903  1.768283
C    -4.590111  -1.728079  1.973832
N    -5.491584  -2.805546  2.090101
H    -0.398495  -2.203877  2.207945
H    -0.622876  -2.109497  0.473565
H    -2.455654  -0.374176  0.811055
H    -2.172768  -0.418781  2.553958
H    -2.826484  -2.844322  2.633526
H    -3.057983  -2.856583  0.873099
H    -4.865111  -1.113577  1.104981
H    -4.620466  -1.120232  2.889477
H    -5.677237  -3.252429  2.985020
H    -5.926973  -3.228470  1.273883
O    1.977907  -1.303900  2.898705
H    1.244556  -1.094716  3.509343
Hg    2.451175  0.106525  -1.284643
