25
Energy: -566923.309533 eV PBE+vdW (tier 2 basis)
N    -0.497236  0.610482  0.571639
C    -0.277510  0.394989  1.997078
C    1.219158  0.603662  2.416553
O    2.168757  0.529874  1.647437
H    -1.053672  -0.119792  0.125284
H    -0.870055  1.532388  0.334313
H    -0.832884  1.171539  2.551840
C    -0.710061  -1.021693  2.444261
C    -2.215112  -1.174672  2.767194
C    -3.170048  -1.035183  1.588490
C    -4.635232  -1.604106  1.898054
N    -5.343828  -0.916876  2.903715
H    -0.145428  -1.308939  3.342232
H    -0.400563  -1.739569  1.667468
H    -2.497079  -0.474948  3.569459
H    -2.312499  -2.182279  3.201483
H    -2.836343  -1.631530  0.723927
H    -3.305437  0.007866  1.266034
H    -4.518054  -2.658739  2.181114
H    -5.179270  -1.531848  0.943894
H    -5.931526  -0.116848  2.683971
H    -5.417523  -1.281255  3.849402
O    1.457599  0.830709  3.690480
H    0.652670  0.916898  4.238249
Hg    1.667137  0.481462  -0.717284
