25
Energy: -566923.760022 eV PBE+vdW (tier 2 basis)
N    -0.120047  0.669074  0.188774
C    -0.013927  0.045328  1.577287
C    1.513177  0.021661  1.909605
O    1.826324  -0.562316  2.988996
H    -0.249608  -0.045364  -0.540952
H    -0.886563  1.348832  0.110775
H    -0.462809  0.766289  2.276800
C    -0.703408  -1.315877  1.669741
C    -2.227600  -1.248678  1.483092
C    -2.926829  -2.625895  1.552354
C    -3.114223  -3.201931  2.966129
N    -4.106533  -2.535249  3.738116
H    -0.444237  -1.716549  2.659467
H    -0.250582  -2.004917  0.936774
H    -2.474494  -0.825696  0.495352
H    -2.668121  -0.568268  2.229063
H    -2.369671  -3.365131  0.959668
H    -3.912752  -2.543927  1.071298
H    -2.183373  -3.250563  3.550482
H    -3.415944  -4.270780  2.828505
H    -5.013642  -2.321886  3.326638
H    -4.091241  -2.592346  4.753745
O    2.276825  0.603399  1.110458
H    0.797029  1.136413  0.011182
Hg    4.114293  -0.106077  2.856752
