25
Energy: -566923.431914 eV PBE+vdW (tier 2 basis)
N    0.529412  0.386814  0.117707
C    0.165231  -0.037975  1.463911
C    1.415824  -0.332968  2.358547
O    2.525192  -0.608844  1.921115
H    0.018662  -0.103372  -0.618349
H    0.460488  1.395488  -0.034232
H    -0.347224  0.805974  1.959550
C    -0.730712  -1.305329  1.459709
C    -2.204042  -1.006756  1.121629
C    -3.034626  -2.298267  1.107840
C    -4.522118  -2.056942  0.717144
N    -5.311593  -1.457278  1.728985
H    -0.672592  -1.791737  2.444000
H    -0.299089  -2.029100  0.749413
H    -2.277259  -0.507747  0.140814
H    -2.623052  -0.303074  1.858488
H    -3.000983  -2.797570  2.087757
H    -2.625101  -3.012112  0.379342
H    -4.921193  -3.076241  0.497095
H    -4.615964  -1.476075  -0.208879
H    -6.022361  -0.767622  1.497122
H    -5.408802  -1.903204  2.639438
O    1.237128  -0.322939  3.663131
H    0.342533  -0.041467  3.937797
Hg    2.918305  -0.185101  -0.434947
