25
Energy: -566923.71562 eV PBE+vdW (tier 2 basis)
N    0.369852  -0.754821  0.378111
C    0.519117  -0.081328  1.665439
C    1.977246  0.095908  2.217124
O    2.972486  -0.379769  1.686145
H    -0.958847  -2.410042  0.471915
H    0.020806  -0.065329  -0.303073
H    0.133456  0.950235  1.587468
C    -0.310602  -0.886388  2.715285
C    0.218136  -2.304716  3.025172
C    -0.869061  -3.395630  3.080291
C    -1.148802  -4.110115  1.764618
N    -1.647588  -3.173589  0.666796
H    -1.342312  -0.900072  2.337313
H    -0.376252  -0.293639  3.640302
H    0.741069  -2.281941  3.989153
H    0.985994  -2.603621  2.293285
H    -1.801917  -2.996964  3.509397
H    -0.553977  -4.189848  3.772150
H    -1.918046  -4.882850  1.881386
H    -0.245294  -4.585022  1.360902
H    -1.814102  -3.691047  -0.207208
H    -2.541819  -2.738655  0.932270
O    2.116069  0.776491  3.334219
H    1.286308  1.170977  3.666899
Hg    2.331732  -1.134964  -0.521993
