25
Energy: -566924.344953 eV PBE+vdW (tier 2 basis)
N    1.502533  -1.777036  0.049513
C    0.488967  -0.929773  0.722112
C    1.038570  -0.090290  1.891068
O    2.009142  -0.498044  2.649945
H    1.093986  -2.605019  -0.397763
H    2.054252  -1.270292  -0.650764
H    0.149662  -0.172327  -0.007101
C    -0.699910  -1.799922  1.198740
C    -1.746944  -1.098174  2.077108
C    -2.584351  -0.002680  1.380276
C    -3.156471  1.027451  2.352068
N    -2.120688  2.089672  2.708473
H    -0.295842  -2.653552  1.769609
H    -1.181063  -2.221490  0.302144
H    -1.251650  -0.702287  2.976569
H    -2.429466  -1.874105  2.449877
H    -3.432605  -0.465154  0.857875
H    -2.014935  0.522984  0.597998
H    -3.473495  0.566864  3.295706
H    -4.014265  1.563156  1.930928
H    -2.074745  2.813210  1.978995
H    -2.348022  2.564646  3.591816
O    0.468041  0.973055  2.156967
H    -1.162721  1.686741  2.776315
Hg    2.981124  -2.293491  1.844640
