25
Energy: -566924.153663 eV PBE+vdW (tier 2 basis)
N    -0.895278  0.747236  0.210302
C    -0.431704  -0.038083  1.384421
C    1.078085  0.152785  1.681087
O    1.708798  1.247473  1.374020
H    -0.720808  0.265037  -0.678710
H    -1.894691  0.968730  0.258979
H    -0.943949  0.398000  2.258352
C    -0.817868  -1.549523  1.258866
C    -1.441955  -2.165647  2.531259
C    -0.623952  -2.261952  3.829934
C    0.337516  -3.434245  4.009044
N    1.552980  -3.384610  3.087572
H    0.053161  -2.109719  0.894130
H    -1.580489  -1.636360  0.472645
H    -1.805105  -3.167287  2.248832
H    -2.354266  -1.594822  2.760973
H    -1.344163  -2.378336  4.654072
H    -0.096056  -1.322110  4.054985
H    -0.149846  -4.402249  3.840976
H    0.734226  -3.429060  5.030472
H    2.377235  -3.808233  3.532461
H    1.390419  -3.897649  2.213579
O    1.699554  -0.726557  2.281962
H    1.773751  -2.394031  2.834491
Hg    0.512404  2.669210  0.226297
