25
Energy: -566924.139318 eV PBE+vdW (tier 2 basis)
N    -0.689538  0.544725  -0.264684
C    -0.677958  0.018801  1.128859
C    0.018061  0.989031  2.104548
O    -0.059109  2.291763  1.966625
H    0.208981  0.404756  -0.739284
H    -1.415794  0.103593  -0.836463
H    -1.731607  -0.007441  1.454046
C    -0.098712  -1.423641  1.176887
C    -0.377437  -2.218883  2.484337
C    0.889553  -2.465939  3.317999
C    0.671562  -3.054745  4.705143
N    0.229295  -4.518684  4.674103
H    0.983143  -1.377674  0.981688
H    -0.543475  -1.964665  0.331765
H    -0.846639  -3.171668  2.194173
H    -1.119577  -1.687720  3.098941
H    1.389693  -1.501879  3.494933
H    1.611399  -3.081857  2.756581
H    -0.100057  -2.519062  5.272523
H    1.599254  -3.044049  5.289167
H    0.923024  -5.106942  4.190595
H    0.119995  -4.893589  5.627520
O    0.613511  0.576755  3.094106
H    -0.671297  -4.640877  4.191940
Hg    -0.920271  2.934890  0.084953
