25
Energy: -566923.454685 eV PBE+vdW (tier 2 basis)
N    1.136835  -1.077264  0.538377
C    0.686949  -0.519950  1.752354
C    1.500425  -1.128009  3.015768
O    2.261316  -0.383245  3.604546
H    0.931028  -2.046790  0.308714
H    1.981926  -0.712584  0.104602
H    0.951815  0.543230  1.784485
C    -0.815921  -0.722311  2.005359
C    -1.691895  0.169552  1.089360
C    -1.643929  -0.182689  -0.382819
C    -2.876068  0.460347  -1.231385
N    -2.901514  1.857190  -1.283317
H    -1.050191  -0.478465  3.051325
H    -1.081443  -1.783837  1.857430
H    -1.439128  1.229326  1.247040
H    -2.716076  0.042353  1.477957
H    -1.756009  -1.263464  -0.553748
H    -0.732425  0.163719  -0.886930
H    -3.794559  0.079627  -0.764570
H    -2.750609  0.043597  -2.240464
H    -2.419095  2.370682  -2.016638
H    -3.458066  2.409630  -0.636839
O    1.354789  -2.392016  3.355159
H    0.670218  -2.868825  2.846275
Hg    3.737505  -1.139779  5.581977
