25
Energy: -566924.833233 eV PBE+vdW (tier 2 basis)
N    0.078851  1.413559  0.809503
C    0.372359  0.501420  1.986340
C    0.938890  -0.798042  1.397337
O    1.842601  -1.354921  2.185739
H    -0.614725  2.140182  1.038390
H    0.928008  1.886845  0.466190
H    1.089217  1.007168  2.641700
C    -0.962310  0.171520  2.719432
C    -0.977754  -1.080646  3.643415
C    -1.667075  -2.330024  3.026338
C    -1.451999  -3.655775  3.789583
N    -0.368200  -4.552214  3.194173
H    -1.749468  0.055620  1.957602
H    -1.221553  1.055642  3.317669
H    -1.527652  -0.815971  4.555434
H    0.044550  -1.294490  3.996913
H    -1.402866  -2.468912  1.962566
H    -2.749495  -2.141081  3.003847
H    -2.369172  -4.259280  3.786400
H    -1.170959  -3.478997  4.834949
H    -0.032779  -5.234159  3.885744
H    -0.741262  -5.093596  2.404520
O    0.430697  -1.272000  0.391882
H    -0.286151  0.822786  0.037314
Hg    1.190048  -3.289707  2.461005
