25
Energy: -566923.193687 eV PBE+vdW (tier 2 basis)
N    -0.095834  -0.795872  -0.582475
C    -0.102118  -0.095624  0.636982
C    1.282381  -0.497482  1.434385
O    1.614345  0.182591  2.393510
H    -0.928491  -1.413070  -0.790940
H    0.223909  -0.271262  -1.398936
H    0.012755  0.991092  0.512042
C    -1.284420  -0.418248  1.570198
C    -1.611438  -1.902851  1.852468
C    -2.935269  -2.439910  1.252156
C    -2.877316  -2.915701  -0.196900
N    -2.594366  -1.880292  -1.178324
H    -2.143089  0.085900  1.093941
H    -1.122350  0.125611  2.508494
H    -1.687572  -2.022121  2.939849
H    -0.788249  -2.568808  1.545113
H    -3.732760  -1.691035  1.379487
H    -3.253624  -3.308528  1.843959
H    -3.865623  -3.367956  -0.446506
H    -2.149406  -3.730475  -0.335704
H    -3.209541  -1.064047  -1.140675
H    -2.503483  -2.214040  -2.141656
O    1.946803  -1.523305  0.996632
H    1.502259  -1.861261  0.177403
Hg    3.653384  -0.147494  3.710534
