25
Energy: -566923.475307 eV PBE+vdW (tier 2 basis)
N    0.565843  -0.076097  0.181684
C    0.377219  0.014520  1.633961
C    1.705957  0.368834  2.363156
O    2.815649  0.053521  1.951022
H    0.069519  -0.866618  -0.236132
H    0.302036  0.779243  -0.315727
H    -0.319382  0.848035  1.832648
C    -0.197040  -1.321308  2.184492
C    -0.642570  -1.299840  3.660191
C    -1.364749  -2.605323  4.018754
C    -1.784544  -2.617402  5.550272
N    -2.443227  -3.810921  5.918013
H    0.547921  -2.117082  2.028548
H    -1.067357  -1.561230  1.554070
H    -1.321634  -0.449137  3.833806
H    0.227370  -1.170979  4.321284
H    -0.719216  -3.475798  3.836911
H    -2.277565  -2.731430  3.420655
H    -2.454058  -1.762360  5.723920
H    -0.870679  -2.506915  6.151871
H    -1.929068  -4.627415  6.240303
H    -3.450148  -3.918170  5.819841
O    1.616163  0.994401  3.521517
H    0.705885  1.273056  3.741091
Hg    2.931784  -0.533991  -0.417062
