25
Energy: -566923.792548 eV PBE+vdW (tier 2 basis)
N    0.090876  0.678947  0.260105
C    0.325515  0.379825  1.738231
C    1.863539  0.092208  1.847505
O    2.284656  -0.085177  3.032001
H    -0.621829  0.066529  -0.157013
H    -0.176367  1.654303  0.079935
H    0.127417  1.301323  2.300324
C    -0.519379  -0.792963  2.231460
C    -2.041878  -0.532538  2.347620
C    -2.443916  0.148234  3.659407
C    -4.020256  0.223724  3.791046
N    -4.440108  0.790462  5.017511
H    -0.113232  -1.088688  3.208895
H    -0.346393  -1.656304  1.568162
H    -2.534544  -1.512772  2.278327
H    -2.421477  0.045404  1.487660
H    -2.047297  1.170696  3.740307
H    -2.063858  -0.422475  4.518005
H    -4.421204  -0.795445  3.708137
H    -4.400545  0.835014  2.957641
H    -4.503736  1.796404  5.148861
H    -4.650093  0.212646  5.827148
O    2.515181  0.069975  0.788455
H    1.020079  0.494967  -0.195974
Hg    4.520995  -0.455641  2.568753
