25
Energy: -566923.689004 eV PBE+vdW (tier 2 basis)
N    0.547449  -1.501814  -0.259846
C    0.110684  -0.458923  0.763660
C    1.391746  0.328269  1.177129
O    1.255292  1.136802  2.137043
H    0.788028  -2.394889  0.194024
H    -0.181252  -1.685850  -0.962378
H    -0.501468  0.268059  0.209287
C    -0.704997  -1.063849  1.910501
C    0.048103  -2.013310  2.850018
C    -0.833237  -2.747187  3.878804
C    -1.495455  -1.845087  4.944492
N    -2.656335  -1.150090  4.491854
H    -1.575624  -1.573862  1.464279
H    -1.108342  -0.208563  2.472040
H    0.845388  -1.466431  3.375807
H    0.554540  -2.812057  2.277487
H    -0.202871  -3.466972  4.416573
H    -1.607485  -3.343531  3.371093
H    -0.788910  -1.121604  5.374288
H    -1.781539  -2.523929  5.783642
H    -3.434156  -1.684042  4.107211
H    -2.923385  -0.275302  4.938707
O    2.419859  0.130741  0.488024
H    1.409261  -1.153262  -0.722602
Hg    3.469453  1.974175  1.920662
