25
Energy: -566923.793726 eV PBE+vdW (tier 2 basis)
N    0.380016  -0.122437  0.283796
C    -0.027804  0.276311  1.696664
C    1.206659  1.012126  2.306322
O    1.099322  1.316528  3.532541
H    0.690814  -1.102452  0.239807
H    -0.382393  0.002880  -0.394776
H    -0.792924  1.058449  1.583761
C    -0.604123  -0.885334  2.506265
C    0.362640  -2.034569  2.848487
C    -0.352506  -3.106955  3.681417
C    0.613879  -4.294427  4.062842
N    -0.025251  -5.298094  4.831731
H    -1.482279  -1.270886  1.963474
H    -0.996065  -0.441969  3.432260
H    1.224707  -1.639481  3.407870
H    0.767315  -2.504312  1.934469
H    -1.205773  -3.526352  3.130161
H    -0.742568  -2.672253  4.612291
H    1.454095  -3.880558  4.640066
H    0.993754  -4.743311  3.133117
H    -0.509254  -6.078324  4.395039
H    -0.078366  -5.241073  5.845448
O    2.148538  1.282605  1.533180
H    1.194797  0.475512  0.027625
Hg    3.070289  2.563243  3.660456
