25
Energy: -566923.75351 eV PBE+vdW (tier 2 basis)
N    0.758589  -0.654538  0.102217
C    0.332410  -0.057506  1.438988
C    1.658503  0.131750  2.239359
O    1.545217  0.829555  3.296092
H    0.128035  -1.403802  -0.211781
H    0.820474  0.047620  -0.646485
H    -0.097199  0.932775  1.245213
C    -0.644013  -0.979061  2.181266
C    -2.062441  -1.083186  1.584250
C    -2.948729  0.145526  1.846082
C    -4.398605  -0.036286  1.344016
N    -5.165943  -0.963385  2.103247
H    -0.704419  -0.606931  3.213584
H    -0.194636  -1.983104  2.250774
H    -2.531124  -1.970958  2.032858
H    -2.030549  -1.295857  0.500698
H    -2.553608  1.044154  1.350040
H    -2.965929  0.373822  2.923321
H    -4.439338  -0.326466  0.284837
H    -4.880126  0.970094  1.399026
H    -5.226898  -0.874574  3.115768
H    -5.909703  -1.500431  1.663746
O    2.683281  -0.415363  1.791750
H    1.720832  -1.034085  0.260451
Hg    3.738951  0.712468  3.999881
