25
Energy: -566923.626891 eV PBE+vdW (tier 2 basis)
N    0.239709  1.008540  0.222914
C    -0.132541  0.534457  1.626600
C    1.047165  -0.381587  2.077224
O    1.061688  -0.617768  3.330022
H    0.693743  1.932151  0.239106
H    -0.574931  1.068924  -0.400317
H    -0.143223  1.420891  2.271745
C    -1.496998  -0.164732  1.700923
C    -1.662520  -1.580879  1.119883
C    -1.658910  -1.700735  -0.411618
C    -2.087056  -3.112442  -0.894929
N    -3.462690  -3.403706  -0.682234
H    -2.248303  0.519917  1.272536
H    -1.725131  -0.211692  2.776072
H    -2.628443  -1.950640  1.494194
H    -0.904594  -2.254081  1.551425
H    -0.656673  -1.531027  -0.834643
H    -2.335668  -0.956451  -0.863541
H    -1.480368  -3.898138  -0.426246
H    -1.864444  -3.153216  -1.986474
H    -4.186259  -2.806617  -1.077503
H    -3.760741  -4.339012  -0.416967
O    1.833779  -0.786933  1.207033
H    0.934214  0.324552  -0.146405
Hg    2.958568  -1.866112  3.514234
