25
Energy: -566924.241989 eV PBE+vdW (tier 2 basis)
N    -0.755326  0.580771  -0.103892
C    -0.675934  -0.009523  1.257234
C    0.475704  0.603938  2.101615
O    0.788227  1.864325  2.001212
H    -0.064495  0.185013  -0.751645
H    -1.684119  0.471507  -0.523039
H    -1.606097  0.285846  1.770631
C    -0.575282  -1.558559  1.231450
C    -1.183190  -2.202393  2.502493
C    -0.532102  -3.547696  2.906450
C    0.362841  -3.490569  4.139331
N    1.623904  -2.668617  3.927887
H    0.479579  -1.838058  1.099179
H    -1.109473  -1.935575  0.349058
H    -2.255448  -2.358866  2.330373
H    -1.122397  -1.501681  3.347708
H    0.008059  -4.002085  2.060872
H    -1.320830  -4.270992  3.156300
H    0.691927  -4.493578  4.436987
H    -0.156183  -3.034256  4.991651
H    2.246866  -3.114691  3.242101
H    1.408008  -1.702427  3.584767
O    1.079589  -0.083921  2.927003
H    2.156006  -2.578496  4.804065
Hg    -0.151837  2.851584  0.295206
