25
Energy: -566924.251001 eV PBE+vdW (tier 2 basis)
N    -0.679765  0.342709  -0.094083
C    -0.276156  -0.253664  1.209333
C    1.256417  -0.439764  1.338559
O    2.106180  0.296940  0.683219
H    -0.779496  -0.366226  -0.829647
H    -1.566342  0.852685  -0.028519
H    -0.535284  0.493788  1.977807
C    -1.066039  -1.577633  1.479525
C    -1.526342  -1.802566  2.935882
C    -0.460532  -2.044386  4.012798
C    0.314242  -3.356859  3.838617
N    1.754684  -3.193510  4.285440
H    -0.480673  -2.424900  1.096250
H    -1.982480  -1.541467  0.874584
H    -2.218911  -2.658997  2.907942
H    -2.142370  -0.948426  3.253643
H    -0.957843  -2.040280  4.992945
H    0.245242  -1.200156  4.031180
H    0.374651  -3.676020  2.792482
H    -0.115603  -4.177955  4.423283
H    1.819959  -2.887788  5.266050
H    2.285752  -4.071036  4.199889
O    1.701689  -1.274005  2.129062
H    2.204266  -2.477857  3.686772
Hg    1.177757  1.690373  -0.722011
