25
Energy: -566923.278293 eV PBE+vdW (tier 2 basis)
N    2.872445  0.615194  1.770064
C    1.779125  0.296438  2.694662
C    2.305635  -0.248465  4.055795
O    3.409245  -0.761521  4.215439
H    3.150464  1.599517  1.806487
H    2.663178  0.371184  0.799856
H    1.259588  1.240024  2.936848
C    0.747599  -0.696901  2.093436
C    1.268314  -2.107445  1.770844
C    0.174184  -3.141461  1.462677
C    -0.588250  -2.886839  0.097264
N    -1.518082  -3.909569  -0.201773
H    0.327110  -0.207845  1.201235
H    -0.086705  -0.772733  2.807221
H    1.813751  -2.512081  2.639668
H    1.993180  -2.082322  0.940767
H    -0.570596  -3.173889  2.270409
H    0.630933  -4.137372  1.400370
H    0.161811  -2.837487  -0.705876
H    -1.126574  -1.929636  0.165787
H    -2.469737  -3.889862  0.157298
H    -1.245902  -4.743483  -0.717273
O    1.484689  -0.201911  5.083987
H    0.651465  0.277495  4.905944
Hg    4.958324  -0.581805  2.361658
