25
Energy: -566923.477925 eV PBE+vdW (tier 2 basis)
N    -0.886339  -0.120129  0.083957
C    -0.257367  0.122026  1.321250
C    1.344501  -0.142622  1.234777
O    2.079489  0.819102  1.355581
H    -0.840385  0.587445  -0.645707
H    -1.003467  -1.070985  -0.257807
H    -0.307089  1.192438  1.551888
C    -0.810375  -0.718124  2.479475
C    -2.207523  -0.229514  2.951616
C    -3.344389  -0.524494  1.989055
C    -4.768230  -0.218830  2.714693
N    -5.876011  -0.533564  1.921470
H    -0.125086  -0.657178  3.337137
H    -0.860546  -1.781765  2.188668
H    -2.164889  0.844875  3.185293
H    -2.374775  -0.741466  3.912284
H    -3.359157  -1.578770  1.679642
H    -3.330936  0.110264  1.093351
H    -4.765813  0.850435  2.965253
H    -4.778506  -0.833882  3.625138
H    -6.283726  -1.465314  1.921350
H    -6.287465  0.141215  1.281357
O    1.807777  -1.354681  1.011382
H    1.121465  -2.049649  0.986685
Hg    4.647039  0.675594  1.189159
