25
Energy: -566924.28247 eV PBE+vdW (tier 2 basis)
N    -1.213022  1.115254  0.593396
C    -0.911988  0.115958  1.647568
C    0.487359  0.266932  2.270832
O    1.514988  0.675393  1.588469
H    -1.916937  0.783842  -0.075564
H    -1.527039  2.015554  0.971601
H    -1.601489  0.298914  2.492766
C    -1.127606  -1.318839  1.109158
C    -0.912317  -2.446121  2.142699
C    0.530604  -2.991174  2.203927
C    0.931065  -3.664014  3.512130
N    0.966678  -2.678041  4.680910
H    -0.481439  -1.485350  0.229918
H    -2.165400  -1.363614  0.747115
H    -1.590375  -3.271042  1.889014
H    -1.252175  -2.081442  3.124096
H    1.273148  -2.211673  1.977749
H    0.664481  -3.749015  1.418490
H    1.941393  -4.080490  3.433391
H    0.250035  -4.472609  3.803681
H    0.053617  -2.603004  5.145798
H    1.644379  -2.971955  5.396104
O    0.644436  -0.107414  3.437901
H    1.208673  -1.719987  4.357090
Hg    0.924932  1.498937  -0.364238
