25
Energy: -566923.454596 eV PBE+vdW (tier 2 basis)
N    0.223096  -0.265111  -0.521082
C    -0.148572  -0.106329  0.844119
C    1.153050  0.332405  1.670038
O    1.103663  0.472520  2.891025
H    -0.168927  0.387366  -1.196079
H    0.312124  -1.209657  -0.887262
H    -0.787852  0.785620  0.948071
C    -0.852503  -1.298147  1.526327
C    -0.129927  -2.648029  1.482753
C    -0.784182  -3.764846  2.304558
C    -2.199629  -4.202892  1.716419
N    -2.773942  -5.271213  2.426583
H    -1.833567  -1.371242  1.029962
H    -1.033178  -1.003976  2.571092
H    0.882655  -2.538911  1.912544
H    0.011197  -2.999529  0.448235
H    -0.925574  -3.459721  3.350697
H    -0.146505  -4.657743  2.294958
H    -2.075720  -4.484471  0.663645
H    -2.855723  -3.316459  1.802004
H    -3.181006  -5.140718  3.350875
H    -2.749018  -6.225682  2.073344
O    2.220514  0.569991  0.965218
H    1.981988  0.374208  0.014159
Hg    2.985013  1.484429  4.140980
