25
Energy: -566923.876268 eV PBE+vdW (tier 2 basis)
N    1.307748  -0.427181  0.445840
C    0.640997  -0.339178  1.810848
C    1.547980  -1.216360  2.767335
O    1.099246  -1.426433  3.931165
H    0.843470  -1.114916  -0.163429
H    1.332147  0.474674  -0.047017
H    0.781465  0.694467  2.161742
C    -0.831693  -0.713909  1.761145
C    -1.564939  -0.465813  3.075873
C    -3.064458  -0.783749  3.039003
C    -3.891430  0.254042  2.234128
N    -3.655235  0.229501  0.826155
H    -0.945502  -1.764377  1.445571
H    -1.323868  -0.100216  0.969531
H    -1.403017  0.569210  3.415777
H    -1.115545  -1.107881  3.858128
H    -3.462112  -0.774181  4.061798
H    -3.244614  -1.795567  2.644896
H    -3.731993  1.272691  2.609973
H    -4.955181  -0.003763  2.442211
H    -3.770336  1.095023  0.302328
H    -3.942400  -0.601007  0.309645
O    2.643016  -1.571683  2.291275
H    2.280462  -0.769339  0.627364
Hg    2.993411  -2.617798  4.722188
