25
Energy: -566923.337091 eV PBE+vdW (tier 2 basis)
N    -0.054294  0.404793  0.276423
C    -0.107207  0.018247  1.684256
C    1.296244  0.071761  2.368400
O    2.359948  -0.002957  1.764832
H    -0.589210  -0.212846  -0.336335
H    -0.335881  1.372928  0.104159
H    -0.721250  0.765395  2.219924
C    -0.702189  -1.402451  1.884484
C    -2.233332  -1.421387  1.746727
C    -2.917383  -2.717738  2.202039
C    -2.743563  -3.925380  1.188185
N    -3.504528  -5.053248  1.571411
H    -0.424894  -1.760861  2.886574
H    -0.206715  -2.085743  1.176195
H    -2.542750  -1.170641  0.718438
H    -2.656540  -0.621906  2.379122
H    -3.993349  -2.530294  2.312359
H    -2.541879  -3.044456  3.181976
H    -1.681285  -4.206306  1.146554
H    -3.081237  -3.584720  0.198450
H    -3.146917  -5.742526  2.228578
H    -4.479001  -5.153957  1.296543
O    1.324058  0.152122  3.682370
H    0.443920  0.267580  4.091614
Hg    2.276219  0.267384  -0.642734
