25
Energy: -566923.61401 eV PBE+vdW (tier 2 basis)
N    -0.316434  0.266743  -0.103107
C    -0.004939  -0.042068  1.262958
C    1.578913  -0.173023  1.347361
O    2.157189  -0.514944  2.387242
H    -0.715229  -0.490388  -0.656797
H    -0.805486  1.144763  -0.265357
H    -0.211595  0.838228  1.894350
C    -0.697711  -1.291375  1.854129
C    -0.438824  -1.475586  3.343197
C    -0.899857  -2.792971  3.960483
C    -2.514820  -2.876923  4.013422
N    -2.933480  -4.032003  4.680118
H    -0.401531  -2.186399  1.284163
H    -1.773978  -1.136086  1.670248
H    -0.823789  -0.616097  3.912847
H    0.662428  -1.471157  3.526960
H    -0.543923  -2.876701  4.994318
H    -0.539753  -3.665095  3.398628
H    -2.854028  -2.898160  2.964912
H    -2.886773  -1.984020  4.529150
H    -3.168446  -4.021256  5.670969
H    -2.907549  -4.946639  4.232816
O    2.202453  0.147427  0.258615
H    1.456740  0.366661  -0.398623
Hg    4.673533  -0.429859  2.379728
