25
Energy: -566923.877717 eV PBE+vdW (tier 2 basis)
N    0.102043  0.633843  0.566690
C    0.069908  0.196157  2.026819
C    1.575047  0.001260  2.425697
O    1.787701  -0.088075  3.670929
H    -0.673054  0.236120  0.020901
H    0.074404  1.656791  0.461295
H    -0.342645  1.023335  2.617769
C    -0.733747  -1.091531  2.223992
C    -2.254281  -0.911381  2.038810
C    -2.998418  -2.217116  2.368146
C    -4.535418  -2.107582  2.194298
N    -5.194806  -1.352891  3.199405
H    -0.527814  -1.426387  3.250371
H    -0.343589  -1.878160  1.558121
H    -2.497728  -0.616707  1.003223
H    -2.616192  -0.101349  2.690850
H    -2.773169  -2.534014  3.397826
H    -2.657631  -3.029134  1.710628
H    -4.901995  -3.161834  2.225375
H    -4.813458  -1.715374  1.207457
H    -6.006675  -0.784993  2.971251
H    -5.101965  -1.612944  4.179269
O    2.400887  -0.054031  1.495659
H    1.020344  0.305188  0.191850
Hg    4.089237  -0.402651  3.569597
