25
Energy: -566923.622697 eV PBE+vdW (tier 2 basis)
N    -0.353258  0.967651  1.085196
C    -0.689167  0.085368  2.285473
C    0.678032  -0.184086  2.988709
O    0.555923  -0.649993  4.170473
H    -0.911948  0.733457  0.255597
H    -0.497332  1.965512  1.291905
H    -1.309370  0.684765  2.962280
C    -1.436042  -1.201832  1.916183
C    -0.679126  -2.343172  1.205640
C    -0.355872  -2.125774  -0.277344
C    0.099436  -3.485005  -0.944410
N    0.372026  -3.372217  -2.329874
H    -2.338396  -0.922256  1.347717
H    -1.805886  -1.592475  2.875725
H    -1.326846  -3.227040  1.298908
H    0.237623  -2.591709  1.762763
H    0.460619  -1.403479  -0.431241
H    -1.241529  -1.768970  -0.825261
H    -0.722326  -4.204041  -0.793000
H    0.996900  -3.847495  -0.426070
H    1.320609  -3.299178  -2.686344
H    -0.370224  -3.423793  -3.022784
O    1.716001  0.063398  2.357542
H    0.663425  0.828629  0.896952
Hg    2.717613  -0.794280  4.854482
