25
Energy: -566923.213113 eV PBE+vdW (tier 2 basis)
N    1.227881  1.358936  1.722956
C    0.630077  0.325830  2.575137
C    1.729704  -0.608828  3.153362
O    2.731712  -0.936936  2.524182
H    0.589198  1.691457  0.995899
H    1.592680  2.163707  2.241496
H    0.147336  0.822567  3.436282
C    -0.396445  -0.502828  1.759277
C    -1.150877  -1.616624  2.506882
C    -2.251121  -1.158550  3.489074
C    -3.618371  -0.880775  2.824183
N    -4.290186  -2.057799  2.396331
H    0.140740  -0.951532  0.908349
H    -1.112328  0.217326  1.330786
H    -0.439316  -2.265395  3.038566
H    -1.600708  -2.270463  1.746321
H    -1.966414  -0.244671  4.032881
H    -2.392576  -1.928084  4.261992
H    -3.556079  -0.182108  1.977245
H    -4.246558  -0.360031  3.588385
H    -4.380336  -2.858542  3.019959
H    -4.934330  -2.035570  1.608833
O    1.543591  -1.122845  4.351319
H    0.756573  -0.765200  4.806707
Hg    3.169795  0.392823  0.540386
