25
Energy: -566923.959486 eV PBE+vdW (tier 2 basis)
N    0.776871  1.297153  2.257046
C    0.032971  0.312779  3.022603
C    0.865074  -0.439141  4.101954
O    2.046085  -0.223718  4.321852
H    1.160622  -1.610004  -1.721336
H    0.207118  2.152310  2.185168
H    -0.824760  0.755850  3.558200
C    -0.523656  -0.732717  1.981067
C    0.524420  -1.627850  1.306657
C    -0.101526  -2.764569  0.470655
C    -0.651472  -2.405143  -0.908021
N    0.451812  -2.316677  -1.960524
H    -1.103478  -0.158082  1.245551
H    -1.262124  -1.353426  2.515381
H    1.153359  -2.105304  2.072160
H    1.211548  -1.010078  0.706871
H    -0.938571  -3.210436  1.028515
H    0.624096  -3.586989  0.365668
H    -1.173415  -1.440719  -0.934803
H    -1.339699  -3.175273  -1.275454
H    0.069828  -2.071061  -2.885615
H    0.939150  -3.219396  -2.060411
O    0.237335  -1.370547  4.806097
H    -0.721278  -1.410237  4.628678
Hg    2.513217  2.005831  3.307173
