25
Energy: -566924.815789 eV PBE+vdW (tier 2 basis)
N    0.103843  0.566917  -0.266576
C    0.016287  -0.051236  1.116173
C    1.182366  -1.108893  1.086804
O    1.986011  -1.023984  0.178298
H    0.022031  1.591123  -0.262711
H    1.062106  0.267800  -0.605613
H    0.348955  0.735331  1.811078
C    -1.415918  -0.502460  1.490030
C    -1.774782  -0.180052  2.962632
C    -2.992162  -0.901442  3.577750
C    -3.011113  -2.431717  3.672465
N    -1.826189  -3.038392  4.413468
H    -1.543391  -1.569499  1.239313
H    -2.142439  0.017782  0.848583
H    -1.977102  0.898871  3.036358
H    -0.887889  -0.298460  3.615951
H    -3.897489  -0.637998  3.009959
H    -3.152408  -0.479271  4.581208
H    -3.043058  -2.918934  2.689154
H    -3.912683  -2.745444  4.217170
H    -1.952789  -4.054266  4.510013
H    -1.757249  -2.661579  5.368314
O    1.358994  -2.007855  2.045731
H    -0.595062  0.188295  -0.919543
Hg    -0.065867  -2.614636  3.328988
