25
Energy: -566923.915535 eV PBE+vdW (tier 2 basis)
N    1.367639  -0.575866  0.489673
C    1.099047  -0.697533  1.982517
C    1.741791  -2.065777  2.398142
O    1.513485  -2.447307  3.590786
H    0.536377  -0.803825  -0.072677
H    1.696019  0.358152  0.213725
H    1.707449  0.076248  2.474670
C    -0.383443  -0.522676  2.318843
C    -0.633776  -0.419884  3.826361
C    -2.094082  -0.406507  4.270608
C    -2.848554  0.938610  3.867822
N    -4.164087  0.982288  4.368065
H    -0.962856  -1.353709  1.884293
H    -0.721692  0.403369  1.819669
H    -0.093717  0.445190  4.241691
H    -0.182028  -1.310380  4.309564
H    -2.141656  -0.482975  5.363988
H    -2.652441  -1.256095  3.853131
H    -2.875675  0.980698  2.765563
H    -2.278621  1.790891  4.258134
H    -4.384215  1.450408  5.243420
H    -4.910784  0.432247  3.950893
O    2.448975  -2.627320  1.541610
H    2.101504  -1.297775  0.285846
Hg    2.856780  -4.388832  3.551674
