25
Energy: -566923.30971 eV PBE+vdW (tier 2 basis)
N    0.564673  0.608817  1.024044
C    -0.126077  0.098722  2.211934
C    0.848327  -0.193540  3.392182
O    2.062210  -0.312162  3.277101
H    0.364459  0.074713  0.175994
H    0.370348  1.596284  0.842799
H    -0.793957  0.898375  2.572800
C    -0.972476  -1.173291  1.908137
C    -0.176978  -2.447709  1.594727
C    -1.020516  -3.642014  1.124777
C    -1.907924  -4.270463  2.274046
N    -2.608977  -5.423928  1.855644
H    -1.646409  -0.915313  1.076650
H    -1.628909  -1.336801  2.776941
H    0.437108  -2.742595  2.460620
H    0.538598  -2.256934  0.776863
H    -0.352490  -4.433999  0.763207
H    -1.678383  -3.359835  0.290404
H    -2.640242  -3.504901  2.587300
H    -1.260177  -4.530430  3.121225
H    -2.276729  -6.360185  2.074092
H    -3.439192  -5.362099  1.270576
O    0.309420  -0.373515  4.583059
H    -0.648647  -0.184330  4.615741
Hg    3.046326  0.535921  1.215251
