25
Energy: -566923.723317 eV PBE+vdW (tier 2 basis)
N    0.611946  -0.534885  -0.037646
C    0.247567  -0.376796  1.432490
C    1.397188  -1.101258  2.210340
O    1.241831  -1.194528  3.470078
H    0.047424  -1.264101  -0.495481
H    0.508928  0.334782  -0.575410
H    0.346927  0.692790  1.667546
C    -1.167831  -0.892554  1.717944
C    -1.695353  -0.551351  3.122465
C    -2.310385  0.839634  3.305345
C    -3.813642  0.944582  2.834514
N    -4.751178  0.371898  3.723297
H    -1.180797  -1.983672  1.570993
H    -1.836866  -0.469696  0.948493
H    -0.855503  -0.639906  3.837207
H    -2.409545  -1.328042  3.426015
H    -1.755882  1.614878  2.755983
H    -2.274422  1.131150  4.363034
H    -3.947123  0.509401  1.836919
H    -3.998084  2.036646  2.767934
H    -5.387839  -0.364607  3.434475
H    -4.937389  0.797014  4.628614
O    2.370801  -1.490961  1.538095
H    1.610828  -0.852862  -0.045174
Hg    3.288991  -2.239755  3.943252
