25
Energy: -566923.315843 eV PBE+vdW (tier 2 basis)
N    0.852491  -0.492139  0.551998
C    0.670647  -0.720421  1.982580
C    1.786569  -1.637511  2.591121
O    2.459209  -2.430268  1.943443
H    1.329609  0.382401  0.320715
H    -0.008182  -0.576163  0.009483
H    0.789884  0.246348  2.502351
C    -0.703343  -1.350787  2.304043
C    -1.877304  -0.346182  2.427217
C    -2.305709  0.338530  1.135220
C    -3.606499  1.259064  1.304127
N    -4.804954  0.546126  1.505058
H    -0.635500  -1.898625  3.254285
H    -0.922997  -2.117885  1.543635
H    -1.631391  0.408725  3.190194
H    -2.715148  -0.929590  2.834898
H    -2.522760  -0.389611  0.338686
H    -1.547825  1.047641  0.763900
H    -3.678570  1.839821  0.372951
H    -3.426242  1.934857  2.151330
H    -5.366092  0.222709  0.721168
H    -5.190926  0.387582  2.431598
O    1.970979  -1.573824  3.892086
H    1.432602  -0.891184  4.339083
Hg    2.317667  -2.268640  -0.460891
