25
Energy: -566924.465436 eV PBE+vdW (tier 2 basis)
N    -0.843123  0.809659  1.041062
C    0.053655  -0.127764  1.739188
C    1.003378  -0.702119  0.676153
O    0.592307  -0.993164  -0.472686
H    -1.585949  1.132056  1.665117
H    -0.352152  1.639912  0.694433
H    0.636693  0.384133  2.521146
C    -0.739628  -1.336795  2.346034
C    -2.173226  -1.073502  2.894259
C    -3.367692  -1.755489  2.174336
C    -4.119388  -1.046233  1.035176
N    -3.639079  -1.353113  -0.377209
H    -0.112275  -1.747380  3.147231
H    -0.787661  -2.148645  1.598810
H    -2.381408  -0.000020  3.031278
H    -2.182378  -1.462661  3.919819
H    -4.136251  -1.906360  2.946147
H    -3.096901  -2.780565  1.869965
H    -4.110759  0.046252  1.144661
H    -5.173034  -1.361393  1.046266
H    -3.737130  -2.356787  -0.577490
H    -4.226839  -0.863171  -1.063951
O    2.250212  -0.958633  0.936476
H    2.539687  -0.670211  1.827108
Hg    -1.583500  -0.803703  -0.618084
