25
Energy: -566923.249134 eV PBE+vdW (tier 2 basis)
N    0.466985  0.738392  -0.126341
C    0.898686  0.282921  1.202147
C    2.373825  -0.211560  1.168496
O    3.157498  0.020112  0.252169
H    0.046058  -0.012277  -0.683113
H    -0.188767  1.522537  -0.082847
H    0.919776  1.173693  1.851447
C    -0.102967  -0.775818  1.778008
C    -0.533508  -0.592305  3.256426
C    0.467474  -1.029882  4.319895
C    -0.191063  -1.199258  5.760600
N    -0.614964  0.006389  6.360931
H    0.277366  -1.792491  1.595201
H    -1.026508  -0.696658  1.186408
H    -1.445402  -1.201701  3.355963
H    -0.848591  0.447816  3.433406
H    1.298717  -0.315665  4.448330
H    0.877650  -2.030853  4.099408
H    0.599069  -1.666187  6.375333
H    -1.036376  -1.892205  5.676481
H    -1.598814  0.200354  6.524059
H    0.045703  0.615663  6.836701
O    2.821862  -0.886313  2.205020
H    2.139262  -1.046139  2.891463
Hg    2.359955  1.436693  -1.533813
