25
Energy: -566923.792102 eV PBE+vdW (tier 2 basis)
N    0.664416  -0.113362  0.425698
C    -0.016258  -0.090264  1.708141
C    0.803191  0.396357  2.966943
O    2.022859  0.330000  3.033033
H    -0.104995  -1.646588  -1.021561
H    0.653100  0.838204  0.027179
H    -0.823117  0.663536  1.613186
C    -0.590449  -1.490771  2.023660
C    -1.809236  -1.826025  1.129411
C    -1.831847  -3.239768  0.528746
C    -0.671409  -3.592744  -0.395933
N    -0.454669  -2.524713  -1.461348
H    -0.868785  -1.569171  3.082829
H    0.230855  -2.212542  1.887218
H    -1.890268  -1.079604  0.321844
H    -2.731120  -1.698283  1.711036
H    -2.781249  -3.374989  -0.011572
H    -1.838482  -3.999846  1.324042
H    -0.855542  -4.536022  -0.922870
H    0.287892  -3.681844  0.128634
H    0.230298  -2.832477  -2.164520
H    -1.329600  -2.312753  -1.961877
O    0.124821  0.825307  4.006939
H    -0.839845  0.878243  3.857390
Hg    2.831562  -0.260136  0.813043
