25
Energy: -566923.413518 eV PBE+vdW (tier 2 basis)
N    0.405976  -0.031068  -0.002743
C    0.194717  0.032173  1.448323
C    1.547163  0.140620  2.207755
O    2.586471  -0.382264  1.819379
H    -0.286040  -0.615864  -0.478070
H    0.426525  0.889135  -0.452551
H    -0.370707  0.954754  1.673083
C    -0.588309  -1.217068  1.929412
C    -1.025057  -1.209316  3.404684
C    -1.902972  -2.435019  3.720256
C    -2.281623  -2.545871  5.214301
N    -3.256692  -1.611483  5.651628
H    0.020891  -2.111878  1.724038
H    -1.484152  -1.284327  1.291730
H    -1.589497  -0.289387  3.630575
H    -0.144313  -1.222490  4.064916
H    -1.367728  -3.358425  3.457588
H    -2.820457  -2.423976  3.112040
H    -1.406175  -2.489096  5.875982
H    -2.687812  -3.580621  5.344513
H    -3.264637  -1.285648  6.615889
H    -4.134108  -1.507002  5.144529
O    1.553740  0.776089  3.362691
H    0.704323  1.214564  3.565101
Hg    2.581687  -1.084913  -0.514040
