25
Energy: -566923.247214 eV PBE+vdW (tier 2 basis)
N    0.292388  -0.014711  0.222852
C    0.123914  -0.059553  1.678968
C    1.507088  -0.042662  2.397487
O    2.512719  -0.575846  1.937367
H    -0.449069  -0.509019  -0.278800
H    0.367891  0.936253  -0.150453
H    -0.400536  0.861224  1.992750
C    -0.680609  -1.315526  2.103360
C    -0.954554  -1.444785  3.607716
C    -1.828948  -2.652537  4.007194
C    -3.337344  -2.492080  3.731991
N    -3.724365  -2.657609  2.369607
H    -0.146960  -2.210832  1.743225
H    -1.639280  -1.272829  1.557204
H    -1.421714  -0.521672  3.989724
H    -0.007168  -1.566757  4.155242
H    -1.722118  -2.803168  5.089123
H    -1.455725  -3.576273  3.538125
H    -3.729945  -1.535073  4.103780
H    -3.842239  -3.278068  4.348178
H    -3.478021  -3.524074  1.892441
H    -4.591829  -2.232043  2.046511
O    1.583305  0.521401  3.583107
H    0.756118  0.961253  3.862108
Hg    2.394386  -1.157470  -0.408728
