25
Energy: -566923.457245 eV PBE+vdW (tier 2 basis)
N    0.804767  -0.540479  0.024298
C    0.974275  -0.502911  1.424546
C    2.086798  -1.570049  1.926368
O    3.098679  -1.127036  2.436373
H    0.345347  -1.332900  -0.418794
H    1.474807  -0.058218  -0.571137
H    1.421303  0.457066  1.707605
C    -0.319888  -0.756418  2.211606
C    -1.309770  0.437301  2.101186
C    -1.931945  0.612072  0.731292
C    -3.041520  1.798965  0.660016
N    -4.267683  1.455182  1.240629
H    -0.077817  -0.908819  3.272742
H    -0.806850  -1.682356  1.860079
H    -0.801874  1.361212  2.416559
H    -2.080856  0.234043  2.859401
H    -2.413487  -0.307141  0.369833
H    -1.197216  0.940437  -0.022581
H    -3.180361  2.005680  -0.408022
H    -2.599541  2.667582  1.168261
H    -4.456105  1.590900  2.230389
H    -5.013112  1.032438  0.692826
O    1.895576  -2.862646  1.761209
H    1.024604  -3.097228  1.386174
Hg    5.057727  -2.598809  3.246857
