25
Energy: -566923.221092 eV PBE+vdW (tier 2 basis)
N    0.967105  0.268667  0.600023
C    0.802147  -0.378395  1.911998
C    2.063661  -1.213792  2.282850
O    3.131178  -1.163661  1.678094
H    0.558504  -0.282408  -0.161776
H    0.567932  1.209825  0.571646
H    0.774284  0.427437  2.663118
C    -0.524479  -1.201176  1.931966
C    -1.181879  -1.569942  3.289409
C    -1.690967  -0.395168  4.123344
C    -2.573165  -0.911756  5.335954
N    -3.095157  0.135278  6.132138
H    -0.375416  -2.128690  1.357259
H    -1.262441  -0.606041  1.375575
H    -0.553028  -2.237085  3.908535
H    -2.028103  -2.217899  3.012151
H    -2.321105  0.267133  3.513123
H    -0.874093  0.210706  4.541518
H    -1.941605  -1.561420  5.961399
H    -3.404551  -1.499599  4.922313
H    -4.016017  0.529548  5.957710
H    -2.576784  0.521301  6.916949
O    1.990904  -1.988834  3.343993
H    1.091723  -2.008512  3.730726
Hg    3.321780  0.454625  -0.086662
