25
Energy: -566924.695354 eV PBE+vdW (tier 2 basis)
N    0.830875  -0.084457  0.077572
C    0.201725  -0.068800  1.462376
C    1.246075  -0.437720  2.516676
O    1.075057  -0.016547  3.669887
H    1.395810  -0.941745  -0.042040
H    0.112743  -0.057527  -0.662442
H    -0.150493  0.952323  1.648893
C    -0.971582  -1.087382  1.516272
C    -1.507886  -1.425200  2.932076
C    -0.824088  -2.646268  3.607162
C    -0.573254  -2.501689  5.122979
N    0.755305  -3.074804  5.561270
H    -0.662916  -2.014999  1.007506
H    -1.789615  -0.654142  0.922647
H    -2.580628  -1.627065  2.833658
H    -1.428911  -0.536101  3.572927
H    0.139364  -2.850879  3.103445
H    -1.412901  -3.552435  3.413226
H    -1.348013  -3.019020  5.708637
H    -0.570816  -1.449074  5.430286
H    0.937977  -2.872688  6.551525
H    0.791749  -4.095158  5.448532
O    2.121710  -1.330021  2.170189
H    1.458485  0.720739  -0.068661
Hg    2.259228  -2.136344  4.242400
