25
Energy: -566923.673132 eV PBE+vdW (tier 2 basis)
N    -0.687191  0.509263  0.334971
C    -0.353829  0.441797  1.823284
C    1.178090  0.749774  1.896968
O    1.668470  0.718281  3.072498
H    -0.927311  -0.413738  -0.047913
H    -1.451234  1.160293  0.118866
H    -0.861320  1.289036  2.306491
C    -0.740089  -0.884129  2.488398
C    -2.225618  -1.079362  2.835278
C    -3.184562  -1.370193  1.667998
C    -4.613430  -1.706814  2.156677
N    -4.703103  -2.938227  2.865560
H    -0.169490  -0.913133  3.427433
H    -0.355379  -1.723867  1.884366
H    -2.584043  -0.209561  3.408417
H    -2.271848  -1.931121  3.531099
H    -2.808805  -2.206810  1.055636
H    -3.295554  -0.504513  0.995696
H    -5.265737  -1.751850  1.252734
H    -5.023216  -0.905972  2.786868
H    -4.370096  -3.803452  2.444841
H    -5.368570  -3.047813  3.627019
O    1.766026  1.017630  0.834915
H    0.198168  0.839063  -0.124372
Hg    3.826158  1.309074  2.607182
