33
Energy: -38325.5011703 eV PBE+vdW (tier 2 basis)
C    1.303309  -1.175006  2.147454
C    0.022753  -0.422857  2.324362
O    -0.008648  0.577550  3.122733
H    2.034824  -0.498727  1.680651
H    1.198247  -2.067452  1.522146
H    1.711800  -1.456952  3.125975
N    -1.034077  -0.842461  1.635985
C    -2.381877  -0.331763  1.352322
C    -3.038513  0.620302  2.341082
O    -2.812260  0.616529  3.596351
H    -0.880452  -1.696010  1.080101
H    -2.316106  0.192556  0.384161
C    -3.312883  -1.585713  1.149618
C    -2.705180  -2.569943  0.180725
C    -2.767918  -2.340596  -1.202784
C    -2.036047  -3.711593  0.654125
C    -2.176127  -3.234387  -2.093145
C    -1.442865  -4.606258  -0.240856
C    -1.509288  -4.365495  -1.613262
H    -4.283059  -1.224161  0.783603
H    -3.481854  -2.053744  2.129444
H    -3.303918  -1.472343  -1.591979
H    -2.018910  -3.928008  1.724643
H    -2.246026  -3.056815  -3.165471
H    -0.947431  -5.500642  0.134890
H    -1.055824  -5.066810  -2.312347
N    -3.967841  1.411678  1.823778
C    -4.863150  2.280190  2.589453
H    -4.093194  1.395924  0.814013
H    -4.996297  1.875039  3.596230
H    -5.833408  2.315468  2.084073
H    -4.459402  3.299835  2.644968
Ca    -1.141376  1.168665  4.775958
