33
Energy: -38325.4434806 eV PBE+vdW (tier 2 basis)
C    -0.163687  1.696126  1.171672
C    -0.249639  0.483643  2.043660
O    0.740549  -0.325851  2.084582
H    0.127332  1.405738  0.154355
H    0.638697  2.340703  1.560020
H    -1.094087  2.272032  1.136837
N    -1.369954  0.308043  2.737739
C    -1.830002  -0.586998  3.809023
C    -1.153489  -1.926062  4.004643
O    -0.642247  -2.605773  3.048911
H    -2.105036  1.005547  2.556502
H    -1.731126  -0.018623  4.746486
C    -3.368362  -0.832799  3.570606
C    -4.108223  0.472594  3.412453
C    -4.445389  0.946976  2.133489
C    -4.438658  1.245904  4.536232
C    -5.102879  2.171138  1.983668
C    -5.094582  2.465963  4.384397
C    -5.423447  2.931897  3.108022
H    -3.759478  -1.402588  4.423122
H    -3.479239  -1.460779  2.675922
H    -4.236729  0.335083  1.253038
H    -4.205798  0.883722  5.539946
H    -5.381195  2.518907  0.989601
H    -5.362620  3.050235  5.263658
H    -5.943763  3.881793  2.993412
N    -1.185420  -2.456987  5.221790
C    -1.706547  -1.891637  6.472033
H    -0.846941  -3.417741  5.265480
H    -1.332967  -0.873442  6.629296
H    -1.350694  -2.516468  7.295851
H    -2.803573  -1.891605  6.484329
Ca    1.063190  -2.374690  1.819223
