33
Energy: -38325.4177514 eV PBE+vdW (tier 2 basis)
C    -0.645455  -0.106764  -0.234091
C    -0.356220  -0.179010  1.224557
O    0.713921  -0.735330  1.650968
H    0.151707  0.470321  -0.724712
H    -1.611267  0.357835  -0.456485
H    -0.616841  -1.116688  -0.664623
N    -1.216803  0.350932  2.097409
C    -0.945367  0.407631  3.535546
C    -0.959992  -1.014982  4.135520
O    0.182380  -1.480533  4.506232
H    -2.080026  0.785013  1.762159
H    0.110780  0.697491  3.637833
C    -1.725549  1.538776  4.262232
C    -3.224126  1.576932  4.125349
C    -4.044520  1.187093  5.191943
C    -3.826572  2.025707  2.936679
C    -5.433083  1.199332  5.059983
C    -5.216163  2.021381  2.796996
C    -6.020465  1.596881  3.856233
H    -1.288697  2.474426  3.880384
H    -1.439560  1.481711  5.321756
H    -3.594100  0.883907  6.138883
H    -3.218171  2.459803  2.136714
H    -6.060429  0.911630  5.902988
H    -5.671506  2.382388  1.875660
H    -7.104809  1.609101  3.755639
N    -2.022090  -1.791304  4.240113
C    -3.397070  -1.647514  3.754803
H    -1.813808  -2.689298  4.681845
H    -4.089996  -1.636508  4.602892
H    -3.624466  -2.510163  3.116096
H    -3.526556  -0.721295  3.194275
Ca    1.859918  -1.633902  3.201224
