33
Energy: -38325.1473114 eV PBE+vdW (tier 2 basis)
C    -0.730665  -0.778210  0.031423
C    -0.265239  -0.385645  1.391846
O    0.967305  -0.491062  1.709425
H    -0.397435  -0.048857  -0.722259
H    -1.815380  -0.899243  -0.037267
H    -0.242645  -1.729485  -0.222798
N    -1.133953  0.086105  2.312787
C    -2.110435  1.131461  2.005673
C    -1.314757  2.467084  1.872704
O    -0.028810  2.452036  1.841386
H    -0.751327  0.130098  3.259469
H    -2.538078  0.920902  1.014246
C    -3.256923  1.149952  3.045923
C    -4.394604  2.085591  2.693971
C    -4.681524  3.195086  3.506384
C    -5.188095  1.852413  1.558196
C    -5.733661  4.057512  3.185314
C    -6.234193  2.716111  1.237046
C    -6.506277  3.821872  2.047972
H    -2.849877  1.409717  4.034802
H    -3.623112  0.114910  3.112328
H    -4.096264  3.371104  4.411062
H    -5.012219  0.974442  0.932593
H    -5.956814  4.903652  3.833972
H    -6.850377  2.517555  0.361113
H    -7.330741  4.488926  1.800108
N    -1.990180  3.586357  1.774427
C    -1.398911  4.917732  1.625044
H    -3.011161  3.514349  1.893482
H    -0.756161  4.950968  0.738001
H    -0.810432  5.182002  2.512354
H    -2.212045  5.638182  1.506829
Ca    1.853625  1.454139  1.954878
