33
Energy: -38325.4095165 eV PBE+vdW (tier 2 basis)
C    0.317272  -1.784996  2.726614
C    -0.942755  -0.993375  2.749019
O    -1.335235  -0.410884  3.805974
H    0.550237  -2.200223  1.740767
H    0.239924  -2.603466  3.455988
H    1.146124  -1.144519  3.058168
N    -1.679171  -0.894335  1.609696
C    -2.880510  -0.077163  1.671516
C    -4.091057  -0.838477  2.249151
O    -4.419090  -0.564677  3.448785
H    -1.352243  -1.345339  0.759766
H    -2.591574  0.579830  2.489692
C    -3.231596  1.014477  0.628365
C    -3.965246  2.047643  1.478954
C    -5.354559  2.167863  1.468871
C    -3.235959  2.741953  2.474419
C    -6.016989  2.912073  2.455342
C    -3.896788  3.481157  3.466573
C    -5.299908  3.542852  3.471175
H    -3.848275  0.659014  -0.204259
H    -2.298532  1.421572  0.213168
H    -5.938288  1.664007  0.697440
H    -2.141565  2.775229  2.420457
H    -7.103114  2.992264  2.428215
H    -3.321583  4.081308  4.175686
H    -5.820279  4.125048  4.230630
N    -4.760435  -1.740798  1.554529
C    -4.515984  -2.223845  0.196592
H    -5.528337  -2.181899  2.064718
H    -3.722229  -1.648231  -0.285581
H    -5.430893  -2.123228  -0.399228
H    -4.227299  -3.281974  0.224698
Ca    -3.104064  0.702140  4.637097
