33
Energy: -38325.1810675 eV PBE+vdW (tier 2 basis)
C    -0.657953  0.111984  -0.332054
C    -0.659389  0.158523  1.157390
O    0.335924  0.659503  1.789867
H    -1.580234  -0.305419  -0.748730
H    0.192655  -0.498568  -0.667917
H    -0.506253  1.123126  -0.732581
N    -1.691074  -0.333804  1.835706
C    -1.733198  -0.500259  3.295755
C    -2.650088  -1.673181  3.736024
O    -2.210644  -2.428344  4.590399
H    -2.423391  -0.793936  1.296517
H    -0.739469  -0.849986  3.605212
C    -2.086033  0.803682  4.073621
C    -0.892520  1.575333  4.581320
C    -0.681808  2.928904  4.242517
C    0.034975  0.957599  5.453821
C    0.412131  3.646120  4.759354
C    1.128434  1.670469  5.972203
C    1.325972  3.018948  5.623649
H    -2.680155  0.512018  4.953326
H    -2.728374  1.447417  3.459738
H    -1.391030  3.436562  3.586953
H    -0.119809  -0.080146  5.758683
H    0.536457  4.699327  4.504415
H    1.810198  1.181131  6.668941
H    2.157737  3.581363  6.048213
N    -3.867182  -1.774113  3.145394
C    -4.810561  -2.831911  3.524570
H    -4.251267  -0.976820  2.646629
H    -5.507369  -3.000316  2.698052
H    -5.371000  -2.561162  4.428975
H    -4.248230  -3.748944  3.722896
Ca    1.516548  1.622900  3.218141
