33
Energy: -38325.0223362 eV PBE+vdW (tier 2 basis)
C    -0.358368  1.961070  0.173795
C    0.084003  0.992750  1.217595
O    1.317051  0.925089  1.544843
H    -0.471244  1.453506  -0.798001
H    0.410916  2.731533  0.059417
H    -1.318931  2.423144  0.422756
N    -0.783843  0.160461  1.839899
C    -1.784298  -0.679538  1.160087
C    -1.015701  -1.636442  0.201799
O    0.270408  -1.657348  0.200016
H    -0.369608  -0.287908  2.657623
H    -2.198468  -1.316522  1.956257
C    -2.989313  0.065139  0.527055
C    -4.153581  -0.859192  0.227781
C    -4.839180  -1.511474  1.265076
C    -4.569168  -1.067004  -1.098065
C    -5.906646  -2.361547  0.980635
C    -5.641389  -1.918836  -1.381176
C    -6.305983  -2.570797  -0.342776
H    -2.690721  0.581521  -0.393215
H    -3.292843  0.833592  1.253017
H    -4.563567  -1.334913  2.307315
H    -4.074016  -0.534496  -1.912935
H    -6.439756  -2.850950  1.794663
H    -5.964896  -2.057575  -2.412022
H    -7.145688  -3.229291  -0.560418
N    -1.713827  -2.437071  -0.567435
C    -1.148244  -3.429642  -1.483664
H    -2.737626  -2.315632  -0.548760
H    -1.975818  -3.942602  -1.979939
H    -0.551241  -4.163343  -0.929286
H    -0.519492  -2.944768  -2.240143
Ca    2.169268  -0.918254  0.831671
