33
Energy: -38324.9984848 eV PBE+vdW (tier 2 basis)
C    0.504226  0.695436  1.739389
C    -0.133270  -0.500781  2.359676
O    0.282472  -0.948395  3.483707
H    0.225533  1.612669  2.280520
H    0.260390  0.813836  0.679770
H    1.591829  0.589785  1.854914
N    -1.180836  -1.113901  1.773942
C    -2.288448  -0.407959  1.150372
C    -2.908578  0.528167  2.213097
O    -2.645266  0.359494  3.454272
H    -1.366035  -2.092141  2.025341
H    -1.936453  0.178756  0.289722
C    -3.356499  -1.448867  0.667706
C    -2.708955  -2.655713  0.042424
C    -2.154186  -2.593402  -1.243946
C    -2.614819  -3.851939  0.772388
C    -1.516446  -3.706702  -1.787201
C    -1.971689  -4.966176  0.227650
C    -1.418806  -4.891385  -1.050655
H    -4.027944  -0.937863  -0.035429
H    -3.969238  -1.754754  1.528964
H    -2.238855  -1.679946  -1.835875
H    -3.102406  -3.934892  1.747861
H    -1.103205  -3.656215  -2.793710
H    -1.923120  -5.896856  0.791451
H    -0.926067  -5.761157  -1.482852
N    -3.752050  1.458171  1.813229
C    -4.493884  2.359259  2.703632
H    -3.913885  1.550744  0.812746
H    -3.802509  3.022201  3.237315
H    -5.078235  1.780015  3.427328
H    -5.170743  2.963350  2.094467
Ca    -1.326317  -0.602064  4.869386
