33
Energy: -38325.5929075 eV PBE+vdW (tier 2 basis)
C    -0.655306  2.503013  1.650026
C    -1.114109  1.104544  1.409170
O    -0.833204  0.525477  0.309048
H    -1.226214  3.163086  0.979091
H    0.402761  2.602947  1.379819
H    -0.807084  2.840084  2.680466
N    -1.821848  0.495455  2.366262
C    -2.641314  -0.732087  2.300178
C    -1.820930  -2.017905  2.205683
O    -1.071331  -2.245751  1.195370
H    -2.011354  1.072737  3.181243
H    -3.173068  -0.738580  3.257241
C    -3.733389  -0.692597  1.187784
C    -4.556965  0.568533  1.264426
C    -5.543461  0.713289  2.250063
C    -4.323319  1.623628  0.372651
C    -6.277746  1.895073  2.344181
C    -5.061046  2.805078  0.463653
C    -6.034685  2.943727  1.453825
H    -4.358710  -1.588128  1.322206
H    -3.272276  -0.778329  0.192711
H    -5.763883  -0.109423  2.934131
H    -3.582586  1.512592  -0.422605
H    -7.052847  1.992187  3.103194
H    -4.887804  3.611260  -0.248333
H    -6.616520  3.861824  1.521959
N    -1.948647  -2.947275  3.137125
C    -2.748550  -2.918158  4.369473
H    -1.427632  -3.805061  2.950252
H    -2.497742  -3.809854  4.950344
H    -3.821995  -2.943504  4.144882
H    -2.506771  -2.038472  4.976596
Ca    -0.329425  -1.318412  -0.556116
