33
Energy: -38326.6794851 eV PBE+vdW (tier 2 basis)
C    0.806634  1.286432  0.658107
C    -0.312407  0.292989  0.665858
O    -0.720230  -0.208348  -0.413873
H    1.702213  0.804113  0.242093
H    1.046901  1.692812  1.645772
H    0.547293  2.110409  -0.019647
N    -0.846556  -0.026889  1.863604
C    -1.915185  -0.984737  2.233684
C    -1.598348  -2.418816  1.762134
O    -1.684573  -2.746060  0.545759
H    -0.424741  0.449132  2.655951
H    -1.874367  -0.988955  3.330563
C    -3.372181  -0.528621  1.908338
C    -3.854237  -0.592645  0.476183
C    -4.516564  -1.739726  -0.008856
C    -3.661814  0.485616  -0.409167
C    -4.913431  -1.834199  -1.350524
C    -4.052142  0.396908  -1.752775
C    -4.665348  -0.770787  -2.233608
H    -3.466895  0.500067  2.283077
H    -4.032590  -1.146578  2.533260
H    -4.717856  -2.572257  0.665941
H    -3.195159  1.402817  -0.050121
H    -5.432876  -2.726233  -1.700807
H    -3.895771  1.245009  -2.419156
H    -4.985933  -0.834281  -3.273331
N    -1.259753  -3.293420  2.702256
C    -0.940061  -4.701438  2.461968
H    -1.192938  -2.963759  3.661520
H    0.143332  -4.859865  2.536227
H    -1.281872  -4.982597  1.463343
H    -1.444857  -5.317156  3.214098
Ca    -2.064686  -1.647938  -1.319870
