33
Energy: -38325.1451811 eV PBE+vdW (tier 2 basis)
C    -1.020521  0.537934  -0.071095
C    -0.944100  0.347286  1.405842
O    0.180765  0.438389  2.012647
H    -0.386051  -0.214803  -0.560363
H    -0.614304  1.522580  -0.338570
H    -2.039560  0.453565  -0.462390
N    -2.047772  0.070780  2.090415
C    -2.114658  -0.195738  3.534258
C    -3.446832  -0.959566  3.860744
O    -4.229955  -0.473784  4.664388
H    -2.922528  0.032210  1.569247
H    -1.265409  -0.853982  3.777372
C    -2.060479  1.092767  4.385212
C    -0.705256  1.504300  4.881035
C    0.092679  0.630689  5.660265
C    -0.197199  2.800299  4.630661
C    1.338843  1.034173  6.165491
C    1.047533  3.211172  5.139054
C    1.829115  2.326458  5.901480
H    -2.730424  0.901369  5.243509
H    -2.531595  1.914818  3.832452
H    -0.280543  -0.363557  5.911634
H    -0.797105  3.506038  4.053860
H    1.915665  0.349693  6.788734
H    1.397203  4.227695  4.954040
H    2.782856  2.650194  6.318192
N    -3.665852  -2.130591  3.214107
C    -2.768458  -2.919226  2.375987
H    -4.563539  -2.548821  3.452221
H    -1.719627  -2.763891  2.656497
H    -2.892114  -2.699551  1.305620
H    -2.989726  -3.980803  2.528753
Ca    1.589950  1.123903  3.405702
