33
Energy: -38325.460113 eV PBE+vdW (tier 2 basis)
C    -1.009097  -3.369559  -0.169371
C    -0.999896  -2.093342  0.599449
O    -0.103226  -1.212857  0.382150
H    -0.042300  -3.876834  -0.049979
H    -1.114294  -3.134026  -1.238363
H    -1.814625  -4.048677  0.127600
N    -1.949019  -1.872961  1.516863
C    -2.147089  -0.599983  2.230841
C    -1.038840  -0.382067  3.290229
O    -0.018740  0.304989  2.920060
H    -2.660330  -2.591073  1.638904
H    -1.945576  0.196922  1.500846
C    -3.607803  -0.437679  2.683520
C    -3.825346  0.803655  3.525012
C    -4.548741  0.714862  4.721311
C    -3.351773  2.058911  3.114002
C    -4.779174  1.849636  5.500129
C    -3.577514  3.193215  3.893887
C    -4.286302  3.089535  5.092014
H    -3.947234  -1.322801  3.238230
H    -4.217352  -0.398292  1.765955
H    -4.969243  -0.243649  5.032408
H    -2.836536  2.174155  2.157307
H    -5.355593  1.766110  6.420586
H    -3.217244  4.164376  3.556669
H    -4.470008  3.976713  5.696233
N    -1.052264  -0.888756  4.506756
C    -2.035812  -1.741275  5.178091
H    -0.249382  -0.607797  5.071872
H    -1.512995  -2.302168  5.958668
H    -2.477052  -2.457329  4.480011
H    -2.820366  -1.129059  5.639034
Ca    1.098768  0.369106  1.122077
