33
Energy: -38325.0725294 eV PBE+vdW (tier 2 basis)
C    -0.617627  0.325118  -0.078817
C    -0.617018  0.286804  1.410712
O    0.379760  0.750712  2.069770
H    -1.541829  -0.065647  -0.516737
H    0.229978  -0.269082  -0.449858
H    -0.462429  1.356317  -0.422610
N    -1.649327  -0.241853  2.061701
C    -1.673873  -0.439298  3.515397
C    -2.444197  -1.679343  4.047228
O    -1.897881  -2.256774  4.980980
H    -2.420120  -0.601079  1.503171
H    -0.647373  -0.712468  3.786713
C    -2.071376  0.842967  4.314258
C    -0.888249  1.564807  4.911729
C    0.011010  0.871430  5.756951
C    -0.647582  2.932775  4.664649
C    1.110927  1.526879  6.333440
C    0.454138  3.591558  5.240060
C    1.342692  2.889842  6.072473
H    -2.728454  0.542201  5.143894
H    -2.655104  1.519452  3.678127
H    -0.171516  -0.182137  5.986270
H    -1.336116  3.495799  4.032516
H    1.773149  0.979709  7.005580
H    0.605088  4.655615  5.053907
H    2.182112  3.404904  6.539929
N    -3.646409  -2.034573  3.540010
C    -4.486282  -1.353411  2.561793
H    -4.028875  -2.869707  3.980340
H    -4.406601  -0.261949  2.646960
H    -5.533081  -1.604103  2.762473
H    -4.275369  -1.672126  1.527155
Ca    1.528834  1.644662  3.576839
