33
Energy: -38325.395882 eV PBE+vdW (tier 2 basis)
C    -0.672339  1.294610  0.037918
C    -0.424083  0.414782  1.217240
O    0.645742  -0.282652  1.281790
H    0.109110  2.068795  0.016413
H    -1.652580  1.781181  0.062698
H    -0.570876  0.716543  -0.889322
N    -1.331758  0.386746  2.191377
C    -1.215374  -0.185008  3.542892
C    -1.458330  -1.714487  3.545825
O    -0.650035  -2.409872  2.827246
H    -2.176275  0.956078  2.071422
H    -0.149365  -0.131594  3.822216
C    -1.975184  0.740109  4.514482
C    -3.319532  1.279496  4.055737
C    -3.722939  2.530570  4.547364
C    -4.185174  0.596474  3.181513
C    -4.957132  3.073133  4.196046
C    -5.419015  1.146633  2.819756
C    -5.808645  2.383457  3.329688
H    -1.311359  1.597368  4.695285
H    -2.053433  0.239741  5.490786
H    -3.065470  3.083558  5.219898
H    -3.924554  -0.382112  2.769197
H    -5.252987  4.041851  4.596526
H    -6.075301  0.601596  2.142437
H    -6.770691  2.811136  3.051472
N    -2.339279  -2.373945  4.276261
C    -3.376272  -1.976319  5.238919
H    -2.234060  -3.384681  4.166500
H    -3.858830  -1.040608  4.950726
H    -2.945800  -1.894688  6.245203
H    -4.131040  -2.768734  5.246253
Ca    1.110859  -2.297158  1.654236
