33
Energy: -38325.4274274 eV PBE+vdW (tier 2 basis)
C    0.307234  0.460216  0.101951
C    -0.240995  0.090680  1.438429
O    0.267282  0.609042  2.504994
H    -0.231578  -0.018548  -0.721382
H    1.364648  0.161960  0.058872
H    0.274759  1.550227  -0.026758
N    -1.233217  -0.769017  1.516509
C    -1.841267  -1.366306  2.698581
C    -2.589843  -2.603192  2.089860
O    -2.778940  -2.608191  0.872323
H    -1.645141  -1.221167  0.670718
H    -1.054236  -1.686940  3.397078
C    -2.864839  -0.433052  3.405466
C    -2.305165  0.597640  4.356493
C    -1.674222  0.210475  5.561404
C    -2.466025  1.979250  4.115559
C    -1.249222  1.163115  6.502305
C    -2.041494  2.938043  5.052289
C    -1.432826  2.535157  6.253432
H    -3.556463  -1.064049  3.982642
H    -3.472784  0.054527  2.632614
H    -1.554000  -0.849249  5.792482
H    -2.960748  2.309771  3.201103
H    -0.804770  0.833815  7.442365
H    -2.213269  3.997114  4.855735
H    -1.138916  3.274680  6.998510
N    -3.005740  -3.578206  2.915849
C    -2.780277  -3.727017  4.348007
H    -3.521367  -4.317630  2.441701
H    -2.854280  -4.788892  4.602524
H    -3.526933  -3.185424  4.947931
H    -1.771426  -3.399229  4.628956
Ca    0.304061  1.676393  4.267457
