33
Energy: -38325.4538526 eV PBE+vdW (tier 2 basis)
C    -0.692458  -3.431679  0.227375
C    -0.817436  -2.223138  1.088867
O    0.114859  -1.352892  1.126986
H    -0.586071  -3.109091  -0.818505
H    -1.548044  -4.109905  0.306821
H    0.227130  -3.973128  0.487311
N    -1.923582  -2.045207  1.821833
C    -2.207170  -0.813092  2.576721
C    -1.296661  -0.707522  3.822011
O    -0.262544  0.044662  3.723490
H    -2.666137  -2.736474  1.737527
H    -1.865954  0.020617  1.946032
C    -3.711157  -0.573910  2.804237
C    -3.930308  0.778401  3.451461
C    -4.346480  0.881389  4.783686
C    -3.711377  1.952941  2.715484
C    -4.526355  2.132491  5.376827
C    -3.890842  3.203041  3.306224
C    -4.292185  3.294248  4.641246
H    -4.166367  -1.369263  3.406882
H    -4.191341  -0.610107  1.813832
H    -4.576718  -0.018208  5.356764
H    -3.446141  1.896231  1.656306
H    -4.868803  2.198671  6.408711
H    -3.743745  4.108109  2.718028
H    -4.445052  4.270414  5.099311
N    -1.497749  -1.368892  4.945600
C    -2.521466  -2.350979  5.306795
H    -0.819256  -1.147128  5.676189
H    -2.884778  -2.885265  4.426271
H    -3.359377  -1.866420  5.821999
H    -2.065036  -3.079078  5.985490
Ca    1.129598  0.221165  2.131187
