33
Energy: -38325.6245008 eV PBE+vdW (tier 2 basis)
C    1.769294  1.350909  1.486788
C    0.441086  0.691391  1.314297
O    0.211312  -0.003087  0.271540
H    2.567530  0.603991  1.386775
H    1.879176  1.874359  2.441926
H    1.905389  2.072181  0.667445
N    -0.479256  0.855724  2.272226
C    -1.919876  0.514571  2.287917
C    -2.187455  -0.991326  2.387706
O    -1.752123  -1.785833  1.483553
H    -0.176035  1.424187  3.058870
H    -2.292464  0.985787  3.203617
C    -2.737564  1.132260  1.118654
C    -4.219731  1.003313  1.379762
C    -4.947854  -0.088230  0.888681
C    -4.875650  1.957728  2.170819
C    -6.302220  -0.234774  1.191530
C    -6.230389  1.815328  2.471805
C    -6.943419  0.715632  1.988651
H    -2.469325  0.660373  0.161596
H    -2.441392  2.187579  1.041432
H    -4.461857  -0.825078  0.243454
H    -4.332262  2.830941  2.537658
H    -6.862554  -1.078840  0.791318
H    -6.733851  2.571799  3.072405
H    -8.003189  0.609899  2.216413
N    -2.921396  -1.474166  3.370569
C    -3.609151  -0.769427  4.459848
H    -3.102764  -2.476469  3.298044
H    -4.513413  -0.274648  4.083774
H    -2.949113  -0.037193  4.936270
H    -3.888815  -1.511951  5.212340
Ca    -0.681671  -1.805926  -0.336684
