33
Energy: -38325.5243623 eV PBE+vdW (tier 2 basis)
C    -2.932208  -1.839813  0.575409
C    -1.873841  -1.359774  1.506516
O    -0.643440  -1.379981  1.157213
H    -2.733223  -2.885432  0.303042
H    -2.880542  -1.253491  -0.352831
H    -3.939043  -1.760446  0.997008
N    -2.220635  -0.901783  2.710427
C    -1.291687  -0.222042  3.623277
C    -0.226147  -1.197503  4.156553
O    0.945371  -1.135167  3.635264
H    -3.215923  -0.720395  2.890649
H    -0.717229  0.500224  3.022150
C    -2.069393  0.602246  4.687976
C    -3.200002  1.367903  4.043149
C    -2.963546  2.564488  3.352861
C    -4.504679  0.847249  4.081730
C    -4.010977  3.227164  2.713748
C    -5.552663  1.510367  3.436837
C    -5.304280  2.697987  2.748649
H    -1.345519  1.276009  5.165795
H    -2.469141  -0.045775  5.474612
H    -1.962730  3.001072  3.340700
H    -4.718602  -0.050050  4.669071
H    -3.822501  4.168968  2.199798
H    -6.564484  1.110841  3.493480
H    -6.121273  3.224035  2.256794
N    -0.452975  -2.086537  5.107497
C    -1.690523  -2.447132  5.807519
H    0.378197  -2.614542  5.378634
H    -1.645028  -3.517084  6.036054
H    -2.564211  -2.267763  5.176545
H    -1.782191  -1.892276  6.749478
Ca    1.423068  -1.236565  1.563398
