33
Energy: -38325.0232772 eV PBE+vdW (tier 2 basis)
C    -0.217210  1.844677  0.799548
C    0.045910  0.828748  1.858591
O    1.219525  0.705713  2.348130
H    -1.185390  2.337277  0.934537
H    -0.216883  1.371199  -0.195652
H    0.587371  2.586807  0.815818
N    -0.924970  0.009681  2.327206
C    -1.852998  -0.768724  1.490589
C    -0.997223  -1.728316  0.608497
O    0.277035  -1.790925  0.775604
H    -0.641348  -0.478281  3.177306
H    -2.392673  -1.412476  2.201521
C    -2.934037  0.044531  0.730870
C    -4.082665  -0.818264  0.244838
C    -4.920171  -1.482370  1.155712
C    -4.332335  -0.952946  -1.131039
C    -5.973977  -2.272436  0.699195
C    -5.390866  -1.744433  -1.586842
C    -6.207871  -2.408889  -0.672398
H    -2.495685  0.576787  -0.121897
H    -3.303124  0.801895  1.437947
H    -4.774413  -1.361230  2.231575
H    -3.715531  -0.410646  -1.850886
H    -6.625375  -2.771372  1.415516
H    -5.584182  -1.826673  -2.655667
H    -7.037205  -3.020368  -1.025094
N    -1.627909  -2.476799  -0.264978
C    -1.032254  -3.475835  -1.149850
H    -2.642618  -2.309883  -0.354058
H    -1.362600  -3.283672  -2.177036
H    -1.369916  -4.476531  -0.852015
H    0.056925  -3.423714  -1.096388
Ca    2.093663  -1.146534  1.686798
