33
Energy: -38325.1479617 eV PBE+vdW (tier 2 basis)
C    -0.768035  -0.893766  0.196260
C    -0.269560  -0.427017  1.521025
O    0.968949  -0.522815  1.817276
H    -0.457765  -0.204037  -0.603315
H    -1.853830  -1.020378  0.162462
H    -0.282920  -1.855692  -0.020028
N    -1.113656  0.105337  2.431674
C    -2.094230  1.134126  2.087706
C    -1.299685  2.455318  1.835035
O    -0.013639  2.432383  1.796744
H    -0.710064  0.201580  3.365639
H    -2.560475  0.858398  1.130408
C    -3.197777  1.229540  3.170039
C    -4.337001  2.162390  2.816595
C    -4.580800  3.310638  3.587700
C    -5.175556  1.888205  1.722684
C    -5.635294  4.169963  3.268304
C    -6.224195  2.749587  1.402233
C    -6.453610  3.893164  2.172614
H    -2.745651  1.537950  4.124889
H    -3.574179  0.205485  3.310146
H    -3.957082  3.521442  4.458494
H    -5.032675  0.981197  1.131002
H    -5.824355  5.047441  3.885390
H    -6.875269  2.519664  0.559846
H    -7.279925  4.558507  1.926278
N    -1.990489  3.554344  1.649184
C    -1.457699  4.889420  1.386315
H    -3.009614  3.468048  1.778974
H    -1.804879  5.575190  2.168367
H    -1.828967  5.242904  0.416682
H    -0.366467  4.862553  1.376119
Ca    1.863395  1.430930  1.941259
