33
Energy: -38325.7312029 eV PBE+vdW (tier 2 basis)
C    0.871640  2.465336  1.559817
C    0.304049  1.088617  1.467023
O    0.892075  0.112334  2.040170
H    0.856885  2.772123  2.616372
H    0.320423  3.204330  0.969426
H    1.923535  2.457691  1.247058
N    -0.831847  0.905512  0.787327
C    -1.687677  -0.297828  0.754208
C    -1.116307  -1.351931  -0.220996
O    0.035200  -1.854130  0.036716
H    -1.233791  1.733334  0.351138
H    -1.620166  -0.770620  1.747591
C    -3.137506  0.183256  0.518852
C    -4.172005  -0.910775  0.368742
C    -4.384923  -1.858799  1.379464
C    -4.936628  -0.984184  -0.806474
C    -5.332665  -2.867803  1.210449
C    -5.886277  -1.996459  -0.974303
C    -6.079449  -2.942862  0.031365
H    -3.159828  0.826591  -0.375945
H    -3.390941  0.831133  1.372562
H    -3.836256  -1.796198  2.321684
H    -4.823846  -0.219547  -1.579746
H    -5.502604  -3.589659  2.008421
H    -6.485733  -2.030993  -1.883119
H    -6.824695  -3.727241  -0.092552
N    -1.817225  -1.731050  -1.262923
C    -1.417388  -2.745683  -2.236230
H    -2.790586  -1.401808  -1.311085
H    -1.949635  -3.684119  -2.032439
H    -0.339729  -2.911934  -2.180335
H    -1.687413  -2.396314  -3.238674
Ca    1.550311  -1.820320  1.507436
