20
Energy: -33558.6890124 eV PBE+vdW (tier 2 basis)
N    0.962668  -0.595225  -0.124895
C    0.218572  -0.201734  1.043353
C    1.112487  -0.320390  2.273225
O    2.152803  -1.043855  2.287329
H    1.040666  -1.603693  -0.249612
H    0.598918  -0.179014  -0.979407
H    0.015439  0.878775  0.950167
C    -1.147498  -0.944513  1.225788
C    -2.021497  -0.677990  2.489345
C    -2.305312  0.758266  2.755336
O    -1.430279  1.580132  3.207507
O    -3.495305  1.193234  2.510205
H    -0.964325  -2.027869  1.204141
H    -1.735931  -0.709329  0.329154
H    -1.534249  -1.084219  3.388586
H    -2.978151  -1.199710  2.367975
O    0.839917  0.369274  3.360057
H    -0.501850  1.131737  3.327764
H    -3.600986  2.151643  2.712586
Ca    2.859612  -0.253825  4.159146
