20
Energy: -33558.3486837 eV PBE+vdW (tier 2 basis)
N    -0.543737  0.314792  0.111643
C    -0.276118  0.054134  1.495024
C    1.174290  -0.255748  1.870229
O    1.621331  -0.154976  3.056498
H    -0.376329  -0.476427  -0.507618
H    -0.074779  1.140075  -0.255091
H    -0.496852  0.977550  2.058991
C    -1.250451  -1.058701  1.987495
C    -1.170820  -1.572156  3.447024
C    -1.173321  -0.499309  4.510225
O    -2.203694  -0.436321  5.331459
O    -0.237317  0.309652  4.642979
H    -1.127786  -1.935750  1.336100
H    -2.250725  -0.658667  1.779092
H    -0.250349  -2.158533  3.599401
H    -2.010196  -2.256434  3.611805
O    1.978185  -0.603120  0.915052
H    2.891572  -0.758739  1.245904
H    0.838252  0.094960  3.769104
Ca    -3.250798  0.126961  6.926227
