20
Energy: -33558.6663278 eV PBE+vdW (tier 2 basis)
N    -0.865755  0.810041  0.308784
C    -0.598843  0.185637  1.579832
C    0.783332  0.537658  2.207837
O    1.673731  -0.326643  2.424713
H    -1.270713  1.740945  0.390327
H    -0.071248  0.848978  -0.328785
H    -1.367021  0.512503  2.297531
C    -0.560178  -1.340701  1.485882
C    -1.646662  -2.256726  0.947565
C    -1.058824  -3.663075  1.011720
O    0.099999  -3.857542  1.453043
O    -1.734060  -4.705785  0.616465
H    -0.369837  -1.683514  2.521510
H    0.311215  -1.538293  0.829678
H    -1.923023  -2.008850  -0.089223
H    -2.573976  -2.220493  1.540623
O    0.963895  1.807666  2.434990
H    1.860350  1.998787  2.789955
H    -2.628640  -4.492980  0.279468
Ca    1.750753  -2.596096  2.266953
