20
Energy: -33558.2974831 eV PBE+vdW (tier 2 basis)
N    0.509021  -0.791312  -0.585035
C    0.162057  -0.458980  0.846835
C    1.471043  -0.234424  1.600802
O    2.551787  -0.099252  0.975686
H    -0.238534  -0.415519  -1.180262
H    0.402589  -1.810166  -0.690347
H    -0.334731  0.528291  0.840756
C    -0.793268  -1.489111  1.474041
C    -1.428140  -1.092906  2.814769
C    -2.833267  -1.721349  2.923296
O    -3.437760  -2.145583  1.966913
O    -3.257093  -1.692399  4.190362
H    -0.284098  -2.461502  1.564437
H    -1.633075  -1.636318  0.774102
H    -0.858200  -1.424665  3.698574
H    -1.587377  -0.003486  2.898213
O    1.498975  -0.138646  2.892366
H    0.615971  -0.293206  3.305087
H    -4.163482  -2.063139  4.230420
Ca    2.808396  -0.157757  -1.130669
