20
Energy: -33558.3222656 eV PBE+vdW (tier 2 basis)
N    0.031514  -0.311693  -0.121471
C    0.198962  -0.063222  1.357717
C    1.387050  -0.826621  1.949633
O    1.794987  -0.633576  3.054442
H    -0.475068  0.467290  -0.565073
H    0.927227  -0.440319  -0.609553
H    0.377418  1.004935  1.533656
C    -1.146146  -0.548698  1.924400
C    -1.435068  -1.837513  1.143080
C    -0.933698  -1.611236  -0.295459
O    -1.815856  -1.382051  -1.253835
O    -0.077540  -2.685918  -0.811239
H    -1.917474  0.211995  1.741591
H    -1.087010  -0.703159  3.006827
H    -2.503329  -2.075753  1.111692
H    -0.913065  -2.692600  1.593956
O    1.897350  -1.767460  1.073471
H    2.679446  -2.170698  1.508807
H    0.643867  -2.920045  -0.187880
Ca    -1.569146  -2.970672  -2.564303
