20
Energy: -33558.7714994 eV PBE+vdW (tier 2 basis)
N    0.220046  0.655002  0.617421
C    0.261218  -0.011505  1.958952
C    1.694276  0.128368  2.483845
O    2.405172  1.066854  2.055109
H    0.515398  -0.052457  -0.071376
H    -0.823833  0.729309  0.424961
H    -0.317643  0.634792  2.647518
C    -0.382394  -1.414461  1.972520
C    -1.912062  -1.452286  2.146379
C    -2.763009  -0.710437  1.131039
O    -2.409390  0.270826  0.474607
O    -3.982984  -1.220361  1.066384
H    0.018671  -2.011409  2.807844
H    -0.078748  -1.955798  1.062997
H    -2.193880  -1.040482  3.130787
H    -2.242285  -2.498782  2.170468
O    2.192829  -0.633584  3.410408
H    1.593768  -1.356890  3.689415
H    -4.534438  -0.690322  0.452332
Ca    1.779810  2.441121  0.517799
