20
Energy: -33559.9699637 eV PBE+vdW (tier 2 basis)
N    1.266792  -0.862590  0.488436
C    0.394914  -0.084615  1.422450
C    1.333659  0.571928  2.428085
O    2.373768  -0.004690  2.800443
H    0.677436  -1.441069  -0.117795
H    1.701581  -0.196274  -0.161362
H    -0.168198  0.686891  0.880367
C    -0.606525  -0.945172  2.273883
C    -1.105935  -2.282669  1.706941
C    -0.148008  -3.440597  1.889488
O    1.055358  -3.274812  2.169383
O    -0.562590  -4.673672  1.741131
H    -1.478801  -0.305549  2.454037
H    -0.178825  -1.146002  3.266546
H    -1.380103  -2.230000  0.638233
H    -2.050349  -2.536837  2.214459
O    0.923669  1.721222  2.887258
H    1.527358  2.077634  3.577690
H    -1.520094  -4.750026  1.552261
Ca    2.841893  -2.050099  1.974068
