20
Energy: -33558.3006647 eV PBE+vdW (tier 2 basis)
N    0.989107  0.304863  0.792007
C    0.112446  -0.285030  1.872550
C    0.868026  -0.180045  3.197782
O    1.892760  0.540343  3.288208
H    0.375463  0.739852  0.093525
H    1.407071  -0.485159  0.281491
H    -0.752725  0.392942  1.992421
C    -0.403924  -1.693047  1.568644
C    -1.414232  -1.782248  0.416800
C    -2.569863  -2.706055  0.828433
O    -2.777473  -3.029928  1.978781
O    -3.300118  -3.058748  -0.232157
H    -0.956671  -2.084769  2.446010
H    0.445348  -2.377109  1.414637
H    -0.973846  -2.145399  -0.519812
H    -1.874417  -0.806348  0.188899
O    0.456215  -0.782650  4.267392
H    -0.330399  -1.353364  4.120136
H    -4.044794  -3.620368  0.068553
Ca    2.774901  1.692532  1.742682
