20
Energy: -33558.6427629 eV PBE+vdW (tier 2 basis)
N    0.392442  -0.932301  0.250847
C    -0.012694  -0.229267  1.469844
C    1.015823  -0.541308  2.542640
O    1.258686  -1.721435  2.939449
H    -0.256101  -0.704989  -0.505799
H    1.309768  -0.617149  -0.073604
H    -0.038365  0.872519  1.369381
C    -1.432073  -0.689521  1.961288
C    -2.037430  -1.936848  1.304322
C    -1.401955  -3.288333  1.440404
O    -1.973436  -4.293417  0.900524
O    -0.305734  -3.525736  2.111335
H    -2.126025  0.133916  1.751330
H    -1.438181  -0.794666  3.055413
H    -2.206079  -1.801133  0.224822
H    -3.059564  -2.063976  1.701456
O    1.708251  0.377428  3.134356
H    1.514418  1.277721  2.800015
H    0.616507  -2.430951  2.521745
Ca    -0.550296  -5.717042  1.635533
