20
Energy: -33559.3422675 eV PBE+vdW (tier 2 basis)
N    -0.894042  0.835443  0.398810
C    -0.072397  -0.037305  1.323141
C    1.314804  0.685315  1.293113
O    1.403369  1.731752  0.675915
H    -1.756745  1.194907  0.821932
H    -1.132530  0.376129  -0.488442
H    -0.493597  0.088044  2.330714
C    -0.065266  -1.530176  0.908557
C    -0.335725  -2.562324  2.017657
C    0.766308  -2.921700  2.979276
O    1.837895  -2.203517  3.127107
O    0.652842  -3.977936  3.688130
H    0.867585  -1.769791  0.379064
H    -0.864352  -1.684799  0.169846
H    -0.643992  -3.513872  1.559084
H    -1.202469  -2.274378  2.638058
O    2.316983  0.141868  1.943594
H    2.083870  -0.730555  2.368320
H    -0.200920  1.635665  0.202767
Ca    2.585381  -3.713770  4.606356
