20
Energy: -33558.6199401 eV PBE+vdW (tier 2 basis)
N    -0.730403  0.105617  -0.011648
C    -0.227864  0.211524  1.351174
C    1.298293  -0.017516  1.333685
O    1.854812  -0.973724  1.923413
H    -1.698843  0.425445  -0.066466
H    -0.201869  0.694303  -0.658046
H    -0.392205  1.189882  1.849848
C    -0.748802  -0.935559  2.215908
C    -2.194402  -1.254390  2.572146
C    -2.135986  -2.543981  3.388659
O    -1.041676  -3.111500  3.617168
O    -3.213038  -3.095945  3.872539
H    -0.228699  -0.821747  3.186627
H    -0.408152  -1.826234  1.651254
H    -2.821139  -1.423365  1.682189
H    -2.679866  -0.465907  3.168183
O    1.954414  0.867113  0.639131
H    2.921525  0.689984  0.625972
H    -4.037334  -2.610830  3.662318
Ca    1.097151  -2.764056  3.109284
