20
Energy: -33557.6804471 eV PBE+vdW (tier 2 basis)
N    1.260691  -1.242113  0.087461
C    0.838769  -0.084390  0.867588
C    1.939559  0.237737  1.888251
O    2.914433  -0.463186  2.050820
H    1.070283  -1.163564  -0.910245
H    2.252900  -1.442125  0.249801
H    0.679815  0.811143  0.250264
C    -0.503095  -0.438348  1.587104
C    -0.359904  -1.889633  2.060967
C    -1.520816  -2.727016  2.204072
O    -1.529137  -3.774060  2.966211
O    -2.641798  -2.559164  1.537217
H    -1.307004  -0.334966  0.837713
H    -0.725779  0.261396  2.400678
H    0.305162  -2.014339  2.924216
H    0.275707  -2.281228  1.149264
O    1.661740  1.364446  2.561611
H    2.403112  1.552744  3.173229
H    -2.616527  -1.740861  0.997806
Ca    -1.998415  -5.447495  3.962211
