20
Energy: -33558.1759594 eV PBE+vdW (tier 2 basis)
N    -0.291714  -0.244980  0.063925
C    -0.301844  0.216018  1.513803
C    1.095601  0.637552  1.984367
O    1.287371  1.072180  3.085245
H    0.568473  -0.776382  -0.137662
H    -0.315013  0.544380  -0.595173
H    -0.950816  1.101984  1.552090
C    -0.890931  -0.889306  2.414224
C    -2.258829  -1.308975  1.952900
C    -2.839559  -2.519616  2.095816
O    -4.043163  -2.898021  1.762640
O    -2.198326  -3.658036  2.704484
H    -0.900473  -0.452724  3.426038
H    -0.178618  -1.731993  2.448276
H    -1.122567  -0.845155  -0.094024
H    -2.948500  -0.536757  1.604058
O    2.022790  0.423350  1.018371
H    2.902213  0.701861  1.351200
H    -1.383300  -3.444391  3.191002
Ca    -4.255468  -4.769394  2.580956
