20
Energy: -33558.2985088 eV PBE+vdW (tier 2 basis)
N    0.037474  -1.224651  0.323790
C    -0.269641  -0.457623  1.600561
C    1.017724  0.129695  2.211899
O    1.077614  0.492542  3.351573
H    -0.583595  -0.962513  -0.450670
H    1.013718  -1.028558  0.041490
H    -0.923641  0.390409  1.357896
C    -0.940108  -1.489005  2.518588
C    -0.246495  -2.803584  2.152444
C    -0.091541  -2.794481  0.633053
O    0.887383  -3.465495  0.054342
O    -1.324570  -3.231266  -0.084796
H    -2.024388  -1.521560  2.337751
H    -0.799444  -1.207274  3.567843
H    -0.780392  -3.699414  2.493188
H    0.766930  -2.850253  2.577868
O    2.007660  0.189971  1.285088
H    2.797164  0.614913  1.681594
H    -2.144218  -3.110143  0.430663
Ca    -0.023242  -4.907460  -1.108746
