20
Energy: -33558.7199005 eV PBE+vdW (tier 2 basis)
N    0.386268  0.093509  -0.424361
C    -0.200794  0.190360  0.894479
C    0.975602  0.447311  1.896724
O    0.912392  0.141990  3.115417
H    0.675239  -0.844417  -0.703269
H    -0.179829  0.506951  -1.162675
H    -0.819806  1.103039  0.919634
C    -0.969263  -0.954653  1.570374
C    -2.304083  -1.596235  1.218170
C    -2.715550  -2.381963  2.469248
O    -2.049776  -2.317490  3.528232
O    -3.776804  -3.140243  2.470497
H    -1.200677  -0.462707  2.526198
H    -0.249965  -1.779400  1.734265
H    -2.254347  -2.278226  0.356418
H    -3.089999  -0.855914  0.996709
O    2.039718  0.945150  1.374134
H    1.843288  0.960097  0.376730
H    -4.258071  -3.151951  1.617723
Ca    -0.215602  -1.304971  4.349643
