20
Energy: -33558.7704144 eV PBE+vdW (tier 2 basis)
N    0.304749  -0.343551  0.098855
C    0.015125  -0.254397  1.537435
C    1.281061  -0.617527  2.279882
O    1.856347  -1.749473  2.195451
H    -0.526988  -0.059992  -0.424143
H    1.024264  0.334484  -0.165135
H    -0.253847  0.755443  1.885648
C    -1.128250  -1.242273  1.957886
C    -1.552737  -2.295725  0.927398
C    -0.585445  -3.305132  0.390929
O    -0.968933  -4.093731  -0.535549
O    0.630927  -3.483396  0.844760
H    -2.018261  -0.634966  2.163750
H    -0.885353  -1.721542  2.916668
H    -2.029871  -1.847645  0.043041
H    -2.365854  -2.896439  1.373532
O    1.780895  0.293008  3.047444
H    2.588440  -0.011088  3.522841
H    1.320411  -2.439969  1.603829
Ca    0.853825  -5.208801  -0.596963
