20
Energy: -33559.0752088 eV PBE+vdW (tier 2 basis)
N    -0.274543  -0.093212  -0.123417
C    -0.128019  -0.026821  1.382654
C    1.326395  0.259710  1.803143
O    1.676905  0.224125  2.950842
H    0.436482  -0.712859  -0.532937
H    -0.150041  0.827068  -0.562439
H    -0.716757  0.844937  1.706966
C    -0.656237  -1.305222  2.050458
C    -2.171942  -1.411850  2.279621
C    -3.056811  -1.529163  1.057254
O    -4.283284  -2.002122  1.289816
O    -2.723666  -1.204553  -0.081275
H    -0.175872  -1.339036  3.037561
H    -0.284964  -2.188105  1.506345
H    -2.538864  -0.539941  2.849721
H    -2.373031  -2.274229  2.930257
O    2.094282  0.561936  0.731658
H    3.001738  0.764960  1.042309
H    -1.243504  -0.485625  -0.322440
Ca    -6.126625  -2.640539  0.995286
