20
Energy: -33557.1323738 eV PBE+vdW (tier 2 basis)
N    0.118421  -0.500591  -0.102327
C    -0.180995  -0.078768  1.227148
C    1.147399  0.204408  1.951597
O    2.229498  0.012168  1.463084
H    -0.512092  -0.226147  -0.846541
H    1.106952  -0.450595  -0.347340
H    -0.768761  0.866368  1.268590
C    -1.022431  -1.200964  1.903101
C    -1.544366  -0.902112  3.342086
C    -2.471313  0.221719  3.490551
O    -2.398334  1.178003  4.303196
O    -3.647133  0.299410  2.758020
H    -0.427799  -2.122889  1.955914
H    -1.860508  -1.434220  1.226863
H    -0.723276  -0.734821  4.047403
H    -2.093437  -1.807505  3.664745
O    0.943923  0.710692  3.198574
H    1.828745  0.872757  3.587768
H    -3.774673  -0.427482  2.114182
Ca    -4.235044  2.270187  4.113678
