20
Energy: -33558.1661463 eV PBE+vdW (tier 2 basis)
N    0.274010  0.333516  0.265649
C    0.025037  0.150023  1.737468
C    1.372830  0.123225  2.437224
O    2.406883  -0.188839  1.795787
H    0.181649  1.331911  0.039527
H    -0.513778  -0.102234  -0.231693
H    -0.585225  0.980300  2.127840
C    -0.701800  -1.194130  2.013707
C    -2.152023  -1.214363  1.512073
C    -2.815716  -2.579153  1.724604
O    -3.865966  -2.734117  2.285569
O    -2.058383  -3.568071  1.178646
H    -0.693561  -1.378428  3.098119
H    -0.124602  -2.017760  1.562203
H    -2.223945  -1.002838  0.431009
H    -2.765393  -0.471379  2.035411
O    1.498863  0.348911  3.710953
H    0.669751  0.608588  4.164264
H    -2.534092  -4.413441  1.316184
Ca    2.523497  -0.466514  -0.307090
