20
Energy: -33560.2768158 eV PBE+vdW (tier 2 basis)
N    -1.142219  0.942029  0.995179
C    -0.646536  0.263640  2.265284
C    0.871520  0.445399  2.292472
O    1.458597  0.642574  1.171524
H    -0.348263  0.937357  0.321670
H    -1.395137  1.925902  1.165219
H    -1.116225  0.765178  3.119535
C    -0.999351  -1.240013  2.301522
C    -0.255337  -2.184785  1.309777
C    0.989097  -2.836031  1.876865
O    2.113737  -2.300770  1.932883
O    0.772106  -4.053785  2.312401
H    -2.080750  -1.340891  2.129224
H    -0.845919  -1.569371  3.337672
H    -0.940600  -2.992706  1.029858
H    0.037691  -1.668640  0.384684
O    1.490417  0.227410  3.368390
H    -1.962512  0.477702  0.582314
H    1.590836  -4.462297  2.669874
Ca    3.256849  -0.401904  2.135654
