20
Energy: -33559.8613561 eV PBE+vdW (tier 2 basis)
N    0.930016  -0.770460  0.723630
C    -0.208007  -0.056928  1.380520
C    0.376113  1.070704  2.236647
O    1.545352  1.017554  2.643231
H    1.126743  -0.305087  -0.170065
H    0.614916  -1.708479  0.455770
H    -0.856854  0.387091  0.608085
C    -1.128338  -0.986414  2.226869
C    -0.756490  -1.387891  3.675652
C    0.423705  -2.314019  3.855748
O    1.542487  -2.059127  3.370064
O    0.320828  -3.410616  4.562932
H    -1.330381  -1.884354  1.623747
H    -2.100447  -0.480296  2.304105
H    -1.654564  -1.832491  4.125337
H    -0.534683  -0.495785  4.287118
O    -0.368072  2.085340  2.602649
H    -1.255529  2.102867  2.191360
H    -0.574408  -3.563236  4.926388
Ca    2.859613  -0.738372  2.283214
