20
Energy: -33557.7903035 eV PBE+vdW (tier 2 basis)
N    0.631132  -0.204724  -0.204484
C    0.058496  -0.040049  1.109487
C    1.193896  -0.062587  2.127830
O    2.245527  -0.747254  1.929238
H    0.929047  -1.158211  -0.408243
H    0.008746  0.117392  -0.943361
H    -0.364296  0.977415  1.155263
C    -1.066737  -1.061815  1.470502
C    -1.800763  -0.918580  2.836984
C    -2.456063  0.392664  3.001121
O    -3.427927  0.965200  2.755806
O    -1.304011  1.382007  3.894815
H    -0.659015  -2.082391  1.443502
H    -1.806996  -0.996030  0.662080
H    -1.142387  -1.104813  3.693620
H    -2.618585  -1.655224  2.872846
O    1.127932  0.648912  3.224842
H    -0.329475  1.241072  3.634569
H    -1.558743  2.325603  3.849376
Ca    3.304064  0.146248  3.574584
