20
Energy: -33559.2616039 eV PBE+vdW (tier 2 basis)
N    0.307476  0.559839  0.260038
C    0.187242  0.025075  1.665892
C    1.539064  -0.654901  1.944593
O    2.432503  -0.656560  1.121862
H    0.007862  1.536206  0.178665
H    1.314877  0.469336  0.004428
H    0.108372  0.884609  2.346209
C    -1.047723  -0.867867  1.875786
C    -1.075033  -2.257251  1.212642
C    -1.310394  -2.287956  -0.282798
O    -1.767370  -3.444751  -0.765282
O    -1.096761  -1.341488  -1.038282
H    -1.944091  -0.296443  1.593419
H    -1.125214  -1.022294  2.959897
H    -1.857076  -2.861879  1.691556
H    -0.140533  -2.814319  1.401014
O    1.574989  -1.197386  3.159436
H    2.469767  -1.562815  3.324729
H    -0.262744  -0.054999  -0.392295
Ca    -2.429406  -4.687757  -2.152644
