20
Energy: -33558.3342856 eV PBE+vdW (tier 2 basis)
N    -0.582317  -0.919898  0.054884
C    -0.127314  -0.083123  1.246939
C    1.377459  0.222995  1.143421
O    1.979510  0.757328  2.032686
H    -0.198697  -1.875072  0.104921
H    -0.241513  -0.511732  -0.828469
H    -0.658603  0.875162  1.152775
C    -0.483878  -0.759080  2.581708
C    -1.947237  -0.826630  2.918601
C    -2.460435  -0.069427  3.908473
O    -1.901406  0.845813  4.656214
O    -3.825568  -0.193536  4.350499
H    0.048329  -0.174959  3.344305
H    -0.031924  -1.765786  2.603950
H    -2.584408  -1.582046  2.456823
H    -1.608916  -0.986447  0.019402
O    1.874186  -0.162580  -0.056539
H    2.824522  0.074979  -0.102252
H    -4.314477  -0.921387  3.928613
Ca    -3.367877  1.309625  6.029888
