20
Energy: -33559.4871026 eV PBE+vdW (tier 2 basis)
N    -1.088722  0.412124  0.941746
C    0.248826  0.348996  1.680197
C    1.188318  1.453545  1.144052
O    2.368211  1.449524  1.353675
H    -1.012362  0.015319  -0.005996
H    -1.369533  1.400253  0.827439
H    0.014826  0.628316  2.720076
C    0.904927  -1.029612  1.619665
C    0.242671  -2.105898  2.486163
C    1.084726  -3.351720  2.678020
O    2.308691  -3.395561  2.293681
O    0.565649  -4.370675  3.263285
H    1.938807  -0.867726  1.953481
H    0.988814  -1.359022  0.571823
H    -0.732236  -2.448175  2.105287
H    0.043667  -1.730660  3.504996
O    0.481994  2.397518  0.479209
H    1.083614  3.119063  0.197758
H    -1.835431  -0.090867  1.439494
Ca    2.460543  -5.409742  3.130949
