20
Energy: -33559.3407198 eV PBE+vdW (tier 2 basis)
N    0.133020  0.378589  -0.320369
C    -0.172708  -0.059000  1.107122
C    1.087410  0.233984  1.949914
O    2.186450  -0.181497  1.584520
H    0.176701  1.403844  -0.429367
H    -0.588689  0.027266  -0.969728
H    -1.023881  0.549712  1.440543
C    -0.541628  -1.567019  1.075876
C    -0.449390  -2.326146  2.416278
C    1.003537  -2.543517  2.799012
O    1.463201  -2.031198  3.877977
O    1.793404  -3.097959  1.956619
H    0.124623  -2.078752  0.363717
H    -1.568141  -1.637849  0.688986
H    -0.920507  -3.307982  2.265849
H    -0.984159  -1.826864  3.233366
O    0.966852  0.878895  3.089230
H    0.057873  1.158600  3.316971
H    1.043607  -0.012056  -0.616621
Ca    3.415426  -1.947052  2.878106
