20
Energy: -33559.5931014 eV PBE+vdW (tier 2 basis)
N    -0.250264  0.691086  -0.198754
C    -0.107640  -0.081233  1.111312
C    1.019651  0.530957  1.958376
O    1.502146  -0.033073  2.907575
H    -0.187852  1.707430  -0.027716
H    -1.148638  0.485904  -0.659185
H    -1.043888  0.110318  1.660209
C    0.040305  -1.582947  0.820001
C    -0.194282  -2.488693  2.041081
C    1.021702  -2.834208  2.866325
O    2.183135  -2.952925  2.326797
O    0.871542  -3.088131  4.116076
H    1.029590  -1.791527  0.385935
H    -0.710146  -1.846091  0.060043
H    -0.575576  -3.459073  1.681666
H    -0.967333  -2.100981  2.716634
O    1.338897  1.765539  1.519965
H    2.013599  2.167186  2.107085
H    0.501898  0.450865  -0.861520
Ca    2.972155  -3.513404  4.278096
