20
Energy: -33558.550649 eV PBE+vdW (tier 2 basis)
N    -0.212724  -0.169592  0.062137
C    -0.294397  0.116825  1.541666
C    1.173884  0.311357  1.956149
O    2.073861  -0.020519  1.207227
H    -0.398284  0.658072  -0.516898
H    0.788518  -0.455376  -0.092555
H    -0.871790  1.037197  1.692358
C    -0.940027  -1.072955  2.288148
C    -2.296518  -1.449957  1.761779
C    -2.640685  -2.733216  1.523126
O    -1.939261  -3.835839  1.565376
O    -3.991427  -3.109917  1.192247
H    -1.000528  -0.769278  3.344686
H    -0.264222  -1.940227  2.250681
H    -0.880803  -0.912755  -0.194367
H    -3.075001  -0.685850  1.724495
O    1.284157  0.819348  3.173819
H    2.231821  0.907985  3.412604
H    -4.630618  -2.377541  1.247760
Ca    -3.373256  -5.315808  1.369815
