20
Energy: -33559.2437437 eV PBE+vdW (tier 2 basis)
N    -0.027323  -1.584398  -0.031321
C    0.024043  -0.389734  0.886804
C    1.529322  -0.176401  1.149709
O    2.339486  -1.035283  0.868236
H    0.878410  -2.084022  0.115709
H    -0.063471  -1.312224  -1.019956
H    -0.389374  0.481031  0.361392
C    -0.721633  -0.640237  2.210252
C    -2.260405  -0.681643  2.173575
C    -2.888428  -1.943190  1.617629
O    -4.135458  -2.187737  2.025328
O    -2.329808  -2.707224  0.833273
H    -0.438198  0.186834  2.874711
H    -0.326709  -1.553576  2.681432
H    -2.667306  0.162910  1.590196
H    -2.643738  -0.530375  3.191568
O    1.769130  1.000710  1.716807
H    2.730876  1.091961  1.886583
H    -0.867450  -2.184972  0.206509
Ca    -5.824051  -3.198685  2.205151
