20
Energy: -33559.7444213 eV PBE+vdW (tier 2 basis)
N    0.798882  -0.647254  0.714452
C    -0.202970  0.109167  1.522137
C    0.561812  1.064169  2.450170
O    1.770055  0.916198  2.678729
H    1.016956  -0.095731  -0.123491
H    0.358286  -1.494911  0.343868
H    -0.813525  0.746575  0.859912
C    -1.225249  -0.793772  2.283279
C    -0.811880  -2.188619  2.823912
C    0.329128  -2.233754  3.812203
O    1.497511  -1.988869  3.456598
O    0.139830  -2.546287  5.069156
H    -2.053929  -0.988372  1.589751
H    -1.662009  -0.205368  3.102599
H    -0.522634  -2.855867  1.997599
H    -1.717642  -2.633864  3.257784
O    -0.060602  2.063607  3.025330
H    -0.990899  2.178280  2.745217
H    -0.789239  -2.762306  5.285861
Ca    2.854836  -0.928664  2.156584
