20
Energy: -33558.3610879 eV PBE+vdW (tier 2 basis)
N    -0.491333  0.109148  0.134818
C    -0.143998  -0.166952  1.589350
C    1.293313  -0.715853  1.682053
O    1.678862  -1.386145  2.599049
H    -1.211654  0.836357  0.040012
H    0.355376  0.396277  -0.382637
H    -0.138986  0.807036  2.101053
C    -1.186410  -1.097949  2.219442
C    -1.324884  -2.424023  1.519793
C    -2.527259  -2.965311  1.233824
O    -3.739600  -2.486209  1.340401
O    -2.654432  -4.323138  0.764881
H    -2.155461  -0.582192  2.268909
H    -0.857534  -1.248147  3.259442
H    -0.439252  -3.055343  1.427670
H    -0.854966  -0.768288  -0.278610
O    2.029788  -0.296501  0.622864
H    2.957990  -0.590991  0.733897
H    -1.817044  -4.820028  0.773801
Ca    -4.925291  -4.156036  1.034554
