20
Energy: -33560.2938117 eV PBE+vdW (tier 2 basis)
N    0.703652  0.153939  0.040998
C    0.279024  0.277617  1.494052
C    1.190318  -0.636361  2.310160
O    1.408532  -0.353244  3.521095
H    1.521724  0.743567  -0.171761
H    -0.047127  0.413226  -0.615393
H    0.394728  1.324439  1.798242
C    -1.187060  -0.201016  1.630875
C    -1.734317  -0.285430  3.080459
C    -1.727527  -1.665235  3.702821
O    -0.719818  -2.386289  3.856312
O    -2.918461  -2.047213  4.097404
H    -1.291342  -1.174720  1.128531
H    -1.822092  0.510522  1.084870
H    -2.768731  0.072526  3.094158
H    -1.163973  0.371152  3.757105
O    1.537723  -1.742085  1.772266
H    0.977715  -0.834167  -0.121974
H    -2.890163  -2.929320  4.528680
Ca    1.501198  -2.563906  3.901100
