20
Energy: -33558.9570562 eV PBE+vdW (tier 2 basis)
N    4.611405  -2.825332  -1.023097
C    4.848589  -2.734039  0.480558
C    6.299243  -2.319607  0.704592
O    6.657225  -1.886141  1.847154
H    5.424653  -3.267874  -1.481879
H    4.476827  -1.903607  -1.462347
H    4.184821  -1.949116  0.869078
C    4.507132  -4.090462  1.120005
C    4.435036  -4.081642  2.648833
C    3.522576  -5.223558  3.104874
O    2.751910  -5.795388  2.365715
O    3.685023  -5.469479  4.412528
H    5.211238  -4.859552  0.765996
H    3.506871  -4.397344  0.764724
H    3.991991  -3.147164  3.028170
H    5.414673  -4.177791  3.131433
O    7.153486  -2.448236  -0.246486
H    3.772945  -3.394080  -1.216105
H    3.056578  -6.173949  4.674494
Ca    8.725502  -1.693286  1.151359
