20
Energy: -33559.0305325 eV PBE+vdW (tier 2 basis)
N    -0.086559  -0.339921  0.139899
C    -0.000802  -0.450839  1.655812
C    1.451957  -0.396832  2.139061
O    2.361935  -1.160913  1.767587
H    -1.085656  -0.167064  -0.036378
H    0.347037  0.559262  -0.108837
H    -0.492714  0.431474  2.088076
C    -0.745756  -1.688964  2.215043
C    -0.099818  -3.095937  2.033907
C    0.311219  -3.248577  0.611768
O    -0.474019  -3.528770  -0.319977
O    1.542286  -2.865735  0.246002
H    -1.753409  -1.690876  1.773923
H    -0.890338  -1.532489  3.292646
H    -0.854962  -3.854348  2.275373
H    0.758401  -3.236634  2.702631
O    1.643128  0.532341  3.038256
H    2.563971  0.513028  3.387221
H    2.005189  -2.147265  0.992851
Ca    0.534716  -2.105433  -1.661094
