20
Energy: -33558.5969578 eV PBE+vdW (tier 2 basis)
N    -0.275932  1.263852  1.451459
C    -0.543203  0.134260  2.317764
C    0.251715  0.332515  3.609470
O    1.296408  -0.325366  3.944617
H    -0.829094  2.104234  1.594470
H    0.702212  1.476910  1.269299
H    -1.609923  0.162498  2.596334
C    -0.263140  -1.175936  1.557554
C    -0.588535  -2.511645  2.267627
C    0.602842  -3.315739  2.694001
O    0.593791  -4.587813  2.668462
O    1.693544  -2.725413  3.113384
H    0.774258  -1.167338  1.190688
H    -0.882873  -1.103073  0.656302
H    -1.201785  -3.160371  1.630558
H    -1.196702  -2.359369  3.178663
O    -0.011922  1.299086  4.436354
H    -0.782891  1.837942  4.165844
H    1.461271  -1.208773  3.448236
Ca    2.611394  -4.757685  3.407271
