20
Energy: -33558.2879511 eV PBE+vdW (tier 2 basis)
N    0.028917  -0.030346  -0.071967
C    -0.581818  -0.023705  1.233919
C    0.333901  0.666563  2.252243
O    1.417410  0.388673  2.631148
H    0.925931  -0.514803  -0.110327
H    0.106925  0.883016  -0.515110
H    -1.516903  0.552094  1.149365
C    -0.889926  -1.474561  1.655500
C    -1.496906  -1.702608  3.067299
C    -2.779490  -0.961611  3.286468
O    -2.791695  0.290833  3.441799
O    -3.941701  -1.550660  3.299378
H    0.043519  -2.054518  1.627875
H    -1.543638  -1.890635  0.877711
H    -0.790979  -1.371928  3.844853
H    -1.644650  -2.781154  3.210313
O    -0.247485  1.999554  2.739061
H    0.543104  2.472388  3.079545
H    -3.885379  -2.522955  3.191833
Ca    -2.335544  2.335870  3.508929
