20
Energy: -33559.2012424 eV PBE+vdW (tier 2 basis)
N    0.669897  0.351490  0.180604
C    -0.138254  0.146688  1.374781
C    0.831446  -0.373140  2.424393
O    1.132017  -1.590901  2.588680
H    1.143882  -0.473562  -0.181960
H    1.301895  1.149048  0.220190
H    -0.481932  1.134974  1.711483
C    -1.351273  -0.734726  1.039820
C    -2.499527  -0.784594  2.058485
C    -2.424163  -1.817633  3.148614
O    -1.560856  -2.724493  3.177492
O    -3.303558  -1.824742  4.117803
H    -1.034045  -1.753140  0.762543
H    -1.749060  -0.303691  0.111607
H    -3.440086  -1.002670  1.520305
H    -2.671888  0.200718  2.523207
O    1.447941  0.575919  3.088452
H    2.189441  0.229691  3.630149
H    -3.972326  -1.112951  4.044671
Ca    0.381279  -3.547701  2.987040
