20
Energy: -33558.2728463 eV PBE+vdW (tier 2 basis)
N    -0.868830  -0.259142  0.377736
C    -0.207172  -0.143987  1.743832
C    1.320281  -0.210896  1.676791
O    2.005118  0.000190  2.635619
H    -0.202695  -0.716804  -0.267147
H    -1.110853  0.657100  -0.017841
H    -0.488679  0.826338  2.172634
C    -0.826553  -1.302945  2.546682
C    -2.271323  -1.349715  2.044280
C    -2.151163  -1.213978  0.525245
O    -1.949183  -2.308725  -0.197083
O    -3.289025  -0.532260  -0.126877
H    -0.749360  -1.114858  3.622038
H    -0.305723  -2.246246  2.331941
H    -2.845813  -0.508369  2.464758
H    -2.787699  -2.281423  2.299645
O    1.738808  -0.572368  0.435088
H    2.717147  -0.637743  0.435285
H    -3.775609  0.068999  0.467890
Ca    -3.585234  -2.463917  -1.446344
