20
Energy: -33559.8755474 eV PBE+vdW (tier 2 basis)
N    0.013646  0.956519  0.388329
C    -0.131015  0.290447  1.717516
C    1.220430  -0.338213  2.077150
O    2.094123  -0.526821  1.217452
H    0.377539  1.904358  0.542794
H    -0.919431  1.112891  -0.006335
H    -0.346144  1.042279  2.495761
C    -1.310471  -0.729332  1.774580
C    -1.687073  -1.556627  0.519682
C    -0.641086  -2.490603  -0.024706
O    0.347984  -2.097691  -0.682618
O    -0.855846  -3.754555  0.228163
H    -2.212709  -0.157049  2.028031
H    -1.148003  -1.410501  2.621740
H    -2.574201  -2.145122  0.784076
H    -1.984667  -0.898888  -0.310488
O    1.474551  -0.700968  3.309302
H    0.777607  -0.464281  3.954162
H    -0.166053  -4.331818  -0.168780
Ca    1.675818  -0.384026  -0.938812
