20
Energy: -33560.1870478 eV PBE+vdW (tier 2 basis)
N    0.219540  0.870603  0.257487
C    -0.164231  0.408142  1.629270
C    1.070160  -0.198203  2.283497
O    2.029795  -0.630687  1.618149
H    0.554663  1.838543  0.330226
H    -0.633646  0.944890  -0.306213
H    -0.481111  1.263873  2.244113
C    -1.350781  -0.593994  1.646548
C    -1.130111  -2.083926  1.291336
C    -0.821549  -2.412088  -0.143845
O    0.201323  -2.012352  -0.748054
O    -1.707195  -3.181247  -0.719663
H    -2.156010  -0.168293  1.029089
H    -1.741445  -0.587886  2.672710
H    -0.311774  -2.513921  1.892936
H    -2.037005  -2.630944  1.574601
O    1.004978  -0.253179  3.586897
H    1.806598  -0.668022  3.977102
H    -1.453721  -3.408546  -1.641795
Ca    1.919522  -0.677762  -0.615391
