20
Energy: -33559.7424757 eV PBE+vdW (tier 2 basis)
N    -0.346645  -0.266672  0.441931
C    -0.353183  -0.050003  1.930631
C    1.029037  0.423720  2.377068
O    1.883571  0.819902  1.504180
H    -1.247817  -0.013641  0.021232
H    -0.169760  -1.350671  0.264647
H    -1.016338  0.805398  2.142503
C    -0.913271  -1.262903  2.699701
C    -0.097865  -2.566671  2.735337
C    0.016566  -3.329348  1.434027
O    -0.000193  -2.813146  0.308315
O    0.169618  -4.626602  1.614222
H    -1.924988  -1.461469  2.315976
H    -1.054171  -0.931700  3.736602
H    0.931706  -2.391733  3.091091
H    -0.540610  -3.237473  3.483081
O    1.301844  0.488149  3.622164
H    0.393146  0.292899  -0.004892
H    0.267677  -5.078159  0.748158
Ca    3.203675  1.472125  3.162025
