20
Energy: -33558.7407475 eV PBE+vdW (tier 2 basis)
N    0.058012  -0.375146  -0.154811
C    -0.178270  -0.178780  1.239270
C    1.034049  -0.118339  2.164509
O    0.936714  0.162640  3.413424
H    0.466404  -1.277029  -0.395057
H    0.578475  0.372123  -0.609516
H    -0.624701  0.827409  1.361571
C    -1.185651  -1.239231  1.808503
C    -2.530808  -0.682010  2.276211
C    -2.578837  0.080540  3.565821
O    -3.706778  0.367490  4.088057
O    -1.508868  0.478057  4.210448
H    -0.731596  -1.854522  2.598552
H    -1.389464  -1.921848  0.974755
H    -3.265456  -1.495736  2.386811
H    -2.981063  -0.026506  1.508924
O    2.199984  -0.334479  1.663664
H    2.921681  -0.265593  2.330251
H    -0.046701  0.277053  3.709263
Ca    -2.880940  1.312104  5.817617
