20
Energy: -33559.161201 eV PBE+vdW (tier 2 basis)
N    -0.118894  0.226434  0.489259
C    0.229049  -0.162081  1.909089
C    1.642025  -0.733011  1.970100
O    2.383878  -0.736801  0.923883
H    0.664926  0.702588  0.022055
H    -0.952450  0.872693  0.553152
H    0.250829  0.786000  2.471483
C    -0.827344  -1.099853  2.526228
C    -2.302180  -0.682462  2.317097
C    -2.592190  0.774974  2.625411
O    -3.023319  1.234894  3.640214
O    -2.255244  1.575864  1.522509
H    -0.602075  -1.150374  3.599245
H    -0.697346  -2.117605  2.129088
H    -2.919302  -1.288104  2.990377
H    -2.635589  -0.902944  1.292803
O    2.078947  -1.179004  3.081473
H    -0.367891  -0.588633  -0.087162
H    -2.509452  2.498820  1.733462
Ca    4.018747  -1.611692  2.168154
