20
Energy: -33557.6968439 eV PBE+vdW (tier 2 basis)
N    -0.226761  -1.439073  0.138111
C    -0.215048  -0.463402  1.196806
C    1.174206  -0.214984  1.806266
O    2.112172  -0.947894  1.837582
H    0.175763  -1.085420  -0.728168
H    0.263787  -2.297880  0.390501
H    -0.554014  0.495452  0.772895
C    -1.229628  -0.939587  2.271996
C    -1.345565  -0.148016  3.612660
C    -1.739644  1.280988  3.452810
O    -2.937528  1.677085  3.733334
O    -0.930352  2.175494  3.023940
H    -0.968257  -1.967032  2.562319
H    -2.206691  -0.995852  1.775861
H    -0.381918  -0.173111  4.145055
H    -2.087330  -0.648495  4.244767
O    1.251260  1.090972  2.375879
H    2.152086  1.227502  2.737930
H    0.023579  1.785254  2.790660
Ca    -4.586776  2.773315  4.108708
