20
Energy: -33558.5739588 eV PBE+vdW (tier 2 basis)
N    0.147089  -0.562773  -0.224754
C    0.047282  -0.113192  1.132155
C    1.385862  0.444111  1.597739
O    2.428888  0.428979  0.881426
H    -0.745713  -0.587960  -0.710367
H    0.630035  -1.451174  -0.345208
H    -0.613734  0.774112  1.125949
C    -0.508472  -1.123272  2.217805
C    -1.768220  -0.690151  2.980422
C    -1.635130  0.369008  4.033031
O    -0.601204  1.077512  4.247319
O    -2.617358  0.650695  4.832413
H    0.271320  -1.432468  2.929398
H    -0.777718  -2.031632  1.665509
H    -2.211755  -1.568321  3.480535
H    -2.551964  -0.338121  2.284026
O    1.476592  0.981221  2.793679
H    0.217775  0.945207  3.618530
H    -3.413105  0.099491  4.685869
Ca    3.600584  1.543171  2.307247
