20
Energy: -33559.663166 eV PBE+vdW (tier 2 basis)
N    1.861126  1.760113  1.979892
C    1.324357  0.686929  1.045826
C    -0.202479  0.894851  1.123262
O    -0.682085  1.683717  1.915831
H    2.503155  1.400900  2.695093
H    0.990513  2.155817  2.432520
H    1.665062  0.930645  0.031437
C    1.788347  -0.735825  1.397061
C    1.246917  -1.304931  2.714743
C    1.606487  -2.756357  2.957801
O    1.314688  -3.287200  4.090680
O    2.174728  -3.466799  2.051705
H    2.887982  -0.760729  1.379753
H    1.470122  -1.373350  0.561571
H    0.145213  -1.264324  2.753782
H    1.580207  -0.753010  3.607834
O    -0.853957  0.128030  0.262048
H    -1.815999  0.315631  0.313873
H    2.339947  2.515697  1.474225
Ca    2.101671  -5.183806  3.410062
