20
Energy: -33558.5646458 eV PBE+vdW (tier 2 basis)
N    -0.522374  -0.527737  -0.140488
C    -0.168976  0.028351  1.219215
C    1.363866  0.120397  1.212587
O    2.002102  -0.335263  0.280381
H    0.419633  -0.768058  -0.553893
H    -0.994495  0.156735  -0.741113
H    -0.620632  1.020678  1.337339
C    -0.739662  -0.991893  2.232480
C    -1.921712  -1.624677  1.490342
C    -1.384568  -1.838824  0.075623
O    -0.620929  -2.903002  -0.147872
O    -2.409932  -1.874773  -0.988769
H    -1.035511  -0.498021  3.162756
H    0.011456  -1.753260  2.479410
H    -2.781446  -0.935269  1.478214
H    -2.245688  -2.575304  1.927920
O    1.826791  0.698939  2.305713
H    2.807502  0.732035  2.283967
H    -3.233983  -1.408557  -0.754307
Ca    -1.573249  -3.988751  -1.613758
