20
Energy: -33559.5813636 eV PBE+vdW (tier 2 basis)
N    0.425575  1.780843  1.154696
C    0.832158  1.185101  2.477457
C    1.626894  -0.088033  2.163479
O    2.270302  -0.158403  1.054043
H    -0.022703  2.698420  1.261580
H    -0.257309  1.052852  0.745702
H    1.567100  1.865423  2.938787
C    -0.349158  1.011208  3.454232
C    -1.752773  0.698996  2.886748
C    -1.824610  -0.347048  1.801410
O    -1.063690  -0.361713  0.822323
O    -2.799472  -1.221194  1.968865
H    -0.438807  1.928187  4.049939
H    -0.049902  0.223621  4.157705
H    -2.209468  1.606427  2.454880
H    -2.409682  0.415286  3.716836
O    1.713563  -1.023737  3.023500
H    1.232676  1.874246  0.523603
H    -2.861199  -1.812100  1.187944
Ca    3.111504  -2.086383  1.705270
