20
Energy: -33558.6848277 eV PBE+vdW (tier 2 basis)
N    0.624433  -0.747763  0.154733
C    -0.032988  0.081540  1.164284
C    1.040820  0.749240  2.007835
O    1.913084  1.487548  1.441559
H    1.399697  -0.256783  -0.293165
H    -0.033117  -0.986723  -0.590551
H    -0.569128  0.957176  0.735231
C    -1.094577  -0.735541  1.929972
C    -0.661303  -2.168575  2.322062
C    -0.305798  -2.386551  3.746245
O    0.249804  -1.502125  4.486755
O    -0.501345  -3.509031  4.361905
H    -1.949597  -0.839076  1.249276
H    -1.484582  -0.167654  2.785722
H    -1.425172  -2.903502  2.035906
H    0.236702  -2.423187  1.715210
O    1.091497  0.642957  3.304749
H    0.462034  -0.634928  3.993365
H    -0.946162  -4.181611  3.807364
Ca    2.796966  2.119967  3.305572
