20
Energy: -33557.6176113 eV PBE+vdW (tier 2 basis)
N    0.893313  -1.697088  0.192910
C    0.609797  -0.648207  1.141319
C    1.640054  -0.604522  2.233863
O    1.414911  -0.036746  3.363438
H    0.180245  -1.731866  -0.534956
H    1.796898  -1.590245  -0.267904
H    0.665310  0.392441  0.730227
C    -0.815652  -0.832268  1.738937
C    -1.221024  0.213200  2.756106
C    -1.896962  -0.119610  3.892798
O    -2.127503  -1.276055  4.430917
O    -2.497340  0.871047  4.733595
H    -0.886303  -1.843345  2.161029
H    -1.507798  -0.795272  0.883917
H    -1.262077  1.258066  2.436265
H    0.399304  0.209255  3.402049
O    2.800119  -1.116270  2.004228
H    3.422307  -1.002403  2.758203
H    -2.473467  1.775169  4.370341
Ca    -3.391460  -0.834823  6.025835
