20
Energy: -33557.3243849 eV PBE+vdW (tier 2 basis)
N    -0.377940  0.382589  0.303924
C    -0.062417  0.141459  1.666908
C    1.445792  -0.118650  1.806497
O    2.184131  -0.291021  0.870440
H    -0.973230  1.174313  0.089233
H    0.394468  0.241925  -0.345925
H    -0.343860  0.979071  2.324735
C    -0.896874  -1.128582  2.111550
C    -0.870164  -1.381748  3.667291
C    -1.661137  -2.570803  3.951130
O    -2.904852  -2.646528  4.147802
O    -1.099934  -3.842603  3.951225
H    -0.517224  -1.999825  1.558679
H    -1.932101  -0.951343  1.796853
H    -1.327268  -0.524118  4.179528
H    0.168997  -1.489811  4.010274
O    1.831094  -0.150398  3.109786
H    2.805927  -0.252282  3.122733
H    -0.128297  -3.862192  3.838073
Ca    -3.316550  -4.725746  4.452392
