20
Energy: -33559.6919823 eV PBE+vdW (tier 2 basis)
N    0.597227  -1.091194  0.005405
C    0.414274  -0.344529  1.311998
C    1.662927  -0.790152  2.143108
O    1.949235  -0.046712  3.162730
H    0.998476  -0.506703  -0.738529
H    -0.257540  -1.530551  -0.357601
H    0.466671  0.731775  1.106555
C    -0.951568  -0.734792  1.923527
C    -1.197537  -0.408496  3.417698
C    -1.110109  1.049415  3.816494
O    -0.161880  1.503268  4.482009
O    -2.050090  1.898651  3.464576
H    -1.070860  -1.826452  1.844877
H    -1.744289  -0.286684  1.305482
H    -0.499797  -0.970576  4.048306
H    -2.206298  -0.774779  3.665488
O    2.260404  -1.788595  1.762782
H    1.319009  -1.827059  0.284653
H    -2.811095  1.477063  3.018655
Ca    1.978720  1.185800  4.803109
