20
Energy: -33559.8483992 eV PBE+vdW (tier 2 basis)
N    -0.047614  0.621402  0.283672
C    -0.141258  0.228669  1.722146
C    1.288899  0.285820  2.268900
O    2.230328  -0.046012  1.528057
H    0.077033  1.639937  0.237404
H    -0.955470  0.464079  -0.164801
H    -0.804594  0.919194  2.264758
C    -0.628360  -1.245831  1.955403
C    -1.555282  -1.886992  0.912895
C    -0.859430  -2.506763  -0.274202
O    0.299828  -2.213908  -0.643805
O    -1.590061  -3.394377  -0.895603
H    -1.155374  -1.252940  2.917310
H    0.238969  -1.907677  2.092818
H    -2.137171  -2.687201  1.393696
H    -2.332462  -1.203093  0.528437
O    1.543405  0.599794  3.510119
H    0.760168  0.888638  4.020922
H    -1.123601  -3.783797  -1.667307
Ca    1.879378  -0.680062  -0.573061
