20
Energy: -33558.6486517 eV PBE+vdW (tier 2 basis)
N    -0.134960  -0.217322  0.159549
C    -0.171410  -0.134143  1.590498
C    1.153293  0.381283  2.127034
O    1.294725  0.806421  3.331223
H    -0.245490  0.674907  -0.317782
H    -0.797867  -0.887525  -0.222144
H    -0.915808  0.584576  2.001158
C    -0.503571  -1.547144  2.163570
C    -0.379520  -1.829538  3.678992
C    -1.161423  -0.932886  4.595520
O    -2.150019  -1.357997  5.272198
O    -0.816249  0.324224  4.757971
H    0.145666  -2.268887  1.648932
H    -1.532766  -1.758088  1.841845
H    0.673754  -1.781881  4.000462
H    -0.718739  -2.857110  3.856047
O    2.165456  0.419032  1.336390
H    2.970850  0.780095  1.773930
H    0.438381  0.701656  3.898033
Ca    -2.382455  0.485546  6.370188
