20
Energy: -33558.9451293 eV PBE+vdW (tier 2 basis)
N    0.710734  0.459342  -0.354521
C    0.130452  -0.033209  0.943782
C    0.776970  0.822043  2.062195
O    1.405819  1.822609  1.795746
H    1.616886  -0.016424  -0.469929
H    1.012230  1.431819  -0.130338
H    -0.934676  0.255520  0.968485
C    0.259437  -1.564158  1.121008
C    -1.044394  -2.373240  1.058447
C    -1.783731  -2.361053  -0.249259
O    -1.501721  -1.566791  -1.181311
O    -2.782174  -3.172839  -0.467028
H    0.701033  -1.767717  2.103836
H    0.977165  -1.963212  0.388728
H    -1.757994  -2.025332  1.828446
H    -0.838813  -3.423197  1.324932
O    0.496549  0.347064  3.274417
H    0.878355  0.940743  3.955949
H    -2.962875  -3.783572  0.277742
Ca    -0.697207  0.084512  -2.214335
