20
Energy: -33559.7517864 eV PBE+vdW (tier 2 basis)
N    0.049341  -0.318338  0.211832
C    0.508491  -0.427395  1.650782
C    2.069772  -0.489249  1.503699
O    2.732655  -0.559994  2.608636
H    -0.446330  0.553722  -0.004172
H    -0.527385  -1.106787  -0.103411
H    0.256357  0.521116  2.143213
C    -0.103843  -1.633007  2.408113
C    -0.932225  -1.308834  3.661958
C    -0.167564  -0.952375  4.918037
O    1.065464  -1.061484  5.031416
O    -0.825787  -0.525992  5.971892
H    0.690313  -2.344826  2.667518
H    -0.767307  -2.186749  1.729142
H    -1.533188  -2.197491  3.925315
H    -1.671191  -0.514698  3.466718
O    2.526554  -0.459910  0.367049
H    1.002489  -0.337396  -0.295409
H    -1.794199  -0.477922  5.839716
Ca    3.186583  -0.899392  4.573952
