20
Energy: -33558.5148904 eV PBE+vdW (tier 2 basis)
N    -0.112169  1.006685  0.392524
C    -0.135582  0.218977  1.619995
C    1.310574  -0.270390  1.725838
O    2.117665  0.251167  2.556881
H    -0.495545  1.940663  0.510211
H    -0.507893  0.572079  -0.436071
H    -0.246355  0.919587  2.457580
C    -1.256262  -0.834610  1.809383
C    -1.169339  -2.237645  1.138668
C    -0.973300  -2.245259  -0.343810
O    0.133923  -1.915793  -0.885402
O    -1.892714  -2.575241  -1.192984
H    -2.190654  -0.342010  1.504697
H    -1.358115  -1.042720  2.883553
H    -2.086726  -2.786831  1.389387
H    -0.334610  -2.811963  1.569623
O    1.804071  -1.149193  0.880558
H    0.848538  -1.635847  -0.178699
H    -2.733118  -2.847293  -0.771086
Ca    3.857519  -0.584787  1.601130
