20
Energy: -33559.8134597 eV PBE+vdW (tier 2 basis)
N    0.734139  -0.642484  -0.051367
C    0.365952  -0.359277  1.375502
C    1.540516  0.284934  2.109256
O    1.358877  0.761222  3.280215
H    0.053392  -1.465416  -0.410270
H    1.712727  -0.952290  -0.118471
H    -0.454886  0.373464  1.372458
C    -0.100421  -1.644296  2.101100
C    -1.486837  -2.189011  1.714191
C    -1.609270  -2.812191  0.342627
O    -0.894254  -2.527386  -0.630204
O    -2.585492  -3.691842  0.266232
H    -0.137317  -1.402986  3.171322
H    0.666038  -2.426404  1.983668
H    -2.255139  -1.399303  1.774432
H    -1.793980  -2.940183  2.453977
O    2.698351  0.334534  1.558825
H    0.637332  0.182400  -0.653925
H    -2.659919  -4.038369  -0.649226
Ca    3.453193  1.375884  3.366658
