20
Energy: -33558.289115 eV PBE+vdW (tier 2 basis)
N    -0.570463  -0.277812  0.072046
C    -0.123873  -0.034655  1.505319
C    1.396143  0.056787  1.647706
O    1.922986  0.410392  2.661988
H    -0.944782  0.573106  -0.366696
H    0.243807  -0.592676  -0.480967
H    -0.557800  0.917688  1.834004
C    -0.731382  -1.212931  2.294434
C    -2.047781  -1.492940  1.568301
C    -1.747100  -1.367167  0.075423
O    -2.702496  -1.020869  -0.769243
O    -1.152079  -2.597218  -0.514084
H    -0.868970  -0.943014  3.346308
H    -0.053797  -2.080816  2.278314
H    -2.802406  -0.728880  1.806095
H    -2.486773  -2.469731  1.806817
O    2.016440  -0.359831  0.507906
H    2.986934  -0.303458  0.636070
H    -0.662369  -3.149153  0.124349
Ca    -2.939486  -2.628423  -2.044487
