20
Energy: -33560.0849007 eV PBE+vdW (tier 2 basis)
N    1.662902  -0.709560  0.369365
C    0.589850  -0.067019  1.192222
C    1.159350  0.212468  2.578382
O    2.165095  -0.371465  3.017786
H    1.217301  -1.227384  -0.394895
H    2.188127  0.034090  -0.105053
H    0.313636  0.904335  0.754512
C    -0.732786  -0.881571  1.264754
C    -0.897652  -2.059858  2.255373
C    -0.042800  -3.282501  2.025532
O    1.199606  -3.211746  1.941349
O    -0.573734  -4.475564  1.936716
H    -0.973875  -1.209198  0.242380
H    -1.519233  -0.162620  1.529529
H    -1.960685  -2.336314  2.252662
H    -0.683985  -1.732932  3.287722
O    0.475957  1.097405  3.257377
H    0.864110  1.252757  4.147262
H    -1.548806  -4.477925  2.015922
Ca    3.039621  -2.092398  1.869104
