20
Energy: -33559.1263884 eV PBE+vdW (tier 2 basis)
N    0.819936  -2.071633  0.342050
C    0.368076  -1.215742  1.429897
C    0.877292  -1.858924  2.716248
O    0.238379  -2.754270  3.326939
H    1.811568  -2.017550  0.117931
H    0.515036  -3.042037  0.395008
H    0.859467  -0.237072  1.306877
C    -1.157015  -1.023008  1.337033
C    -1.796218  0.100738  2.167941
C    -2.235447  -0.208118  3.575507
O    -2.219648  -1.355113  4.073650
O    -2.693515  0.750132  4.342881
H    -1.673900  -1.978081  1.515329
H    -1.335258  -0.793591  0.278274
H    -2.712957  0.436657  1.650007
H    -1.157177  0.999520  2.197560
O    2.076807  -1.587324  3.180651
H    2.535372  -0.886116  2.675215
H    -2.713736  1.626524  3.906540
Ca    -1.399436  -3.256147  4.567252
