20
Energy: -33557.226553 eV PBE+vdW (tier 2 basis)
N    -0.011408  0.842325  0.121609
C    -0.193532  0.360099  1.486505
C    1.265138  0.103687  1.839657
O    2.045999  1.026775  2.249256
H    -0.191910  0.143350  -0.596724
H    -0.490704  1.712544  -0.091179
H    -0.536462  1.186915  2.124535
C    -1.097415  -0.864748  1.672636
C    -2.569550  -0.538867  1.383827
C    -3.501855  -1.742917  1.460350
O    -4.626371  -1.692403  1.890154
O    -2.917808  -2.861152  0.956326
H    -0.998560  -1.240871  2.703189
H    -0.785401  -1.682087  0.995097
H    -2.683074  -0.122101  0.370256
H    -2.957978  0.207783  2.087376
O    1.820610  -1.061688  1.664050
H    1.155390  -1.741956  1.412413
H    -3.581782  -3.579914  0.993438
Ca    3.667883  2.178391  2.660776
