20
Energy: -33559.5889094 eV PBE+vdW (tier 2 basis)
N    0.145975  0.281111  -0.555551
C    0.030746  -0.081884  0.914832
C    1.307600  0.527793  1.522376
O    2.210596  0.923562  0.813212
H    -0.464095  1.066219  -0.817806
H    -0.059672  -0.507291  -1.181883
H    -0.853351  0.425322  1.322447
C    -0.094806  -1.609744  1.076745
C    -0.372292  -2.091774  2.511762
C    0.783326  -2.721656  3.250861
O    1.947867  -2.856322  2.721712
O    0.572269  -3.181615  4.433028
H    0.814338  -2.094150  0.690422
H    -0.934074  -1.930794  0.443324
H    -1.160309  -2.860079  2.500499
H    -0.778085  -1.303070  3.162593
O    1.275004  0.560785  2.852673
H    2.083876  1.013468  3.173653
H    1.146718  0.588239  -0.672975
Ca    2.540370  -4.041120  4.478077
