20
Energy: -33560.1312134 eV PBE+vdW (tier 2 basis)
N    -0.472212  0.410666  0.142016
C    -0.223948  0.010235  1.590032
C    1.230734  0.380714  1.893227
O    2.022579  0.506265  0.896792
H    0.464309  0.435212  -0.317339
H    -0.874276  1.356379  0.074358
H    -0.907466  0.590315  2.221506
C    -0.472940  -1.493155  1.843308
C    0.491421  -2.527362  1.184451
C    1.696911  -2.901151  2.033850
O    2.694320  -2.171483  2.143406
O    1.709548  -4.036532  2.694517
H    -1.496928  -1.724640  1.515916
H    -0.486552  -1.618597  2.934424
H    0.884824  -2.169336  0.221751
H    -0.087092  -3.432874  0.960582
O    1.614551  0.388874  3.092928
H    -1.101878  -0.229962  -0.359194
H    0.916578  -4.588190  2.545727
Ca    3.656193  -0.204036  2.367238
