20
Energy: -33558.7516407 eV PBE+vdW (tier 2 basis)
N    0.133502  -1.304307  0.094420
C    0.149443  -0.300039  1.164876
C    1.607492  0.027695  1.429026
O    2.304917  -0.321997  2.430880
H    0.640249  -0.987566  -0.734617
H    -0.830709  -1.461641  -0.209274
H    -0.285159  0.677568  0.872268
C    -0.651924  -0.795094  2.387422
C    -0.491855  -2.291076  2.747407
C    0.377615  -2.613423  3.907525
O    0.114875  -3.573975  4.700051
O    1.476819  -1.929661  4.154203
H    -1.707263  -0.641762  2.126115
H    -0.479131  -0.135973  3.249731
H    -0.056904  -2.813632  1.869230
H    -1.460472  -2.770784  2.928550
O    2.167003  0.748533  0.510058
H    3.116512  0.929845  0.695137
H    1.861352  -0.971817  3.145281
Ca    1.848063  -3.283736  5.928210
