20
Energy: -33557.1383505 eV PBE+vdW (tier 2 basis)
N    0.009667  -1.072506  0.049452
C    -0.272268  -0.324893  1.223835
C    0.791813  0.783254  1.343118
O    1.850177  0.757758  0.773116
H    0.943772  -0.924469  -0.332249
H    -0.310879  -2.033352  -0.002018
H    -1.259206  0.200364  1.150982
C    -0.345588  -1.211408  2.492921
C    -0.905287  -0.465967  3.737947
C    -2.226606  0.154864  3.570019
O    -2.558579  1.333753  3.851998
O    -3.335919  -0.576657  3.168354
H    0.642877  -1.614676  2.752688
H    -0.975920  -2.086731  2.263195
H    -0.228139  0.323670  4.081725
H    -0.998604  -1.209093  4.552078
O    0.379529  1.779669  2.171773
H    1.102129  2.441012  2.205912
H    -3.152729  -1.510671  2.940021
Ca    -4.676642  1.452779  3.538996
