20
Energy: -33558.9322308 eV PBE+vdW (tier 2 basis)
N    0.123307  0.869428  0.609244
C    0.189247  0.015631  1.836585
C    1.657290  -0.316372  2.101243
O    2.495008  -0.225851  1.175543
H    -0.706273  0.519721  0.036085
H    -0.112300  1.828459  0.885780
H    -0.214526  0.566708  2.701424
C    -0.590957  -1.321442  1.687655
C    -2.118223  -1.208787  1.531772
C    -2.592258  -0.880758  0.130848
O    -1.916168  -0.270132  -0.703629
O    -3.818045  -1.313644  -0.099350
H    -0.395924  -1.922170  2.587228
H    -0.168939  -1.897777  0.849245
H    -2.544312  -0.451971  2.211492
H    -2.581684  -2.156869  1.835101
O    2.078877  -0.740193  3.258332
H    1.390714  -0.766883  3.954305
H    -4.107865  -1.049827  -0.998619
Ca    2.090425  0.698069  -0.720001
