20
Energy: -33559.4421567 eV PBE+vdW (tier 2 basis)
N    1.185198  -2.590829  3.958606
C    1.371716  -2.217062  2.493873
C    1.400310  -0.692535  2.421131
O    1.801981  -0.137991  1.360157
H    2.087753  -2.659226  4.451195
H    0.699255  -3.491043  4.075408
H    2.323691  -2.647192  2.161525
C    0.215784  -2.744702  1.608122
C    -1.071698  -1.879759  1.579014
C    -1.114829  -0.927470  0.404365
O    -1.138991  -1.203022  -0.749330
O    -1.181165  0.485211  0.790929
H    -0.031964  -3.766693  1.929460
H    0.610105  -2.851309  0.589050
H    -1.269322  -1.358996  2.523546
H    -1.928070  -2.548027  1.405450
O    0.847135  -0.037100  3.375216
H    0.643130  -1.834414  4.418228
H    -1.541855  0.911204  -0.018312
Ca    0.572837  1.649954  1.890367
