20
Energy: -33559.2325915 eV PBE+vdW (tier 2 basis)
N    -0.192690  0.580658  0.442122
C    -0.050669  -0.075910  1.794939
C    1.419693  -0.049095  2.210369
O    1.734009  -0.371697  3.403214
H    -0.269536  1.602874  0.510469
H    -1.067506  0.194655  -0.038868
H    -0.612710  0.530898  2.519775
C    -0.597977  -1.522019  1.803383
C    -2.131896  -1.685170  1.804399
C    -2.880275  -1.645133  0.486962
O    -3.829067  -2.306599  0.195594
O    -2.363049  -0.685799  -0.404640
H    -0.229031  -1.968537  2.736324
H    -0.139060  -2.097306  0.984082
H    -2.376358  -2.661467  2.240011
H    -2.604509  -0.941401  2.467717
O    2.324495  0.274121  1.359767
H    0.636230  0.376735  -0.135826
H    -2.924558  -0.702487  -1.208116
Ca    3.849373  -0.045652  2.957208
