20
Energy: -33558.7132572 eV PBE+vdW (tier 2 basis)
N    -0.596344  0.179974  0.280795
C    -0.282873  -0.045972  1.655595
C    1.160425  0.222794  2.080801
O    1.502739  0.461843  3.295503
H    -0.464200  1.136302  -0.039724
H    -0.170587  -0.473782  -0.373541
H    -0.867926  0.671744  2.259206
C    -0.728470  -1.487719  2.046246
C    -0.473995  -2.014657  3.479657
C    -1.024754  -1.176990  4.596093
O    -1.990989  -1.571270  5.321865
O    -0.495950  -0.007379  4.881772
H    -0.240280  -2.195306  1.361162
H    -1.800598  -1.521006  1.814513
H    0.605218  -2.137174  3.668071
H    -0.926431  -3.010130  3.559216
O    2.069217  0.249248  1.167575
H    2.965073  0.446667  1.525995
H    0.711612  0.359049  3.953171
Ca    -1.876469  0.111490  6.663462
