20
Energy: -33559.5847833 eV PBE+vdW (tier 2 basis)
N    -0.632808  0.975369  2.226907
C    0.664484  0.287463  1.835479
C    1.268605  1.276792  0.810829
O    0.656768  2.280065  0.493809
H    -1.468075  0.415969  2.016839
H    -0.626257  1.842657  1.608316
H    1.316865  0.256929  2.718461
C    0.445852  -1.115944  1.256598
C    0.062238  -2.212922  2.259466
C    1.200968  -2.859616  3.017174
O    2.416474  -2.458977  2.890916
O    0.942528  -3.860794  3.780196
H    1.376272  -1.396065  0.746366
H    -0.321218  -1.059200  0.468631
H    -0.443407  -3.035344  1.729861
H    -0.679614  -1.891793  3.009485
O    2.456329  0.892678  0.374756
H    2.800136  1.551019  -0.267187
H    -0.669871  1.263593  3.210887
Ca    3.045731  -4.162878  4.136213
