20
Energy: -33559.6074105 eV PBE+vdW (tier 2 basis)
N    1.186189  -1.924910  1.286298
C    0.484849  -0.600557  1.214947
C    1.328722  0.516613  1.818020
O    2.519484  0.278896  2.230663
H    0.569660  -2.562125  0.614910
H    1.211094  -2.311779  2.236992
H    0.405914  -0.376286  0.138592
C    -0.938761  -0.659123  1.817894
C    -1.777175  -1.935942  1.546178
C    -1.648243  -2.561320  0.173165
O    -0.562983  -2.922929  -0.306045
O    -2.796412  -2.728106  -0.449219
H    -1.470254  0.220488  1.434865
H    -0.882942  -0.533646  2.908297
H    -2.829067  -1.705333  1.747105
H    -1.500938  -2.731747  2.256820
O    0.844105  1.696805  1.878391
H    2.155646  -1.870074  0.951405
H    -2.654566  -3.194181  -1.302245
Ca    2.727680  2.436256  2.703965
