25
Energy: -37166.8185871 eV PBE+vdW (tier 2 basis)
C    0.678927  -1.541680  1.352829
C    0.363131  -0.096312  1.559794
O    1.056641  0.812230  1.026359
H    -0.063435  -2.214870  1.792856
H    0.804915  -1.754370  0.285178
H    1.646926  -1.737686  1.837490
N    -0.677612  0.264329  2.365457
C    -2.043261  -0.259592  2.235662
C    -2.350636  -0.562254  0.750201
O    -1.765781  0.079683  -0.164690
H    -0.706834  1.281179  2.516451
H    -2.189620  -1.158510  2.852435
C    -3.016494  0.866493  2.693759
C    -3.013606  2.049718  1.696162
O    -4.014532  2.323958  1.057005
O    -1.832284  2.640480  1.550207
H    -2.711655  1.196499  3.697372
H    -4.034990  0.470174  2.756592
N    -3.283780  -1.472443  0.498973
C    -3.819802  -1.759227  -0.829518
H    -3.720435  -1.929169  1.294533
H    -4.088331  -2.818593  -0.886522
H    -3.056348  -1.534391  -1.579000
H    -4.708813  -1.145432  -1.025126
Ca    -0.589293  2.025785  -0.030459
