25
Energy: -37166.7260641 eV PBE+vdW (tier 2 basis)
C    0.739157  -0.663995  0.551704
C    0.383295  0.156501  1.756359
O    1.297954  0.599892  2.510172
H    -0.131820  -0.991678  -0.025335
H    1.299716  -1.547867  0.883900
H    1.402718  -0.082515  -0.100831
N    -0.915541  0.384896  1.989928
C    -1.507374  0.977892  3.203295
C    -2.848692  0.266238  3.519325
O    -2.944775  -0.349922  4.570290
H    -1.564420  -0.053187  1.342497
H    -0.867174  0.697562  4.047992
C    -1.611141  2.530422  3.194165
C    -0.210343  3.071844  3.343656
O    0.435701  3.467614  2.311707
O    0.385394  2.920789  4.469166
H    -2.212896  2.822477  4.064728
H    -2.070703  2.913889  2.279099
N    -3.854557  0.288992  2.590403
C    -4.088699  1.205751  1.477980
H    -4.670826  -0.221056  2.922436
H    -4.796734  0.737908  0.785472
H    -4.511830  2.166214  1.808281
H    -3.171603  1.411895  0.913903
Ca    2.157192  2.458444  3.274708
