25
Energy: -37167.1199916 eV PBE+vdW (tier 2 basis)
C    -1.808000  1.060602  1.111315
C    -1.564816  0.032095  2.170220
O    -2.518292  -0.610975  2.677737
H    -2.606256  0.722456  0.442677
H    -0.912800  1.306271  0.529863
H    -2.151146  1.973102  1.622189
N    -0.285847  -0.165455  2.557589
C    0.149491  -0.889306  3.765751
C    -0.476024  -2.301605  3.810675
O    -1.461799  -2.592252  4.535594
H    0.393778  0.484646  2.173858
H    1.226387  -1.047789  3.619492
C    -0.007648  -0.067883  5.075150
C    -1.289600  0.790438  5.107290
O    -1.283576  1.890398  4.569572
O    -2.334732  0.216603  5.662205
H    0.845429  0.618462  5.132530
H    0.038328  -0.754864  5.929361
N    0.099198  -3.248824  3.062767
C    1.254712  -3.130007  2.175616
H    -0.337935  -4.164214  3.145690
H    1.091401  -2.363458  1.408719
H    1.395099  -4.090728  1.672537
H    2.172067  -2.904354  2.735754
Ca    -3.289418  -1.302359  4.649850
