25
Energy: -37166.6902876 eV PBE+vdW (tier 2 basis)
C    0.488493  0.402879  0.043554
C    0.263862  -0.088295  1.451243
O    1.146662  -0.558899  2.164244
H    -0.436211  0.505622  -0.536672
H    1.172357  -0.280762  -0.470639
H    0.981128  1.383989  0.089640
N    -1.023418  0.001869  1.939511
C    -1.236944  -0.241701  3.349765
C    -0.793658  -1.631911  3.842471
O    -0.378021  -1.720721  5.044974
H    -1.741991  0.479977  1.407411
H    -0.595830  0.436018  3.934875
C    -2.708847  0.050507  3.761831
C    -2.768696  -0.155510  5.263701
O    -3.207887  -1.259524  5.730818
O    -2.129982  0.664692  6.012848
H    -3.416718  -0.615817  3.255212
H    -2.931640  1.096564  3.514135
N    -0.911750  -2.744819  3.127353
C    -1.381771  -2.953994  1.760462
H    -0.543438  -3.563658  3.607056
H    -1.696315  -3.998786  1.673621
H    -0.582339  -2.762636  1.033048
H    -2.239314  -2.316114  1.536106
Ca    -1.329731  -1.170970  6.937433
