25
Energy: -37166.7459067 eV PBE+vdW (tier 2 basis)
C    0.246464  -1.039894  0.264605
C    -0.180203  -0.311148  1.499822
O    0.676929  0.023461  2.385273
H    1.243804  -0.688429  -0.020911
H    -0.447654  -0.899057  -0.570276
H    0.319572  -2.114019  0.487110
N    -1.469325  -0.016726  1.704200
C    -2.642340  -0.794467  1.327755
C    -3.830008  0.103393  1.768014
O    -3.644160  0.989123  2.601724
H    -1.718039  0.609934  2.487387
H    -2.668154  -0.966810  0.244178
C    -2.686413  -2.193826  2.076096
C    -1.627485  -2.222049  3.163191
O    -0.514443  -2.815578  2.929164
O    -1.769103  -1.505438  4.211532
H    -2.492357  -3.005453  1.367927
H    -3.677576  -2.336823  2.523203
N    -5.024093  -0.181090  1.215477
C    -6.239584  0.537709  1.588637
H    -5.085720  -0.907975  0.512294
H    -6.516381  0.325106  2.629090
H    -7.050581  0.220365  0.927279
H    -6.088381  1.618501  1.484241
Ca    0.447231  -1.243810  4.183987
