25
Energy: -37166.6717759 eV PBE+vdW (tier 2 basis)
C    0.333908  -1.035313  0.497902
C    -0.081440  -0.468936  1.819465
O    0.734482  -0.448006  2.801488
H    -0.228897  -0.609621  -0.339338
H    0.181866  -2.124107  0.508121
H    1.403501  -0.846590  0.357915
N    -1.320046  0.004649  1.997194
C    -2.556935  -0.476588  1.398228
C    -3.620231  0.547163  1.872140
O    -3.376342  1.249459  2.852918
H    -1.536057  0.524929  2.862230
H    -2.478182  -0.493550  0.304987
C    -2.932665  -1.933890  1.913174
C    -1.975767  -2.340060  3.018468
O    -0.963505  -3.072198  2.727581
O    -2.076104  -1.805989  4.175056
H    -2.860874  -2.652917  1.091383
H    -3.956639  -1.932398  2.305539
N    -4.790573  0.582211  1.199243
C    -5.147090  -0.140684  -0.016411
H    -5.461252  1.245262  1.577382
H    -4.484461  0.113243  -0.855785
H    -6.163162  0.149434  -0.298691
H    -5.144431  -1.229308  0.130547
Ca    0.144896  -1.954194  4.309264
