25
Energy: -37166.607783 eV PBE+vdW (tier 2 basis)
C    0.084442  -2.035474  2.814316
C    0.096213  -0.583620  3.248236
O    1.082428  -0.037062  3.715611
H    0.073415  -2.119322  1.717605
H    1.001009  -2.504670  3.180809
H    -0.781660  -2.584494  3.209395
N    -1.088048  0.133291  3.123118
C    -2.258178  -0.221265  2.354077
C    -1.970946  -0.105531  0.836720
O    -1.478328  0.945719  0.330786
H    -1.013402  1.113098  3.397900
H    -2.541805  -1.262090  2.572866
C    -3.471272  0.672837  2.763345
C    -3.222633  2.078563  2.262701
O    -2.232891  2.740953  2.751294
O    -3.807556  2.488983  1.205948
H    -3.541351  0.647511  3.858144
H    -4.396913  0.283471  2.326964
N    -2.229872  -1.172889  0.088271
C    -2.014302  -1.246224  -1.353867
H    -2.613407  -1.988752  0.555638
H    -1.855287  -2.291064  -1.636213
H    -2.883315  -0.855063  -1.899230
H    -1.129231  -0.660077  -1.619145
Ca    -1.759109  3.121172  0.631711
