25
Energy: -37166.869193 eV PBE+vdW (tier 2 basis)
C    -1.976125  0.352176  -0.111735
C    -1.118975  -0.302490  0.943254
O    -0.309329  -1.196176  0.697838
H    -2.705197  1.063793  0.292855
H    -2.496794  -0.425851  -0.682301
H    -1.319928  0.883108  -0.813536
N    -1.265923  0.168934  2.224957
C    -0.456234  -0.397250  3.286003
C    -0.882821  -1.857097  3.553539
O    -2.086865  -2.138087  3.863567
H    -2.026769  0.789587  2.487445
H    0.585416  -0.400835  2.943570
C    -0.527067  0.479638  4.568144
C    -1.900127  0.346980  5.187467
O    -2.923941  0.734610  4.510112
O    -2.055866  -0.365985  6.233833
H    -0.324972  1.516941  4.270697
H    0.233788  0.159319  5.287421
N    0.014193  -2.828763  3.468517
C    1.394769  -2.737520  2.986747
H    -0.357027  -3.758900  3.651785
H    1.406483  -2.283296  1.987939
H    1.795122  -3.753008  2.925196
H    2.022046  -2.164969  3.680652
Ca    -3.696859  -1.272858  5.064035
