25
Energy: -37166.5050134 eV PBE+vdW (tier 2 basis)
C    -0.283316  -1.246126  0.565577
C    -0.261545  0.195447  0.941721
O    0.678564  0.963060  0.539287
H    -0.544358  -1.863973  1.431567
H    -1.049143  -1.418515  -0.205082
H    0.689608  -1.519207  0.148573
N    -1.227196  0.751526  1.705617
C    -2.682046  0.521032  1.667745
C    -3.098382  -0.804649  2.359907
O    -2.264850  -1.566554  2.833591
H    -1.004621  1.718764  1.932585
H    -3.085233  1.336045  2.283495
C    -3.257444  0.688558  0.213265
C    -2.304448  1.526298  -0.622339
O    -1.666801  0.961152  -1.579290
O    -1.999505  2.715313  -0.256810
H    -4.233136  1.189692  0.264441
H    -3.390743  -0.282605  -0.275106
N    -4.438194  -1.012928  2.397800
C    -5.033124  -2.176517  3.044545
H    -5.063552  -0.298165  2.043151
H    -5.798993  -2.617136  2.395713
H    -5.486763  -1.906669  4.007580
H    -4.240274  -2.908758  3.222122
Ca    0.039046  2.294078  -1.099378
