25
Energy: -37166.27148 eV PBE+vdW (tier 2 basis)
C    -0.408785  0.488644  -0.665591
C    0.042616  0.148007  0.739383
O    1.222546  0.050855  1.036098
H    0.244072  -0.037156  -1.370006
H    -0.251921  1.565117  -0.821924
H    -1.454896  0.263170  -0.901245
N    -0.916695  -0.048769  1.728292
C    -2.361370  -0.067685  1.627514
C    -2.875341  -1.140677  0.630462
O    -3.855647  -0.946390  -0.152273
H    -0.501863  -0.188913  2.645390
H    -2.735191  -0.437823  2.597258
C    -2.927622  1.374496  1.454475
C    -4.392630  1.382389  1.108189
O    -4.770459  1.905973  0.001813
O    -5.208742  0.673175  1.798571
H    -2.378823  1.915058  0.678326
H    -2.760148  1.890193  2.409438
N    -2.299329  -2.345204  0.621709
C    -1.266083  -2.926256  1.483220
H    -2.708460  -2.968880  -0.070440
H    -1.325173  -4.013496  1.372555
H    -1.445997  -2.682417  2.535789
H    -0.260986  -2.594024  1.200494
Ca    -5.850849  0.023828  -0.210532
