25
Energy: -37167.0255084 eV PBE+vdW (tier 2 basis)
C    -1.907728  2.487233  0.250205
C    -1.288145  2.002508  1.534154
O    -0.071028  2.091281  1.748232
H    -3.003239  2.507330  0.265215
H    -1.579521  1.824717  -0.562497
H    -1.525191  3.489138  0.025519
N    -2.147293  1.464744  2.454935
C    -1.798124  0.686885  3.641818
C    -1.012707  1.415402  4.754140
O    -1.248146  1.097053  5.969285
H    -3.128096  1.438155  2.199516
H    -2.754045  0.431825  4.115558
C    -1.101761  -0.674460  3.287262
C    -0.919251  -1.404325  4.598969
O    0.211888  -1.361784  5.193889
O    -1.964966  -1.815225  5.219569
H    -0.139025  -0.503818  2.795211
H    -1.775330  -1.230664  2.624790
N    -0.093720  2.292156  4.414301
C    0.744042  3.002677  5.369299
H    0.094551  2.356834  3.384964
H    1.608880  2.389920  5.660717
H    0.165971  3.255116  6.264085
H    1.108091  3.921089  4.899475
Ca    -1.023108  -0.845787  6.962391
