25
Energy: -37166.5631633 eV PBE+vdW (tier 2 basis)
C    1.007542  0.014930  0.367424
C    -0.155251  -0.163874  1.316035
O    -1.312985  0.103660  1.013938
H    1.258069  1.083886  0.319491
H    0.696790  -0.292292  -0.636645
H    1.908695  -0.538153  0.658754
N    0.178171  -0.665843  2.562089
C    -0.665428  -0.666914  3.746183
C    -1.401204  -1.984266  4.088471
O    -1.632145  -2.215600  5.323440
H    1.164128  -0.824094  2.737257
H    0.025472  -0.569955  4.595988
C    -1.621001  0.567632  3.859898
C    -2.199928  0.543990  5.255089
O    -3.402747  0.146281  5.432572
O    -1.409735  0.677548  6.259224
H    -2.408654  0.545024  3.104780
H    -1.004614  1.463983  3.717292
N    -1.781473  -2.893369  3.200451
C    -1.747784  -2.895424  1.736985
H    -2.201158  -3.710161  3.641496
H    -1.997723  -1.906498  1.339815
H    -2.495763  -3.616409  1.394003
H    -0.762673  -3.206216  1.367288
Ca    -2.484600  -1.082864  7.015683
