25
Energy: -37166.1770352 eV PBE+vdW (tier 2 basis)
C    0.476193  0.293018  0.834722
C    -0.353571  -0.485893  1.802047
O    0.117812  -1.550260  2.328897
H    1.234388  -0.379492  0.421951
H    -0.126764  0.727854  0.031240
H    0.997122  1.106644  1.359667
N    -1.604913  -0.114925  2.133092
C    -2.131404  1.243202  2.389278
C    -1.771855  2.224207  1.237599
O    -2.296911  1.977597  0.155639
H    -2.074300  -0.821622  2.701261
H    -3.215259  1.159061  2.243989
C    -1.914884  1.603847  3.913967
C    -0.863340  0.697056  4.514762
O    0.383313  0.902480  4.289108
O    -1.240054  -0.384102  5.092194
H    -2.855757  1.430273  4.446057
H    -1.643681  2.655781  4.033996
N    -0.987314  3.319833  1.412167
C    -0.077032  3.735477  2.474060
H    -0.983819  3.891060  0.569922
H    -0.561345  4.409796  3.196236
H    0.753249  4.283712  2.014327
H    0.345553  2.878186  3.007519
Ca    0.660970  -1.320110  4.447218
