25
Energy: -37166.931979 eV PBE+vdW (tier 2 basis)
C    0.603345  0.589559  0.845857
C    -0.062604  0.971233  2.144341
O    0.195447  1.981695  2.780716
H    1.649659  0.909816  0.871523
H    0.111499  1.133393  0.026731
H    0.549577  -0.483903  0.626964
N    -1.025801  0.075520  2.617852
C    -1.924477  0.508159  3.673361
C    -1.307682  0.347814  5.079915
O    -1.847583  0.896692  6.089179
H    -1.344696  -0.661831  1.996944
H    -2.078164  1.594542  3.575302
C    -3.302378  -0.195415  3.533330
C    -4.192336  0.293010  4.656275
O    -4.418820  -0.465114  5.658598
O    -4.493468  1.538276  4.697135
H    -3.204337  -1.286696  3.584982
H    -3.727956  0.095726  2.564243
N    -0.196434  -0.361945  5.169809
C    0.583001  -0.571059  6.379818
H    0.162098  -0.704913  4.278937
H    1.544145  -0.046860  6.303833
H    0.767876  -1.641973  6.523685
H    0.026596  -0.179035  7.234583
Ca    -3.873506  1.359310  6.799088
