25
Energy: -37166.4152641 eV PBE+vdW (tier 2 basis)
C    -0.218654  -0.037808  0.374356
C    -0.016093  0.502019  1.753415
O    0.968033  1.269061  2.009154
H    -1.246830  -0.360924  0.185745
H    0.456455  -0.891415  0.212400
H    0.062698  0.742842  -0.341634
N    -0.869104  0.175139  2.746581
C    -1.406175  -1.191637  2.903872
C    -2.927235  -1.302461  3.155720
O    -3.558801  -2.083080  2.453890
H    -0.660642  0.659480  3.620917
H    -1.272304  -1.695990  1.943941
C    -0.557683  -1.974087  3.973301
C    0.851468  -1.427392  3.926591
O    1.187973  -0.515601  4.768097
O    1.618567  -1.705528  2.938817
H    -0.583446  -3.038021  3.711818
H    -0.963224  -1.841759  4.981695
N    -3.502747  -0.579373  4.155506
C    -2.925428  0.430799  5.029753
H    -4.507418  -0.725219  4.211640
H    -3.586033  0.560489  5.893067
H    -2.823484  1.409423  4.535514
H    -1.950363  0.118768  5.428309
Ca    2.551454  0.298713  3.217752
