25
Energy: -37166.7019986 eV PBE+vdW (tier 2 basis)
C    -0.253604  -1.533377  -0.139643
C    0.143615  -0.484179  0.874657
O    1.295938  -0.237178  1.175790
H    -0.733587  -2.391724  0.353249
H    -0.949823  -1.146366  -0.896784
H    0.655186  -1.886321  -0.633386
N    -0.891290  0.255275  1.471367
C    -2.309515  -0.029691  1.418090
C    -3.049111  0.840365  0.367177
O    -4.267824  0.637417  0.076232
H    -0.554941  0.827282  2.244327
H    -2.467778  -1.064422  1.080615
C    -2.928116  0.078020  2.843125
C    -4.416243  -0.165915  2.751322
O    -5.225049  0.817514  2.862440
O    -4.826659  -1.302565  2.322014
H    -2.741616  1.067695  3.277754
H    -2.451013  -0.690858  3.463626
N    -2.321858  1.768183  -0.233061
C    -2.786073  2.676545  -1.270431
H    -1.347412  1.801879  0.073469
H    -2.114747  2.624299  -2.135403
H    -3.794952  2.386543  -1.574824
H    -2.801006  3.707063  -0.893660
Ca    -6.121524  -0.061484  1.048936
