25
Energy: -37167.181139 eV PBE+vdW (tier 2 basis)
C    1.355475  -1.321391  1.826757
C    0.720830  -0.072645  2.363386
O    1.457953  0.887709  2.756794
H    1.955215  -1.070572  0.942041
H    0.625904  -2.091279  1.557281
H    2.042024  -1.721916  2.583807
N    -0.606410  -0.029486  2.403346
C    -1.483993  0.979197  2.987846
C    -2.794158  0.196594  3.275390
O    -2.975718  -0.882408  2.705327
H    -1.164159  -0.852130  2.122923
H    -1.031960  1.362351  3.912732
C    -1.770837  2.176755  2.035104
C    -0.510389  3.001827  1.942721
O    0.228861  2.931543  0.902877
O    -0.099069  3.600447  3.001424
H    -2.574353  2.790205  2.460306
H    -2.076969  1.811517  1.048977
N    -3.690927  0.737742  4.125126
C    -3.614786  1.978576  4.883778
H    -4.540706  0.185386  4.214019
H    -4.044921  1.818710  5.879026
H    -2.575401  2.294562  5.018864
H    -4.168273  2.792470  4.393076
Ca    1.905767  2.966237  2.345071
