25
Energy: -37166.9520072 eV PBE+vdW (tier 2 basis)
C    0.513771  -1.511009  0.965860
C    0.303949  -0.090914  1.379092
O    0.958184  0.850814  0.864905
H    -0.284811  -2.178030  1.308682
H    0.644315  -1.585300  -0.117978
H    1.448129  -1.848981  1.440689
N    -0.572542  0.190244  2.404293
C    -2.007987  -0.125901  2.338030
C    -2.422251  -0.372251  0.868026
O    -1.829577  0.225862  -0.064536
H    -0.437629  1.162126  2.719914
H    -2.265566  -0.995768  2.960692
C    -2.797694  1.129999  2.870357
C    -2.352991  2.320475  2.020366
O    -2.940094  2.577171  0.931695
O    -1.196470  2.824375  2.287873
H    -2.541404  1.277905  3.926595
H    -3.873688  0.951510  2.773938
N    -3.432732  -1.214197  0.663366
C    -4.038505  -1.477023  -0.638374
H    -3.842402  -1.663577  1.477021
H    -5.003625  -0.961423  -0.723815
H    -4.191381  -2.554732  -0.760839
H    -3.365567  -1.112168  -1.418277
Ca    -0.742431  2.287793  0.127425
