25
Energy: -37167.3814355 eV PBE+vdW (tier 2 basis)
C    0.608182  0.852702  -0.327464
C    0.040425  -0.376285  0.330471
O    0.420597  -1.504688  -0.042681
H    1.699426  0.759410  -0.370727
H    0.240572  0.885131  -1.362288
H    0.343486  1.791528  0.170846
N    -0.870755  -0.141813  1.311715
C    -1.705438  -1.018437  2.165136
C    -0.888621  -2.154611  2.819022
O    -0.292130  -3.036038  2.164147
H    -1.063316  0.843311  1.455750
H    -2.026536  -0.349293  2.974701
C    -3.025439  -1.526172  1.497166
C    -2.705522  -2.574346  0.443109
O    -2.643028  -3.796910  0.790050
O    -2.235014  -2.168069  -0.670510
H    -3.529564  -0.661149  1.048696
H    -3.661992  -1.952927  2.281926
N    -0.877669  -2.163335  4.156634
C    -0.213818  -3.207853  4.931761
H    -1.350981  -1.419844  4.656406
H    0.873355  -3.163870  4.790475
H    -0.570711  -4.195209  4.616203
H    -0.446859  -3.058573  5.989301
Ca    -0.528651  -3.543662  -0.063845
