25
Energy: -37166.491338 eV PBE+vdW (tier 2 basis)
C    -0.774928  -2.033685  -0.059062
C    -0.507599  -1.361421  1.247205
O    0.013147  -1.999625  2.222454
H    -0.807232  -1.329110  -0.896112
H    -1.738465  -2.561596  -0.004019
H    0.004545  -2.783323  -0.232331
N    -0.836724  -0.070822  1.427309
C    -2.025419  0.612525  0.878102
C    -1.863454  2.126882  1.163332
O    -1.621637  2.897672  0.247313
H    -0.534897  0.306608  2.326202
H    -2.022387  0.522900  -0.212279
C    -3.366842  -0.010163  1.441372
C    -3.062102  -0.927888  2.602540
O    -3.124144  -2.195376  2.435004
O    -2.549726  -0.448538  3.681232
H    -3.869605  -0.585190  0.658132
H    -4.037096  0.798700  1.759061
N    -1.957332  2.473560  2.477852
C    -1.827068  3.857390  2.918496
H    -2.280850  1.780237  3.149824
H    -1.251850  4.406196  2.166651
H    -1.301749  3.893272  3.879430
H    -2.808496  4.339703  3.026724
Ca    -1.434090  -2.407907  3.843568
