25
Energy: -37166.6388562 eV PBE+vdW (tier 2 basis)
C    -0.167480  0.424983  0.083903
C    -0.670959  -0.143969  1.385540
O    -1.841130  -0.467713  1.582756
H    0.925348  0.423954  -0.002095
H    -0.524229  1.460151  -0.005918
H    -0.602700  -0.141076  -0.746910
N    0.256647  -0.309187  2.388938
C    -0.189347  -0.670361  3.724825
C    -1.184750  -1.856036  3.669577
O    -2.253682  -1.889994  4.351039
H    1.207021  0.022053  2.265797
H    0.682524  -1.065240  4.271412
C    -0.693397  0.599348  4.465658
C    -1.436575  0.276952  5.737440
O    -2.635242  0.704359  5.879264
O    -0.962913  -0.598919  6.544277
H    -1.358537  1.171356  3.811277
H    0.188339  1.215044  4.691468
N    -0.831982  -2.967314  3.013875
C    0.345775  -3.258346  2.205544
H    -1.559338  -3.677900  3.026515
H    0.237636  -2.883257  1.179376
H    0.468113  -4.345864  2.171633
H    1.247708  -2.829592  2.652870
Ca    -3.030850  -1.392431  6.337942
