25
Energy: -37167.2634398 eV PBE+vdW (tier 2 basis)
C    0.499353  -0.464930  0.843688
C    -0.050882  -0.165499  2.206775
O    0.370873  -0.821248  3.212508
H    0.341978  -1.529184  0.625520
H    1.582881  -0.288452  0.844356
H    0.039701  0.137168  0.053819
N    -0.971752  0.788221  2.298627
C    -1.776305  1.198836  3.444228
C    -3.031426  1.848499  2.792926
O    -2.982918  2.194994  1.611506
H    -1.320777  1.255013  1.446570
H    -2.055624  0.314203  4.034682
C    -1.060146  2.218493  4.376814
C    0.042168  1.486571  5.103607
O    -0.287254  0.576578  5.946756
O    1.257502  1.626258  4.733853
H    -1.785556  2.599177  5.106868
H    -0.660192  3.054327  3.792537
N    -4.096046  2.004089  3.602148
C    -5.338799  2.635402  3.172879
H    -4.044613  1.641821  4.548193
H    -5.568195  3.501305  3.806108
H    -6.170823  1.921858  3.221600
H    -5.211301  2.967661  2.138919
Ca    1.402152  -0.551158  5.098514
