25
Energy: -37166.6027299 eV PBE+vdW (tier 2 basis)
C    -0.291867  0.553465  -0.213270
C    -0.097549  0.219601  1.244339
O    0.940256  0.438929  1.857341
H    0.578089  0.200276  -0.778474
H    -0.324034  1.646101  -0.319437
H    -1.205991  0.130059  -0.645869
N    -1.176800  -0.385431  1.873437
C    -1.186037  -0.537814  3.314889
C    -1.427677  -2.002388  3.732529
O    -2.289654  -2.348698  4.601324
H    -2.058839  -0.449332  1.375195
H    -0.148186  -0.307882  3.620757
C    -2.121885  0.528266  3.945510
C    -2.448603  0.233929  5.386839
O    -3.674262  0.083074  5.729334
O    -1.508720  -0.092502  6.194799
H    -3.063430  0.598128  3.388846
H    -1.601351  1.492068  3.860803
N    -0.672744  -2.955315  3.183456
C    0.462434  -2.846322  2.267800
H    -0.920939  -3.892237  3.494005
H    1.134352  -3.687540  2.466599
H    1.013233  -1.914113  2.429483
H    0.133533  -2.893356  1.221978
Ca    -2.902329  -1.743965  6.642787
