25
Energy: -37166.5771718 eV PBE+vdW (tier 2 basis)
C    -0.169235  -0.794868  0.217359
C    -0.309982  0.126280  1.382778
O    0.649178  0.886255  1.736748
H    -0.784091  -0.438264  -0.622386
H    0.878689  -0.821235  -0.091801
H    -0.514951  -1.805897  0.462946
N    -1.459236  0.180726  2.096979
C    -2.840880  0.122787  1.564897
C    -3.136519  -1.194234  0.780413
O    -3.373105  -1.184732  -0.420546
H    -1.381157  0.828225  2.882032
H    -3.476774  0.120462  2.458985
C    -3.191847  1.379675  0.696420
C    -2.049760  2.367942  0.716172
O    -1.224208  2.394715  -0.265275
O    -1.799401  3.045054  1.779443
H    -4.094950  1.852741  1.098587
H    -3.376535  1.041115  -0.329813
N    -3.100409  -2.308046  1.551787
C    -3.367676  -3.642163  1.029632
H    -2.919889  -2.207483  2.544834
H    -4.278586  -4.060505  1.476733
H    -2.526009  -4.315117  1.237425
H    -3.508142  -3.559205  -0.052084
Ca    0.338987  3.009348  1.167166
