25
Energy: -37166.5781148 eV PBE+vdW (tier 2 basis)
C    -0.208784  0.410960  0.240011
C    -0.211922  0.500750  1.729224
O    0.562178  1.307974  2.338930
H    0.632797  0.988125  -0.150743
H    -1.146355  0.817298  -0.167364
H    -0.138680  -0.630668  -0.095556
N    -1.036118  -0.273038  2.474594
C    -2.445025  -0.619124  2.171126
C    -2.604368  -1.394496  0.825580
O    -3.188759  -0.903367  -0.131480
H    -0.890038  -0.119639  3.472886
H    -2.736210  -1.301182  2.979557
C    -3.380908  0.636673  2.203802
C    -2.614225  1.853309  2.666639
O    -2.231590  1.950199  3.889653
O    -2.192645  2.698084  1.798575
H    -4.215149  0.444411  2.888302
H    -3.766058  0.800864  1.190800
N    -2.036725  -2.624860  0.834884
C    -2.089488  -3.529907  -0.306259
H    -1.607019  -2.956928  1.691463
H    -1.085370  -3.898901  -0.548810
H    -2.491252  -2.976219  -1.159874
H    -2.744880  -4.385950  -0.098768
Ca    -0.481407  3.098633  3.133830
