14
Energy: -96000.7423442 eV PBE+vdW (tier 2 basis)
N    0.167638  0.095281  0.200567
C    0.171159  0.210204  1.703054
C    1.490832  -0.340702  2.227668
O    2.464639  -0.576895  1.474928
H    -0.406399  -0.726500  -0.031559
H    -0.387897  0.877159  -0.163761
H    0.206265  1.286657  1.948986
H    -1.044693  -0.252723  3.447609
C    -1.065017  -0.405990  2.362755
H    -1.970764  0.075737  1.975209
H    -1.124798  -1.486590  2.171904
H    2.415048  -0.815711  3.823187
O    1.533837  -0.504839  3.517012
Sr    2.547151  -0.230086  -0.814560
