14
Energy: -96001.2842783 eV PBE+vdW (tier 2 basis)
N    -0.138911  0.128407  0.070920
C    -0.065783  -0.065824  1.581922
C    1.418462  -0.080520  1.974430
O    2.299058  0.223299  1.093560
H    -0.229806  -0.776214  -0.413961
H    0.742758  0.569018  -0.250811
H    -0.940819  0.710168  -0.206865
H    -0.494404  0.844984  2.028632
C    -0.852591  -1.292790  2.021870
H    -1.910525  -1.197088  1.747324
H    -0.799838  -1.382948  3.112538
H    -0.447334  -2.215139  1.583121
O    1.728070  -0.357133  3.171888
Sr    4.026663  -0.000220  2.781432
