14
Energy: -96000.5874991 eV PBE+vdW (tier 2 basis)
N    0.242634  0.463397  0.433303
C    0.511525  0.078639  1.862071
C    1.932245  -0.487689  1.943105
O    2.755108  -0.275450  1.028293
H    -0.272230  -0.315123  0.000827
H    -0.444989  1.224782  0.443563
H    0.559901  1.017808  2.442311
H    -1.551050  -0.343941  2.371585
C    -0.568641  -0.822680  2.467088
H    -0.605095  -1.805404  1.977522
H    -0.420359  -0.975817  3.546086
H    1.631118  -1.315907  3.647027
O    2.333629  -1.160598  2.981801
Sr    2.463203  0.855982  -0.942583
