14
Energy: -96000.7430453 eV PBE+vdW (tier 2 basis)
N    0.170832  0.307862  0.150207
C    0.068105  0.104636  1.636762
C    1.470440  0.055062  2.218283
O    2.475317  -0.206629  1.516789
H    -0.662943  -0.116257  -0.272148
H    0.056228  1.310204  -0.043958
H    -0.465864  0.944584  2.105550
H    -0.724829  -1.345725  3.055859
C    -0.671093  -1.200884  1.970736
H    -1.701033  -1.148059  1.594736
H    -0.174267  -2.078286  1.531906
H    2.436947  0.177504  3.857528
O    1.524973  0.265961  3.500566
Sr    2.475187  -0.492972  -0.785816
