20
Energy: -102205.195131 eV PBE+vdW (tier 2 basis)
N    -1.053450  0.439786  1.260935
C    0.366873  -0.037134  1.563169
C    1.380180  1.061506  1.185383
O    2.560988  0.854075  1.142325
H    -1.222033  0.479125  0.244789
H    -1.193985  1.396948  1.619645
H    0.423856  -0.141042  2.657243
C    0.675240  -1.370527  0.875981
C    0.198343  -2.645255  1.588909
C    1.053483  -3.084926  2.763269
O    1.725704  -2.226888  3.445881
O    1.099156  -4.329262  3.058456
H    1.766314  -1.397792  0.758168
H    0.270736  -1.355763  -0.148550
H    0.174447  -3.482368  0.879315
H    -0.838610  -2.570689  1.961562
O    0.755866  2.242474  0.968258
H    1.424485  2.931382  0.768440
H    -1.765377  -0.177786  1.673634
Sr    2.693784  -3.982862  4.704190
