20
Energy: -102204.465237 eV PBE+vdW (tier 2 basis)
N    -0.121927  -0.358900  0.038815
C    0.041750  -0.301557  1.532230
C    1.446479  -0.851545  1.806146
O    2.074910  -1.406217  0.920973
H    -0.216565  0.566928  -0.394001
H    0.747755  -0.830941  -0.308200
H    -0.055613  0.735166  1.874174
C    -1.084767  -1.202928  2.102322
C    -2.168738  -1.183300  1.022859
C    -1.441914  -1.191851  -0.323115
O    -2.022833  -0.705690  -1.395224
O    -0.954158  -2.541621  -0.716203
H    -1.436232  -0.824316  3.066917
H    -0.707968  -2.220903  2.284943
H    -2.752125  -0.252048  1.061048
H    -2.876384  -2.017666  1.098684
O    1.808357  -0.678844  3.065341
H    2.699981  -1.059625  3.217892
H    -0.669218  -3.102482  0.028496
Sr    -2.198412  -2.352345  -2.887287
