20
Energy: -102205.44211 eV PBE+vdW (tier 2 basis)
N    -1.314438  1.211866  0.600018
C    -0.856109  0.344184  1.691625
C    0.673718  0.570092  1.771367
O    1.398353  0.008230  2.628538
H    -1.949804  1.952689  0.893085
H    -1.731820  0.711282  -0.183865
H    -1.249666  0.721107  2.649373
C    -1.207631  -1.162440  1.536326
C    -2.221262  -1.713160  2.546249
C    -1.683077  -1.964569  3.934968
O    -0.472674  -1.901497  4.220328
O    -2.506822  -2.289540  4.905605
H    -0.296172  -1.773445  1.572755
H    -1.617053  -1.319386  0.529886
H    -2.603486  -2.686040  2.188637
H    -3.112126  -1.068267  2.622583
O    1.133140  1.392675  0.904267
H    0.243498  1.655798  0.397874
H    -3.442497  -2.337302  4.622746
Sr    1.775725  -1.378079  4.379149
