20
Energy: -102204.155496 eV PBE+vdW (tier 2 basis)
N    0.276869  -0.481999  -0.002916
C    -0.363330  -0.198414  1.267330
C    0.411315  1.012196  1.784745
O    1.493185  1.039088  2.271285
H    1.204884  -0.893106  0.098675
H    -0.289628  -1.060148  -0.620314
H    -1.394732  0.107319  1.027759
C    -0.392495  -1.343064  2.304039
C    -0.957692  -1.005743  3.715187
C    -2.347049  -0.444309  3.687025
O    -2.586096  0.698489  3.218417
O    -3.380141  -1.117810  4.123024
H    0.634710  -1.700108  2.461969
H    -0.954124  -2.176361  1.859473
H    -0.315286  -0.255454  4.202186
H    -0.916402  -1.909222  4.337609
O    -0.291579  2.281890  1.557778
H    0.418523  2.957546  1.623657
H    -3.138864  -1.990749  4.494917
Sr    -2.638469  2.676657  2.122018
