20
Energy: -102204.858524 eV PBE+vdW (tier 2 basis)
N    4.614682  -2.813271  -1.025735
C    4.839058  -2.726463  0.481343
C    6.307432  -2.350229  0.694905
O    6.686682  -1.961923  1.841616
H    5.527175  -3.019842  -1.473964
H    4.261225  -1.933490  -1.425148
H    4.200115  -1.922013  0.869699
C    4.457481  -4.071126  1.121981
C    4.378617  -4.057287  2.649399
C    3.531076  -5.242840  3.113517
O    2.814083  -5.882464  2.376265
O    3.682225  -5.449375  4.431442
H    5.145098  -4.858560  0.775500
H    3.454939  -4.353537  0.756758
H    3.887006  -3.143348  3.018835
H    5.360606  -4.095812  3.135413
O    7.126463  -2.469643  -0.286648
H    3.941231  -3.558482  -1.255177
H    3.093300  -6.186527  4.694549
Sr    8.929232  -1.741415  1.145048
