20
Energy: -102204.1898 eV PBE+vdW (tier 2 basis)
N    0.024187  -0.004674  -0.060643
C    -0.590796  -0.017831  1.248219
C    0.323568  0.661000  2.271855
O    1.375460  0.312358  2.695832
H    0.923961  -0.485046  -0.093532
H    0.113759  0.919057  -0.479881
H    -1.529167  0.554822  1.166660
C    -0.895833  -1.473771  1.646337
C    -1.494029  -1.719547  3.057481
C    -2.777627  -0.982341  3.291265
O    -2.798740  0.266822  3.434305
O    -3.934896  -1.589353  3.328890
H    0.039194  -2.050286  1.606121
H    -1.552291  -1.881987  0.866795
H    -0.783974  -1.393915  3.833265
H    -1.636692  -2.799832  3.191334
O    -0.175327  2.012192  2.671159
H    0.624129  2.447322  3.039605
H    -3.862214  -2.560567  3.228063
Sr    -2.439082  2.495084  3.456704
