20
Energy: -102205.448736 eV PBE+vdW (tier 2 basis)
N    1.852425  1.765204  1.983602
C    1.323028  0.694391  1.042332
C    -0.203927  0.897809  1.113635
O    -0.690197  1.687501  1.901683
H    2.481262  1.399422  2.707071
H    0.977731  2.163063  2.426071
H    1.667301  0.943661  0.030454
C    1.789102  -0.726728  1.394684
C    1.256666  -1.289469  2.717780
C    1.609722  -2.748171  2.959339
O    1.349605  -3.254392  4.107373
O    2.132397  -3.459986  2.031100
H    2.888692  -0.750857  1.370278
H    1.466525  -1.368866  0.564567
H    0.155866  -1.240183  2.764293
H    1.602757  -0.737305  3.605421
O    -0.850932  0.127697  0.251523
H    -1.813254  0.312984  0.302360
H    2.342425  2.518584  1.486063
Sr    2.108809  -5.348361  3.439370
