20
Energy: -102204.637093 eV PBE+vdW (tier 2 basis)
N    -0.257699  -0.129693  0.493896
C    0.189364  0.023241  1.912500
C    1.702574  0.233724  1.925572
O    2.277552  0.684013  0.913154
H    -0.258990  -1.130547  0.261258
H    -1.269732  0.138436  0.552812
H    -0.213999  0.999808  2.238539
C    -0.341225  -1.044456  2.894280
C    -1.851031  -1.370921  2.783610
C    -2.765046  -0.175261  2.576775
O    -2.621795  0.637420  1.662679
O    -3.747617  -0.119833  3.464720
H    -0.147814  -0.689698  3.920073
H    0.213741  -1.986486  2.768160
H    -2.157624  -1.926050  3.676808
H    -2.032539  -2.043100  1.930460
O    2.422841  0.015003  2.991040
H    1.910849  -0.355605  3.738815
H    -4.340071  0.633989  3.255946
Sr    1.275459  1.163248  -1.112837
