20
Energy: -102204.207491 eV PBE+vdW (tier 2 basis)
N    -0.114337  -0.632978  0.008991
C    0.008387  -0.126201  1.423573
C    1.525769  -0.183052  1.695616
O    2.299927  -0.534307  0.825195
H    -0.655700  -0.022703  -0.611558
H    0.882302  -0.719955  -0.324354
H    -0.301658  0.926508  1.451180
C    -0.852857  -0.971945  2.390490
C    -0.673467  -2.445877  2.155163
C    -1.608320  -3.420072  2.265748
O    -1.466470  -4.702724  2.126963
O    -2.986176  -3.166597  2.601432
H    -1.900213  -0.652278  2.263810
H    -0.559792  -0.664835  3.407023
H    0.339975  -2.834098  2.030781
H    -0.532883  -1.583179  0.041239
O    1.826252  0.201174  2.927251
H    2.799794  0.192174  3.047131
H    -3.152785  -2.254009  2.893716
Sr    -3.360897  -5.650557  2.762629
