20
Energy: -102205.050729 eV PBE+vdW (tier 2 basis)
N    -0.128291  0.210654  0.482484
C    0.211929  -0.171023  1.906905
C    1.635494  -0.728272  1.969343
O    2.382144  -0.664715  0.931166
H    0.677406  0.651847  0.017346
H    -0.943516  0.875356  0.530486
H    0.227356  0.781097  2.462388
C    -0.845120  -1.104986  2.520226
C    -2.317496  -0.675736  2.316435
C    -2.587976  0.783569  2.631813
O    -2.991490  1.244951  3.658349
O    -2.267121  1.584093  1.525955
H    -0.618215  -1.163077  3.592301
H    -0.721600  -2.121790  2.118468
H    -2.940138  -1.276859  2.988468
H    -2.654865  -0.887580  1.291693
O    2.049858  -1.209496  3.070158
H    -0.395525  -0.606247  -0.082608
H    -2.507642  2.507690  1.748943
Sr    4.199935  -1.609773  2.197598
