20
Energy: -102203.361233 eV PBE+vdW (tier 2 basis)
N    -0.391746  0.367280  0.289315
C    -0.063636  0.136191  1.657924
C    1.445120  -0.113195  1.799099
O    2.190939  -0.271316  0.865922
H    -0.924847  1.207241  0.092288
H    0.396251  0.239265  -0.345020
H    -0.341312  0.979293  2.310418
C    -0.889914  -1.127644  2.117423
C    -0.869163  -1.371786  3.670949
C    -1.654564  -2.568885  3.961157
O    -2.889182  -2.641092  4.176115
O    -1.072848  -3.826708  3.942026
H    -0.508659  -2.002937  1.571316
H    -1.924078  -0.956148  1.795964
H    -1.332879  -0.515789  4.178927
H    0.169019  -1.471835  4.019305
O    1.831368  -0.154403  3.103954
H    2.806513  -0.251065  3.112648
H    -0.105588  -3.812176  3.798190
Sr    -3.452233  -4.860584  4.495209
