20
Energy: -102204.161558 eV PBE+vdW (tier 2 basis)
N    -0.566753  -0.264467  0.077241
C    -0.118469  -0.030744  1.506457
C    1.400611  0.055402  1.653256
O    1.928080  0.412004  2.666907
H    -0.949505  0.585708  -0.353576
H    0.241363  -0.575769  -0.484193
H    -0.548559  0.920346  1.843304
C    -0.727195  -1.210285  2.294855
C    -2.045299  -1.488032  1.572572
C    -1.755333  -1.369544  0.074882
O    -2.703693  -1.021847  -0.761755
O    -1.141117  -2.593977  -0.499394
H    -0.859529  -0.942424  3.347857
H    -0.050615  -2.079086  2.274635
H    -2.797434  -0.722863  1.813264
H    -2.482450  -2.464486  1.815446
O    2.025376  -0.370713  0.519059
H    2.994600  -0.317467  0.655812
H    -0.622466  -3.110593  0.144907
Sr    -3.046858  -2.712764  -2.171933
