20
Energy: -102204.574706 eV PBE+vdW (tier 2 basis)
N    0.621548  -0.754363  0.157151
C    -0.043541  0.074813  1.163227
C    1.033263  0.743064  2.009955
O    1.882635  1.496583  1.440381
H    1.390715  -0.253899  -0.290482
H    -0.032796  -1.001394  -0.588204
H    -0.580509  0.946203  0.729546
C    -1.105845  -0.746470  1.921948
C    -0.669567  -2.177505  2.317427
C    -0.304729  -2.384344  3.741060
O    0.264101  -1.499554  4.465362
O    -0.509958  -3.501969  4.367259
H    -1.957349  -0.854010  1.237421
H    -1.500521  -0.180776  2.776881
H    -1.434463  -2.914368  2.039566
H    0.226019  -2.431550  1.707147
O    1.094029  0.607114  3.303065
H    0.490621  -0.628706  3.956439
H    -0.965989  -4.170463  3.817627
Sr    2.913605  2.226971  3.391252
