20
Energy: -102205.477433 eV PBE+vdW (tier 2 basis)
N    0.577526  -1.092456  0.000798
C    0.392267  -0.343931  1.304715
C    1.654550  -0.772613  2.128214
O    1.930598  -0.042692  3.151580
H    0.943744  -0.502311  -0.755722
H    -0.265364  -1.568873  -0.341217
H    0.431867  0.732672  1.098037
C    -0.964167  -0.746385  1.926894
C    -1.197845  -0.415595  3.420548
C    -1.108895  1.042678  3.819943
O    -0.204734  1.481023  4.546894
O    -2.012414  1.905355  3.396049
H    -1.073524  -1.839399  1.852121
H    -1.766545  -0.310128  1.312520
H    -0.494795  -0.974756  4.047046
H    -2.205051  -0.779588  3.679520
O    2.267103  -1.757270  1.721891
H    1.335173  -1.797503  0.288615
H    -2.746779  1.488291  2.904671
Sr    2.093163  1.212182  4.968205
