20
Energy: -102203.701358 eV PBE+vdW (tier 2 basis)
N    1.294015  -1.179806  0.009516
C    0.852184  -0.072814  0.844704
C    1.929642  0.214974  1.898325
O    2.912796  -0.476060  2.051797
H    1.123551  -1.032727  -0.983332
H    2.286168  -1.374523  0.169126
H    0.689191  0.855838  0.277873
C    -0.496102  -0.461116  1.531018
C    -0.340629  -1.901812  2.031074
C    -1.524142  -2.720519  2.236330
O    -1.537552  -3.730519  3.025512
O    -2.650903  -2.529281  1.583750
H    -1.274698  -0.389261  0.750815
H    -0.762474  0.244312  2.326815
H    0.321037  -1.993620  2.901637
H    0.255010  -2.353295  1.159432
O    1.624505  1.306870  2.621505
H    2.356827  1.473197  3.249659
H    -2.597495  -1.729572  1.018186
Sr    -2.061233  -5.525287  4.142499
