20
Energy: -102205.732206 eV PBE+vdW (tier 2 basis)
N    1.282119  -0.882855  0.519187
C    0.394016  -0.105169  1.434162
C    1.313552  0.629996  2.404814
O    2.366095  0.109065  2.811324
H    0.703695  -1.482185  -0.076307
H    1.704708  -0.221186  -0.142123
H    -0.210673  0.622080  0.874866
C    -0.552619  -0.975720  2.326869
C    -1.116946  -2.277442  1.741091
C    -0.183829  -3.466314  1.850905
O    1.011829  -3.352563  2.170281
O    -0.629163  -4.674930  1.594728
H    -1.394217  -0.327168  2.599510
H    -0.053174  -1.225915  3.274032
H    -1.434495  -2.179065  0.688212
H    -2.044231  -2.527300  2.281846
O    0.864325  1.793857  2.795815
H    1.456295  2.203953  3.465405
H    -1.583187  -4.704954  1.379429
Sr    3.002900  -2.123184  2.091956
