20
Energy: -102205.113747 eV PBE+vdW (tier 2 basis)
N    0.049267  -0.488944  -0.786020
C    -0.029353  -0.232822  0.706281
C    0.867145  1.026560  0.871527
O    1.723738  1.236720  0.039123
H    -0.717257  -0.043134  -1.307306
H    0.070002  -1.486931  -1.028465
H    -1.078819  -0.042673  0.968890
C    0.535127  -1.455947  1.460491
C    0.539743  -1.300547  2.985089
C    1.040955  -2.521063  3.739160
O    1.066987  -2.464756  5.018561
O    1.436103  -3.569315  3.118048
H    1.558740  -1.647808  1.104569
H    -0.071432  -2.333208  1.189393
H    -0.466004  -1.084474  3.380055
H    1.179079  -0.467306  3.315370
O    0.707941  1.802014  1.938153
H    -0.087510  1.587930  2.460568
H    0.952788  -0.013592  -1.061493
Sr    1.974761  -4.594705  5.180002
