20
Energy: -102203.719445 eV PBE+vdW (tier 2 basis)
N    0.625955  -0.250124  -0.203662
C    0.036401  -0.041208  1.096256
C    1.153487  -0.025571  2.125985
O    2.259777  -0.584372  1.976418
H    0.734413  -1.233542  -0.448893
H    0.097596  0.213817  -0.939595
H    -0.390470  0.975636  1.112415
C    -1.096898  -1.049875  1.488762
C    -1.796330  -0.899605  2.860429
C    -2.353561  0.479485  3.091485
O    -3.431266  0.920126  2.862214
O    -1.335128  1.346303  3.654182
H    -0.694471  -2.070648  1.420133
H    -1.844834  -0.949930  0.690510
H    -1.130107  -1.171871  3.691202
H    -2.646335  -1.592357  2.887347
O    1.008527  0.637710  3.291275
H    0.013597  1.036274  3.460946
H    -1.715753  2.244232  3.751113
Sr    3.469241  0.180356  3.811855
