20
Energy: -102205.11509 eV PBE+vdW (tier 2 basis)
N    -0.296695  0.778413  -0.083929
C    -0.303902  -0.006187  1.213753
C    1.053997  0.357221  1.855061
O    1.968106  0.728591  1.154303
H    -0.736375  1.704358  0.008721
H    -0.756734  0.279538  -0.856739
H    -1.156735  0.337467  1.815063
C    -0.416426  -1.513720  0.894167
C    -0.308601  -2.452418  2.103554
C    1.100437  -2.797001  2.555242
O    2.084620  -2.691833  1.739276
O    1.276866  -3.233517  3.745095
H    0.365806  -1.781845  0.167871
H    -1.393276  -1.674610  0.415547
H    -0.766019  -3.416710  1.827052
H    -0.891190  -2.115825  2.973003
O    1.198137  0.180271  3.173268
H    0.352354  0.016607  3.631759
H    0.721558  0.924634  -0.295431
Sr    3.548070  -3.585436  3.354366
