20
Energy: -102204.365289 eV PBE+vdW (tier 2 basis)
N    -0.255606  -0.171649  0.084833
C    -0.292249  0.138101  1.559158
C    1.185949  0.287645  1.945539
O    2.063166  -0.097833  1.195180
H    -0.412843  0.654321  -0.504249
H    0.720843  -0.515621  -0.091514
H    -0.841238  1.075184  1.711210
C    -0.962425  -1.030966  2.323166
C    -2.297087  -1.424012  1.756623
C    -2.612478  -2.717430  1.505983
O    -1.892424  -3.798315  1.562438
O    -3.953091  -3.098294  1.142246
H    -1.053012  -0.699490  3.368642
H    -0.287385  -1.899515  2.325049
H    -0.976547  -0.883514  -0.127905
H    -3.089289  -0.674417  1.713648
O    1.334010  0.820088  3.149997
H    2.288026  0.874199  3.372294
H    -4.581023  -2.355052  1.169068
Sr    -3.342597  -5.481476  1.348847
