20
Energy: -102205.18561 eV PBE+vdW (tier 2 basis)
N    1.207857  -1.083460  0.162307
C    0.084129  -0.304867  0.805076
C    0.780822  0.982315  1.321200
O    1.990961  1.066967  1.255934
H    1.437628  -1.929467  0.742265
H    2.028579  -0.426120  0.220998
H    -0.637906  -0.047339  0.018006
C    -0.628579  -1.108573  1.908044
C    0.137676  -1.368081  3.216904
C    1.174432  -2.465342  3.250250
O    1.507784  -2.947072  4.381842
O    1.741879  -2.922421  2.174779
H    -0.994738  -2.051142  1.475101
H    -1.539968  -0.553117  2.170865
H    -0.579971  -1.610040  4.013091
H    0.645208  -0.457759  3.582842
O    0.038725  1.939842  1.861068
H    -0.922461  1.796038  1.773641
H    1.013343  -1.346620  -0.808754
Sr    3.030597  -4.462744  3.558540
