20
Energy: -102205.037875 eV PBE+vdW (tier 2 basis)
N    0.659876  0.373556  0.178143
C    -0.147361  0.147034  1.370369
C    0.816515  -0.376475  2.425728
O    1.141145  -1.584729  2.571088
H    1.153604  -0.443093  -0.177423
H    1.285686  1.175052  0.235999
H    -0.502559  1.128679  1.714052
C    -1.351581  -0.742187  1.026158
C    -2.504415  -0.787802  2.039175
C    -2.416314  -1.803071  3.146501
O    -1.591039  -2.739196  3.154439
O    -3.257814  -1.753435  4.153094
H    -1.025715  -1.762234  0.766046
H    -1.743190  -0.321303  0.090932
H    -3.438345  -1.033579  1.501349
H    -2.692217  0.204719  2.480461
O    1.396798  0.580099  3.118697
H    2.135092  0.238858  3.666913
H    -3.895874  -1.014099  4.087867
Sr    0.448536  -3.742210  2.978771
