20
Energy: -102204.301897 eV PBE+vdW (tier 2 basis)
N    -0.208816  -0.785558  0.068305
C    -0.026141  0.086589  1.297914
C    1.507544  0.184466  1.417139
O    2.229743  -0.438279  0.659166
H    -0.660589  -0.298469  -0.712999
H    0.789301  -1.031973  -0.196537
H    -0.440097  1.078179  1.076425
C    -0.699826  -0.506577  2.553233
C    -2.200542  -0.549607  2.518348
C    -2.942091  0.229533  3.333918
O    -2.589393  1.143929  4.190994
O    -4.378823  0.109465  3.384421
H    -0.371912  0.114053  3.397458
H    -0.280680  -1.512126  2.731259
H    -2.709965  -1.297882  1.909835
H    -0.733853  -1.645347  0.263966
O    1.889454  0.984730  2.400660
H    2.869521  1.015122  2.433777
H    -4.722650  -0.603851  2.819728
Sr    -4.465988  1.726398  5.232561
